data_mof_unit_64020.cif
_audit_creation_date              2012-12-10T17:16:39-0500
_audit_creation_method            fapswitch 2.2
_symmetry_space_group_name_H-M    P1
_symmetry_Int_Tables_number       1
_space_group_crystal_system       triclinic
_cell_length_a                    18.762823
_cell_length_b                    18.929496
_cell_length_c                    18.742808
_cell_angle_alpha                 109.197513
_cell_angle_beta                  109.244596
_cell_angle_gamma                 109.738818
_cell_volume                      5139.04264556

loop_
_atom_site_label
_atom_site_type_symbol
_atom_type_description
_atom_site_fract_x
_atom_site_fract_y
_atom_site_fract_z
_atom_type_partial_charge
C1    C     C_R   0.618792 0.119292 0.000557 0.838680
C2    C     C_R   0.809303 0.234608 0.980018 -0.170456
C3    C     C_R   0.813867 0.314763 0.001012 -0.082262
C4    C     C_R   0.754186 0.331020 0.022709 -0.263053
C5    C     C_R   0.687742 0.266129 0.020377 0.486474
C6    C     C_R   0.685464 0.186914 0.001442 -0.100550
C7    C     C_R   0.488252 0.739322 0.817745 -0.177850
C8    C     C_R   0.486719 0.674889 0.753213 -0.183645
C9    C     C_R   0.498670 0.687341 0.687450 -0.018235
C10   C     C_R   0.510648 0.763820 0.685672 -0.181552
C11   C     C_R   0.508960 0.826821 0.748358 -0.193295
C12   C     C_R   0.500258 0.117744 0.118796 0.723325
C13   C     C_R   0.498686 0.814939 0.814874 0.001671
C14   C     C_R   0.321819 0.819925 0.078575 -0.174629
C15   C     C_R   0.257106 0.756351 0.078486 -0.173742
C16   C     C_R   0.186130 0.685023 0.999441 -0.006845
C17   C     C_R   0.179295 0.678015 0.920447 -0.161871
C18   C     C_R   0.242527 0.743116 0.920539 -0.175392
C19   C     C_R   0.314165 0.813797 0.999621 -0.011753
C20   C     C_R   0.618901 0.501854 0.620491 0.840960
C21   C     C_R   0.495411 0.385986 0.379917 0.726364
C22   C     C_R   0.381275 0.503274 0.384493 0.829072
C23   C     C_R   0.381056 0.880969 0.999865 0.774756
C24   C     C_R   0.499574 0.621216 0.621249 0.788527
C25   C     C_R   0.881510 0.501109 0.881543 0.853381
C26   C     C_R   0.880942 0.381275 0.000329 0.803784
C27   C     C_R   0.118991 0.499479 0.118452 0.829850
C28   C     C_R   0.118898 0.618630 0.999642 0.796156
C29   C     C_R   0.755369 0.578854 0.758313 -0.330055
C30   C     C_R   0.818942 0.580195 0.824694 0.503318
C31   C     C_R   0.815127 0.501789 0.814590 -0.150065
C32   C     C_R   0.746909 0.423250 0.740575 -0.330871
C33   C     C_R   0.681744 0.421707 0.675659 0.266863
C34   C     C_R   0.499589 0.881719 0.881691 0.771668
C35   C     C_R   0.686079 0.500307 0.685422 -0.110101
C36   C     C_R   0.260688 0.426115 0.231790 0.210909
C37   C     C_R   0.196034 0.426785 0.167721 -0.192168
C38   C     C_R   0.186143 0.499708 0.185894 -0.151307
C39   C     C_R   0.240236 0.572826 0.268592 -0.261290
C40   C     C_R   0.303601 0.573367 0.333853 0.472129
C41   C     C_R   0.314423 0.500721 0.315330 -0.188458
C42   C     C_2   0.431231 0.238880 0.261898 -0.152380
C43   C     C_2   0.483332 0.324583 0.298581 0.175763
C44   C     C_2   0.429647 0.176850 0.187959 -0.236776
C45   C     C_2   0.504259 0.184702 0.189688 0.409140
C46   C     C_R   0.746154 0.171412 0.981652 -0.264935
Cu1   Cu    Cu3+1 0.438200 0.000380 0.938580 0.951039
Cu2   Cu    Cu3+1 0.561800 0.999620 0.061420 0.955666
Cu3   Cu    Cu3+1 0.438220 0.441470 0.503160 0.961053
Cu4   Cu    Cu3+1 0.561830 0.565070 0.503150 0.967107
Cu5   Cu    Cu3+1 0.999900 0.438590 0.938490 0.943964
Cu6   Cu    Cu3+1 0.999930 0.561410 0.061340 0.955953
H1    H     H_    0.391531 0.213299 0.287935 0.135607
H2    H     H_    0.478015 0.616280 0.755549 0.141829
H3    H     H_    0.519908 0.774096 0.635092 0.165246
H4    H     H_    0.517427 0.885436 0.746115 0.136744
H5    H     H_    0.376924 0.874552 0.140003 0.140856
H6    H     H_    0.262947 0.762062 0.139861 0.139467
H7    H     H_    0.124333 0.623206 0.859053 0.142066
H8    H     H_    0.236417 0.737765 0.859198 0.140056
H9    H     H_    0.759465 0.639105 0.763944 0.164121
H10   H     H_    0.744187 0.363038 0.733415 0.165023
H11   H     H_    0.152582 0.370787 0.103487 0.167342
H12   H     H_    0.233675 0.629868 0.282823 0.172316
H13   H     H_    0.367056 0.121935 0.134283 0.108239
H14   H     H_    0.743709 0.109921 0.966245 0.154937
H15   H     H_    0.855477 0.221448 0.963850 0.158035
H16   H     H_    0.758787 0.393594 0.040758 0.156021
H17   H     H_    0.480105 0.729836 0.869098 0.135074
O1    O     O_R   0.537990 0.090490 0.948120 -0.572278
O2    O     O_R   0.642390 0.554900 0.592760 -0.591793
O3    O     O_R   0.447840 0.361480 0.413570 -0.589508
O4    O     O_R   0.552220 0.465860 0.413560 -0.592707
O5    O     O_R   0.357660 0.451630 0.413550 -0.589790
O6    O     O_R   0.462040 0.556010 0.413540 -0.560178
O7    O     O_R   0.447820 0.540680 0.592750 -0.594680
O8    O     O_R   0.552200 0.645050 0.592740 -0.578183
O9    O     O_R   0.909730 0.448730 0.858460 -0.593690
O10   O     O_R   0.909750 0.552440 0.962210 -0.561448
O11   O     O_R   0.909720 0.357980 0.948050 -0.593635
O12   O     O_R   0.642370 0.089850 0.051860 -0.592962
O13   O     O_R   0.909750 0.461690 0.051790 -0.592333
O14   O     O_R   0.090070 0.447560 0.037620 -0.592793
O15   O     O_R   0.090100 0.551270 0.141360 -0.592317
O16   O     O_R   0.090070 0.538310 0.948030 -0.589067
O17   O     O_R   0.090100 0.642020 0.051770 -0.577344
O18   O     O_R   0.447800 0.089920 0.037730 -0.592727
O19   O     O_R   0.552180 0.089280 0.141460 -0.573650
O20   O     O_R   0.357630 0.910150 0.948140 -0.584646
O21   O     O_R   0.462010 0.909510 0.051880 -0.586050
O22   O     O_R   0.447820 0.910720 0.858540 -0.588932
O23   O     O_R   0.552200 0.910080 0.962270 -0.585339
O24   O     O_R   0.538000 0.450530 0.592770 -0.559886
O25   O     O_3   0.889615 0.657927 0.895293 -0.568157
C47   C     C_3   0.860945 0.699893 0.947168 -0.283194
H18   H     H_    0.820848 0.656474 0.963733 0.152428
H19   H     H_    0.824256 0.726104 0.915130 0.149438
H20   H     H_    0.918986 0.755373 0.009200 0.189455
N1    N     N_2   0.524738 0.358112 0.256057 -0.386301
H21   H     H_    0.584673 0.413766 0.297318 0.269335
C48   C     C_3   0.468978 0.363423 0.185712 -0.703725
H22   H     H_    0.505029 0.385178 0.153591 0.228293
H23   H     H_    0.448796 0.410550 0.211244 0.224151
H24   H     H_    0.410259 0.299154 0.136212 0.240874
N2    N     N_2   0.613044 0.341405 0.600425 -0.423391
H25   H     H_    0.597298 0.290004 0.611861 0.245341
C49   C     C_3   0.624269 0.322085 0.524802 -0.619102
H26   H     H_    0.681964 0.313312 0.536834 0.219716
H27   H     H_    0.632945 0.374732 0.508654 0.222918
H28   H     H_    0.565459 0.261545 0.468015 0.229293
N3    N     N_2   0.271791 0.351826 0.214252 -0.410043
H29   H     H_    0.331659 0.362833 0.255056 0.241729
C50   C     C_3   0.234114 0.286073 0.125139 -0.702642
H30   H     H_    0.253937 0.236868 0.124336 0.225315
H31   H     H_    0.257578 0.315324 0.089073 0.224988
H32   H     H_    0.161844 0.252264 0.092632 0.234857
O26   O     O_3   0.357589 0.646570 0.415119 -0.574402
C51   C     C_3   0.313584 0.645530 0.463268 -0.335120
H33   H     H_    0.355639 0.705325 0.527534 0.193533
H34   H     H_    0.300813 0.589615 0.474864 0.163680
H35   H     H_    0.251648 0.644875 0.430874 0.162815
O27   O     O_3   0.583252 0.244421 0.266929 -0.570109
C52   C     C_3   0.649846 0.283422 0.250018 -0.268951
H36   H     H_    0.626942 0.299990 0.198229 0.192500
H37   H     H_    0.678044 0.241720 0.233086 0.182777
H38   H     H_    0.703062 0.344706 0.310235 0.175064
O28   O     O_3   0.630548 0.282205 0.045220 -0.604620
C53   C     C_3   0.574423 0.291919 0.982294 -0.319744
H39   H     H_    0.522462 0.294026 0.997302 0.189110
H40   H     H_    0.541967 0.236251 0.915633 0.167555
H41   H     H_    0.609673 0.353634 0.984367 0.153251

loop_
_geom_bond_atom_site_label_1
_geom_bond_atom_site_label_2
_ccdc_geom_bond_type
C16   C28   S    
C20   O24   A    
C53   H41   S    
C25   C31   S    
C48   H22   S    
C49   H27   S    
C47   H18   S    
C53   H39   S    
Cu5   O16   S    
C44   H13   S    
C47   H20   S    
C52   H36   S    
C2    C46   A    
C39   H12   S    
N2    C49   S    
C37   C38   A    
C36   C37   A    
C43   N1    S    
C46   H14   S    
C42   H1    S    
C5    C6    A    
C52   H37   S    
C22   C41   S    
C27   C38   S    
C1    O12   A    
C15   C16   A    
C21   O4    A    
Cu2   O12   S    
C18   C19   A    
Cu6   O15   S    
C51   H33   S    
C34   O22   A    
C20   C35   S    
C31   C32   A    
C8    C9    A    
Cu3   O3    S    
C49   H26   S    
C23   O20   A    
C20   O2    A    
Cu6   O10   S    
C9    C10   A    
C50   H32   S    
C40   O26   S    
C48   H23   S    
Cu2   O21   S    
Cu1   O20   S    
C36   C41   A    
C42   C44   S    
C22   O6    A    
C37   H11   S    
C51   H34   S    
C38   C39   A    
C29   H9    S    
Cu3   O7    S    
C12   O19   A    
C21   O3    A    
Cu5   Cu6   S    
C7    C8    A    
C33   N2    S    
C2    H15   S    
Cu4   O4    S    
C8    H2    S    
C39   C40   A    
C4    H16   S    
C16   C17   A    
C52   H38   S    
C26   O11   A    
C3    C4    A    
C25   O9    A    
C51   H35   S    
Cu1   O18   S    
C19   C23   S    
Cu4   O2    S    
Cu1   O1    S    
C29   C30   A    
C15   H6    S    
Cu1   Cu2   S    
C14   C15   A    
C7    C13   A    
N3    H29   S    
C5    O28   S    
C36   N3    S    
Cu2   O19   S    
C17   C18   A    
C23   O21   A    
N3    C50   S    
Cu6   O13   S    
C10   H3    S    
C17   H7    S    
C18   H8    S    
C40   C41   A    
N1    C48   S    
C48   H24   S    
C28   O17   A    
C49   H28   S    
C42   C43   D    
C22   O5    A    
O28   C53   S    
Cu4   O8    S    
Cu5   O14   S    
C44   C45   D    
C50   H30   S    
C14   H5    S    
C27   O15   A    
C6    C46   A    
C12   O18   A    
C25   O10   A    
Cu1   O22   S    
C14   C19   A    
C3    C26   S    
C24   O7    A    
C12   C45   S    
C53   H40   S    
C7    H17   S    
C47   H19   S    
C9    C24   S    
C45   O27   S    
N2    H25   S    
C29   C35   A    
C1    O1    A    
N1    H21   S    
C32   C33   A    
Cu6   O17   S    
C2    C3    A    
Cu5   O9    S    
C32   H10   S    
C13   C34   S    
C30   O25   S    
Cu4   O6    S    
C11   C13   A    
C30   C31   A    
Cu5   O11   S    
C27   O14   A    
C33   C35   A    
O25   C47   S    
C34   O23   A    
C10   C11   A    
C24   O8    A    
C4    C5    A    
C26   O13   A    
Cu3   Cu4   S    
Cu2   O23   S    
C28   O16   A    
Cu3   O5    S    
Cu3   O24   S    
O27   C52   S    
O26   C51   S    
C21   C43   S    
C11   H4    S    
C1    C6    S    
C50   H31   S    
