data_mof_unit_53877.cif
_audit_creation_date              2012-10-26T21:12:51-0400
_audit_creation_method            fapswitch 2.2
_symmetry_space_group_name_H-M    P1
_symmetry_Int_Tables_number       1
_space_group_crystal_system       triclinic
_cell_length_a                    10.839902
_cell_length_b                    15.781878
_cell_length_c                    17.033806
_cell_angle_alpha                 96.758077
_cell_angle_beta                  92.383028
_cell_angle_gamma                 90.191042
_cell_volume                      2891.19241492

loop_
_atom_site_label
_atom_site_type_symbol
_atom_type_description
_atom_site_fract_x
_atom_site_fract_y
_atom_site_fract_z
_atom_type_partial_charge
C1    C     C_R   0.501523 0.489193 0.348421 0.599059
C2    C     C_R   0.538805 0.441312 0.776865 0.206613
C3    C     C_R   0.630955 0.510667 0.148553 0.023623
C4    C     C_R   0.580809 0.446409 0.856549 -0.015749
C5    C     C_R   0.535714 0.469578 0.097754 0.116405
C6    C     C_R   0.572831 0.525463 0.905040 0.097659
C7    C     C_R   0.439869 0.425955 0.129741 0.308802
C8    C     C_R   0.549021 0.600671 0.870233 0.290254
C9    C     C_R   0.431962 0.429489 0.211835 0.226810
C10   C     C_R   0.526084 0.596617 0.787769 0.216752
C11   C     C_R   0.434608 0.753150 0.463287 0.384363
C12   C     C_R   0.502741 0.510757 0.652443 0.568082
C13   C     C_R   0.565116 0.247092 0.537339 0.404698
C14   C     C_R   0.438660 0.843363 0.467783 -0.103150
C15   C     C_R   0.558296 0.156744 0.534189 -0.132778
C16   C     C_R   0.261710 0.501960 0.496740 0.509435
C17   C     C_R   0.738100 0.497905 0.502197 0.533288
C18   C     C_R   0.530590 0.890743 0.514948 0.139323
C19   C     C_R   0.468926 0.109246 0.484949 0.142681
C20   C     C_R   0.617350 0.845617 0.557829 -0.023451
C21   C     C_R   0.385881 0.153995 0.439247 -0.016936
C22   C     C_R   0.606510 0.756064 0.554305 0.020660
C23   C     C_R   0.872712 0.493163 0.505604 -0.020391
C24   C     C_R   0.396512 0.243591 0.443116 -0.015292
C25   C     C_R   0.215360 0.786988 0.605431 0.034325
C26   C     C_R   0.755378 0.276612 0.304597 0.041179
C27   C     C_R   0.186144 0.699583 0.598068 -0.051783
C28   C     C_R   0.808363 0.351308 0.345013 -0.095747
C29   C     C_R   0.107315 0.662894 0.536069 0.055984
C30   C     C_R   0.867726 0.350559 0.419425 0.060221
C31   C     C_R   0.057136 0.713932 0.479924 0.314111
C32   C     C_R   0.875443 0.273837 0.454557 0.336096
C33   C     C_R   0.084419 0.802340 0.487367 0.062362
C34   C     C_R   0.126740 0.505811 0.490391 -0.072354
C35   C     C_R   0.818362 0.198367 0.415500 0.049905
C36   C     C_R   0.163322 0.838667 0.550650 0.180041
C37   C     C_R   0.760902 0.199970 0.339585 0.183862
C38   C     C_R   0.939746 0.560480 0.549809 0.022809
C39   C     C_R   0.060935 0.437680 0.446212 -0.034559
C40   C     C_3   0.104013 0.969732 0.605102 -0.099323
C41   C     C_3   0.795610 0.081962 0.253958 -0.118207
C42   C     C_3   0.364679 0.300799 0.241174 -0.067450
C43   C     C_3   0.600152 0.722416 0.753471 -0.018414
C44   C     C_3   0.708137 0.257818 0.646397 -0.044332
C45   C     C_R   0.933865 0.428629 0.457132 0.016132
C46   C     C_3   0.326199 0.733954 0.341708 -0.152872
C47   C     C_2   0.719622 0.891422 0.605956 0.221503
C48   C     C_2   0.287946 0.107384 0.387712 0.210978
C49   C     C_2   0.297365 0.825513 0.671798 0.248431
C50   C     C_2   0.697092 0.277527 0.224513 0.220246
C51   C     C_3   0.032094 0.645361 0.354815 -0.071365
C52   C     C_3   0.053749 0.247344 0.524454 -0.053505
C53   C     C_2   0.029961 0.858527 0.430925 0.237893
C54   C     C_2   0.817510 0.116743 0.451672 0.228430
C55   C     C_2   0.881177 0.614500 0.616116 0.247195
C56   C     C_R   0.063351 0.573063 0.533191 0.004779
C57   C     C_2   0.124941 0.383842 0.382118 0.225455
C58   C     C_3   0.398666 0.335745 0.740754 -0.056789
C59   C     C_3   0.677551 0.655891 0.284779 -0.046999
C60   C     C_2   0.638522 0.370906 0.888341 0.258014
C61   C     C_2   0.753459 0.529190 0.116823 0.304336
C62   C     C_3   0.390866 0.315123 0.032184 -0.079856
C63   C     C_3   0.645987 0.705037 0.957513 -0.096998
C64   C     C_R   0.513705 0.482114 0.262285 -0.033775
C65   C     C_R   0.519388 0.516541 0.740408 -0.062284
C66   C     C_R   0.612579 0.523852 0.230952 0.213495
Cu1   Cu    Cu3+1 0.493970 0.415220 0.496180 1.011346
Cu2   Cu    Cu3+1 0.506030 0.584780 0.503820 1.026833
H1    H     H_    0.622822 0.122928 0.568821 0.130135
H2    H     H_    0.875126 0.062680 0.291164 0.143097
H3    H     H_    0.828974 0.120135 0.208049 0.142357
H4    H     H_    0.752271 0.022856 0.222956 0.153321
H5    H     H_    0.378254 0.269491 0.180455 0.129597
H6    H     H_    0.285986 0.267742 0.264051 0.212767
H7    H     H_    0.447630 0.291367 0.279611 0.118021
H8    H     H_    0.681130 0.686208 0.729931 0.099032
H9    H     H_    0.623818 0.756746 0.812605 0.156607
H10   H     H_    0.578365 0.772294 0.714599 0.158481
H11   H     H_    0.638174 0.227722 0.680515 0.152999
H12   H     H_    0.370199 0.876128 0.434875 0.139687
H13   H     H_    0.757332 0.307484 0.687730 0.183427
H14   H     H_    0.777937 0.210604 0.624675 0.172442
H15   H     H_    0.292645 0.679671 0.298744 0.143658
H16   H     H_    0.411411 0.759029 0.318004 0.099042
H17   H     H_    0.253536 0.783479 0.345056 0.108820
H18   H     H_    0.728444 0.960267 0.609269 0.143983
H19   H     H_    0.278767 0.038613 0.385049 0.140397
H20   H     H_    0.340063 0.887427 0.669553 0.140031
H21   H     H_    0.638855 0.224755 0.198293 0.134038
H22   H     H_    0.114418 0.606836 0.368342 0.115516
H23   H     H_    0.671933 0.720950 0.587116 0.173043
H24   H     H_    0.058933 0.697672 0.320607 0.150673
H25   H     H_    0.967222 0.602576 0.316579 0.203727
H26   H     H_    0.116569 0.302581 0.523150 0.135417
H27   H     H_    0.069337 0.198791 0.472890 0.183899
H28   H     H_    0.079753 0.217627 0.578579 0.133732
H29   H     H_    0.067522 0.922084 0.429250 0.138362
H30   H     H_    0.765783 0.062057 0.422660 0.169493
H31   H     H_    0.792384 0.596198 0.636086 0.090470
H32   H     H_    0.210174 0.406796 0.361179 0.170807
H33   H     H_    0.379293 0.328163 0.803228 0.132712
H34   H     H_    0.333363 0.278512 0.408588 0.172504
H35   H     H_    0.384390 0.272652 0.705231 0.130469
H36   H     H_    0.331820 0.380804 0.717086 0.110164
H37   H     H_    0.584751 0.672607 0.306521 0.117419
H38   H     H_    0.687374 0.678651 0.225991 0.134435
H39   H     H_    0.746448 0.690738 0.326665 0.206660
H40   H     H_    0.693734 0.379293 0.943333 0.128891
H41   H     H_    0.774975 0.504467 0.056937 0.124755
H42   H     H_    0.479802 0.289316 0.054336 0.108033
H43   H     H_    0.401083 0.332849 0.971639 0.164359
H44   H     H_    0.321669 0.262639 0.027541 0.137805
H45   H     H_    0.222791 0.660007 0.641265 0.183985
H46   H     H_    0.729643 0.683728 0.924837 0.092970
H47   H     H_    0.650591 0.683795 0.017368 0.158538
H48   H     H_    0.648157 0.775811 0.965925 0.140643
H49   H     H_    0.805757 0.410221 0.318124 0.193693
H50   H     H_    0.107006 0.950870 0.666060 0.145492
H51   H     H_    0.008999 0.960493 0.578013 0.171227
H52   H     H_    0.126094 0.038885 0.609841 0.150932
N1    N     N_2   0.532650 0.467629 0.014288 -0.245094
N2    N     N_2   0.578542 0.531022 0.989033 -0.258885
N3    N     N_R   0.515100 0.712130 0.509560 -0.235220
N4    N     N_R   0.484900 0.287870 0.490440 -0.240634
N5    N     N_2   0.539281 0.982295 0.520245 -0.250237
N6    N     N_2   0.459935 0.017651 0.479808 -0.231674
O1    O     O_R   0.494360 0.420530 0.382500 -0.516113
O2    O     O_3   0.706375 0.126662 0.300245 -0.610644
O3    O     O_3   0.335760 0.388109 0.242545 -0.555605
O4    O     O_3   0.494687 0.669982 0.754660 -0.481742
O5    O     O_3   0.653649 0.297243 0.583376 -0.496510
O6    O     O_3   0.346577 0.704382 0.416289 -0.548594
O7    O     O_2   0.796024 0.852792 0.642347 -0.501994
O8    O     O_2   0.215685 0.145100 0.347573 -0.524317
O9    O     O_2   0.315613 0.789641 0.730802 -0.448676
O10   O     O_2   0.715675 0.336324 0.185919 -0.543115
O11   O     O_3   0.970870 0.678408 0.423100 -0.533136
O12   O     O_R   0.505640 0.579470 0.617500 -0.490322
O13   O     O_3   0.930107 0.275003 0.529680 -0.547306
O14   O     O_2   0.941404 0.835788 0.386773 -0.495658
O15   O     O_2   0.873340 0.108745 0.513988 -0.551941
O16   O     O_2   0.932499 0.677434 0.651636 -0.482060
O17   O     O_2   0.084837 0.314895 0.351631 -0.499155
O18   O     O_3   0.521785 0.362186 0.733700 -0.504615
O19   O     O_3   0.699633 0.567534 0.282418 -0.530473
O20   O     O_2   0.628018 0.299001 0.853363 -0.498991
O21   O     O_2   0.834568 0.568731 0.157646 -0.487746
O22   O     O_3   0.345344 0.385337 0.081836 -0.511908
O23   O     O_R   0.504550 0.563720 0.388950 -0.453282
O24   O     O_3   0.533688 0.677988 0.916685 -0.506536
O25   O     O_R   0.495450 0.436280 0.611050 -0.422236
O26   O     O_R   0.314550 0.428410 0.496780 -0.539203
O27   O     O_R   0.685450 0.571590 0.503220 -0.509341
O28   O     O_R   0.324740 0.571600 0.503230 -0.463590
O29   O     O_R   0.675260 0.428400 0.496770 -0.459701
O30   O     O_3   0.192095 0.924889 0.557977 -0.616616

loop_
_geom_bond_atom_site_label_1
_geom_bond_atom_site_label_2
_ccdc_geom_bond_type
C40   H50   S    
C34   C56   A    
C23   C45   A    
C27   C29   A    
C9    C64   A    
C2    O18   S    
C14   C18   A    
C30   C45   S    
Cu2   O12   S    
C12   O25   A    
C38   C55   S    
C2    C65   A    
C17   O27   A    
C11   O6    S    
C52   O13   S    
C22   N3    A    
C43   H10   S    
C15   C19   A    
C42   H7    S    
C59   H37   S    
C48   O8    D    
C35   C37   A    
C44   H14   S    
C28   H49   S    
C26   C50   S    
C51   H22   S    
C46   O6    S    
C43   H9    S    
C11   C14   A    
C59   O19   S    
C53   O14   D    
C5    N1    S    
C24   N4    A    
C33   C36   A    
C52   H27   S    
Cu1   O29   S    
C66   O19   S    
Cu2   O23   S    
C16   C34   S    
C63   H46   S    
C62   H43   S    
C22   H23   S    
C31   C33   A    
C52   H26   S    
C14   H12   S    
C31   O11   S    
C24   H34   S    
C60   H40   S    
C41   H3    S    
C46   H17   S    
C63   H47   S    
C49   O9    D    
C61   H41   S    
C55   O16   D    
C62   O22   S    
C47   O7    D    
C35   C54   S    
C41   O2    S    
C60   O20   D    
Cu2   N3    S    
C3    C61   S    
C33   C53   S    
C15   H1    S    
C42   H6    S    
C59   H38   S    
C57   O17   D    
Cu1   O25   S    
C34   C39   A    
C43   O4    S    
C32   C35   A    
C32   O13   S    
C4    C6    A    
Cu2   O27   S    
C5    C7    A    
C13   N4    A    
C6    C8    A    
C53   H29   S    
C57   H32   S    
C59   H39   S    
Cu1   Cu2   S    
C54   H30   S    
C44   O5    S    
C64   C66   A    
C8    O24   S    
C10   O4    S    
C63   O24   S    
Cu1   O1    S    
C51   H24   S    
C50   H21   S    
C62   H42   S    
C4    C60   S    
C13   O5    S    
C48   H19   S    
C38   C56   A    
C16   O26   A    
C58   H33   S    
C17   C23   S    
C1    O23   A    
N1    N2    D    
C51   H25   S    
C41   H4    S    
C46   H16   S    
C63   H48   S    
C51   O11   S    
C8    C10   A    
C40   H52   S    
C20   C22   A    
C44   H13   S    
C13   C15   A    
C16   O28   A    
N5    N6    D    
C12   O12   A    
C3    C66   A    
C58   H36   S    
C6    N2    S    
C17   O29   A    
C1    C64   S    
C27   H45   S    
C36   O30   S    
C7    O22   S    
C10   C65   A    
C43   H8    S    
C7    C9    A    
C42   H5    S    
C19   C21   A    
Cu1   O26   S    
C26   C28   A    
C44   H11   S    
C11   N3    A    
C1    O1    A    
C3    C5    A    
C26   C37   A    
C29   C56   S    
C9    O3    S    
C25   C27   A    
C23   C38   A    
C49   H20   S    
C12   C65   S    
C19   N6    S    
Cu2   O28   S    
C39   C45   A    
C21   C48   S    
C28   C30   A    
C47   H18   S    
C61   O21   D    
C18   N5    S    
C50   O10   D    
C30   C32   A    
C37   O2    S    
C2    C4    A    
C52   H28   S    
C42   O3    S    
C18   C20   A    
C25   C49   S    
C20   C47   S    
C25   C36   A    
C46   H15   S    
C58   O18   S    
C54   O15   D    
C62   H44   S    
C29   C31   A    
C40   H51   S    
C21   C24   A    
C55   H31   S    
C40   O30   S    
C58   H35   S    
C41   H2    S    
Cu1   N4    S    
C39   C57   S    
