data_mof_unit_48681.cif
_audit_creation_date              2012-12-10T16:48:47-0500
_audit_creation_method            fapswitch 2.2
_symmetry_space_group_name_H-M    P1
_symmetry_Int_Tables_number       1
_space_group_crystal_system       triclinic
_cell_length_a                    17.355615
_cell_length_b                    8.707035
_cell_length_c                    7.595307
_cell_angle_alpha                 103.867699
_cell_angle_beta                  90.731223
_cell_angle_gamma                 96.147009
_cell_volume                      1107.03137566

loop_
_atom_site_label
_atom_site_type_symbol
_atom_type_description
_atom_site_fract_x
_atom_site_fract_y
_atom_site_fract_z
_atom_type_partial_charge
C1    C     C_R   0.497366 0.199765 0.452971 0.870332
C2    C     C_R   0.502634 0.800235 0.547029 0.870340
C3    C     C_2   0.496009 0.030722 0.427988 -0.367086
C4    C     C_2   0.503990 0.969278 0.572012 -0.367113
C5    C     C_R   0.351677 0.503644 0.524720 0.773565
C6    C     C_R   0.648322 0.496334 0.475277 0.773561
C7    C     C_R   0.268242 0.512883 0.537912 -0.014982
C8    C     C_R   0.731750 0.487002 0.462072 -0.014970
C9    C     C_R   0.223090 0.499788 0.379184 -0.203069
C10   C     C_R   0.776889 0.499919 0.620777 -0.203045
C11   C     C_R   0.144264 0.511136 0.388083 -0.150506
C12   C     C_R   0.855705 0.488460 0.611857 -0.150545
C13   C     C_R   0.108780 0.532859 0.555696 0.195821
C14   C     C_R   0.891193 0.466804 0.444252 0.195821
C15   C     C_R   0.153785 0.549868 0.715072 -0.170801
C16   C     C_R   0.846200 0.449962 0.284895 -0.170780
C17   C     C_R   0.233243 0.539639 0.706397 -0.201200
C18   C     C_R   0.766752 0.460302 0.293588 -0.201194
C19   C     C_2   0.025034 0.539704 0.567653 -0.230980
C20   C     C_2   0.974935 0.459907 0.432294 -0.230993
Cu1   Cu    Cu3+1 0.508700 0.517250 0.683000 0.917545
Cu2   Cu    Cu3+1 0.491300 0.482750 0.317000 0.917546
H1    H     H_    0.248524 0.481896 0.247313 0.150035
H2    H     H_    0.751453 0.517753 0.752643 0.150025
H3    H     H_    0.733033 0.446793 0.169021 0.139687
H4    H     H_    0.266972 0.553279 0.830978 0.139706
H5    H     H_    0.995435 0.389682 0.307354 0.144846
H6    H     H_    0.004528 0.609930 0.692586 0.144855
H7    H     H_    0.127248 0.569018 0.845783 0.119407
H8    H     H_    0.872740 0.430868 0.154188 0.119399
H9    H     H_    0.888236 0.494597 0.736305 0.119407
H10   H     H_    0.111727 0.504873 0.263611 0.119398
H11   H     H_    0.488326 0.956638 0.290395 0.175299
H12   H     H_    0.511672 0.043361 0.709606 0.175301
N1    N     N_2   0.478180 0.456750 0.041980 -0.106334
N2    N     N_2   0.521820 0.543250 0.958020 -0.106335
O1    O     O_R   0.505650 0.286040 0.618880 -0.594177
O2    O     O_R   0.494350 0.713960 0.381120 -0.594170
O3    O     O_R   0.490960 0.256910 0.309800 -0.601145
O4    O     O_R   0.509040 0.743090 0.690200 -0.601142
O5    O     O_R   0.394600 0.516230 0.672450 -0.618339
O6    O     O_R   0.605400 0.483770 0.327550 -0.618340
O7    O     O_R   0.379910 0.487100 0.363380 -0.600978
O8    O     O_R   0.620090 0.512900 0.636620 -0.600980
C21   C     C_3   0.406277 0.367639 0.953883 -0.061803
C22   C     C_3   0.385396 0.210328 0.009123 -0.385914
C23   C     C_3   0.318312 0.107556 0.889792 -0.936630
H13   H     H_    0.266426 0.173147 0.898920 0.260040
H14   H     H_    0.334989 0.073873 0.746023 0.261995
H15   H     H_    0.303288 0.996836 0.936267 0.264297
H16   H     H_    0.436351 0.141705 0.994032 0.231055
H17   H     H_    0.366700 0.232245 0.150640 0.257242
H18   H     H_    0.358209 0.442949 0.985759 0.140564
H19   H     H_    0.411061 0.328297 0.809128 0.222799
C24   C     C_3   0.593723 0.632365 0.046116 -0.061807
C25   C     C_3   0.614597 0.789683 0.990888 -0.385900
C26   C     C_3   0.681688 0.892449 0.110203 -0.936592
H20   H     H_    0.665038 0.926031 0.254002 0.261979
H21   H     H_    0.733591 0.826900 0.100948 0.260036
H22   H     H_    0.696670 0.003229 0.063818 0.264300
H23   H     H_    0.633286 0.767776 0.849365 0.257254
H24   H     H_    0.563641 0.858303 0.006001 0.231040
H25   H     H_    0.588939 0.671699 0.190872 0.222791
H26   H     H_    0.641792 0.557063 0.014230 0.140560

loop_
_geom_bond_atom_site_label_1
_geom_bond_atom_site_label_2
_ccdc_geom_bond_type
C11   H10   S    
C7    C17   A    
C2    C4    S    
C24   C25   S    
C17   H4    S    
Cu2   N1    S    
C20   H5    S    
C22   H17   S    
Cu1   O8    S    
C11   C13   A    
C2    O2    A    
C23   H13   S    
C1    O1    A    
C24   H26   S    
C19   C20   D    
C5    O7    A    
C21   H18   S    
C23   H14   S    
Cu1   N2    S    
C6    O8    A    
C21   C22   S    
C19   H6    S    
C9    C11   A    
C26   H20   S    
Cu2   O6    S    
Cu1   O4    S    
C10   C12   A    
Cu1   O5    S    
Cu2   O3    S    
C6    C8    S    
C8    C10   A    
C12   C14   A    
C21   H19   S    
C15   H7    S    
C23   H15   S    
C4    H12   S    
C13   C15   A    
C12   H9    S    
N2    C24   S    
C18   H3    S    
C25   H24   S    
C26   H21   S    
Cu1   Cu2   S    
C1    O3    A    
C16   H8    S    
C3    C4    D    
Cu2   O2    S    
C2    O4    A    
C26   H22   S    
Cu1   O1    S    
C25   C26   S    
C14   C20   S    
C5    C7    S    
C6    O6    A    
C15   C17   A    
C3    H11   S    
C22   C23   S    
C9    H1    S    
C13   C19   S    
C5    O5    A    
N1    N2    D    
C10   H2    S    
C14   C16   A    
C25   H23   S    
C22   H16   S    
C16   C18   A    
C8    C18   A    
Cu2   O7    S    
C24   H25   S    
C1    C3    S    
C7    C9    A    
N1    C21   S    
