data_mof_unit_53788.cif
_audit_creation_date              2012-12-11T15:54:06-0500
_audit_creation_method            fapswitch 2.2
_symmetry_space_group_name_H-M    P1
_symmetry_Int_Tables_number       1
_space_group_crystal_system       triclinic
_cell_length_a                    10.776302
_cell_length_b                    10.826353
_cell_length_c                    17.006065
_cell_angle_alpha                 80.162222
_cell_angle_beta                  100.435929
_cell_angle_gamma                 119.473033
_cell_volume                      1690.96970327

loop_
_atom_site_label
_atom_site_type_symbol
_atom_type_description
_atom_site_fract_x
_atom_site_fract_y
_atom_site_fract_z
_atom_type_partial_charge
C1    C     C_R   0.358963 0.223608 0.626265 0.538187
C2    C     C_1   0.295399 0.111325 0.772199 0.048833
C3    C     C_1   0.320191 0.683616 0.280168 0.021050
C4    C     C_R   0.412999 0.623629 0.602198 0.532183
C5    C     C_1   0.300618 0.708464 0.209360 -0.016785
C6    C     C_R   0.848210 0.672175 0.161100 0.038249
C7    C     C_R   0.927371 0.629841 0.222690 -0.043724
C8    C     C_R   0.909625 0.621458 0.301271 -0.028739
C9    C     C_R   0.747858 0.720798 0.259626 -0.121021
C10   C     C_R   0.761678 0.722987 0.179302 -0.103582
C11   C     C_3   0.940305 0.496904 0.234080 -0.224177
C12   C     C_R   0.511173 0.742355 0.731055 -0.021549
C13   C     C_3   0.924012 0.488374 0.321725 -0.054515
C14   C     C_R   0.817051 0.662755 0.321223 0.021454
C15   C     C_R   0.269928 0.063210 0.180729 -0.037614
C16   C     C_R   0.719144 0.586321 0.632595 0.524416
C17   C     C_R   0.153977 0.056724 0.211010 -0.062579
C18   C     C_R   0.163192 0.077359 0.290426 -0.039917
C19   C     C_R   0.392128 0.085512 0.317897 -0.105043
C20   C     C_R   0.386705 0.064910 0.237562 0.020158
C21   C     C_3   0.060997 0.128008 0.181457 -0.047377
C22   C     C_3   0.046883 0.120265 0.269616 -0.053783
C23   C     C_R   0.497286 0.741608 0.811910 0.011050
C24   C     C_R   0.295329 0.119684 0.340116 -0.001317
C25   C     C_R   0.882662 0.698074 0.857924 0.592539
C26   C     C_R   0.317586 0.704320 0.900365 0.583522
C27   C     C_R   0.252501 0.059899 0.851299 0.577565
C28   C     C_R   0.344684 0.217818 0.402949 0.575724
C29   C     C_R   0.885665 0.689679 0.082324 0.549826
C30   C     C_R   0.285853 0.738988 0.125271 0.518467
C31   C     C_R   0.251008 0.044776 0.095498 0.533008
C32   C     C_R   0.362154 0.657145 0.361896 0.575182
C33   C     C_R   0.768495 0.621783 0.399161 0.561962
C34   C     C_3   0.107218 0.434532 0.787906 0.042005
C35   C     C_R   0.360982 0.652619 0.840874 0.000892
C36   C     C_R   0.265686 0.534040 0.799134 -0.035206
C37   C     C_R   0.290244 0.517328 0.725582 -0.077001
C38   C     C_2   0.627091 0.873914 0.693553 0.648047
C39   C     C_2   0.792199 0.355227 0.346046 0.651119
C40   C     C_2   0.516031 0.065959 0.218190 0.625626
C41   C     C_2   0.918307 0.055837 0.130526 0.564311
C42   C     C_2   0.071777 0.254301 0.296126 0.587304
C43   C     C_2   0.617217 0.850548 0.860687 0.608006
C44   C     C_2   0.002241 0.487170 0.784398 0.588386
C45   C     C_3   0.131109 0.432523 0.701406 -0.076658
C46   C     C_2   0.070196 0.303233 0.847086 0.641373
C47   C     C_2   0.071523 0.290022 0.669911 0.637185
C48   C     C_R   0.401633 0.630346 0.685524 -0.047766
C49   C     C_1   0.767175 0.629150 0.712238 -0.000235
C50   C     C_1   0.812751 0.668275 0.778587 0.042613
C51   C     C_1   0.331940 0.157165 0.705876 0.032322
Cr1   Cr    Cr6+3 0.608440 0.389080 0.519680 1.085571
Cr2   Cr    Cr6+3 0.288640 0.400090 0.490760 1.067340
Cr3   Cr    Cr6+3 0.602940 0.710800 0.489510 1.071268
Cr4   Cr    Cr6+3 0.052530 0.947560 0.964210 1.113846
Cr5   Cr    Cr6+3 0.059970 0.626800 0.992920 1.087542
Cr6   Cr    Cr6+3 0.373320 0.938440 0.995370 1.104308
H1    H     H_    0.679893 0.060048 0.624374 0.352292
H2    H     H_    0.946051 0.029072 0.290194 0.146260
H3    H     H_    0.708291 0.053317 0.888429 0.341950
H4    H     H_    0.789029 0.419746 0.788789 0.333622
H5    H     H_    0.933550 0.096296 0.874387 0.366533
H6    H     H_    0.956885 0.168834 0.578399 0.354074
H7    H     H_    0.097388 0.501309 0.656239 0.160399
H8    H     H_    0.673677 0.752844 0.272783 0.175250
H9    H     H_    0.701793 0.758887 0.131754 0.187560
H10   H     H_    0.045962 0.516570 0.223502 0.167717
H11   H     H_    0.850621 0.410895 0.199651 0.213939
H12   H     H_    0.705470 0.188554 0.429626 0.333454
H13   H     H_    0.023176 0.510959 0.363134 0.113000
H14   H     H_    0.483341 0.094900 0.360247 0.173063
H15   H     H_    0.672884 0.012643 0.260133 0.377883
H16   H     H_    0.812361 0.012932 0.020207 0.339169
H17   H     H_    0.127061 0.238184 0.154143 0.174469
H18   H     H_    0.053396 0.326083 0.392499 0.365119
O1    O     O_R   0.754020 0.497590 0.609930 -0.465786
O2    O     O_R   0.406180 0.826930 0.920660 -0.495897
O3    O     O_R   0.358620 0.062870 0.901950 -0.486401
O4    O     O_R   0.481420 0.271390 0.600630 -0.503824
O5    O     O_R   0.163910 0.085460 0.050210 -0.425906
O6    O     O_R   0.935200 0.815170 0.045770 -0.480570
O7    O     O_R   0.916120 0.596690 0.069430 -0.520940
O8    O     O_R   0.192310 0.631200 0.086170 -0.482892
O9    O     O_R   0.406770 0.819480 0.096420 -0.472572
O10   O     O_R   0.359170 0.055960 0.064880 -0.461446
O11   O     O_3   0.161940 0.837600 0.984160 -0.356265
O12   O     O_R   0.295080 0.533620 0.397890 -0.494458
O13   O     O_R   0.263810 0.254550 0.589590 -0.494620
O14   O     O_R   0.300820 0.531200 0.560890 -0.488117
O15   O     O_R   0.491480 0.744020 0.564270 -0.480677
O16   O     O_R   0.726290 0.693800 0.583010 -0.484804
O17   O     O_R   0.747830 0.500190 0.434090 -0.465792
O18   O     O_R   0.475680 0.273800 0.437630 -0.485519
O19   O     O_R   0.257620 0.257160 0.413750 -0.482040
O20   O     O_2   0.752204 0.899757 0.709128 -0.482203
O21   O     O_R   0.592522 0.973109 0.644830 -0.635642
O22   O     O_2   0.676955 0.324143 0.305469 -0.513080
O23   O     O_R   0.485280 0.746620 0.388440 -0.476851
O24   O     O_R   0.800841 0.273574 0.417947 -0.645157
O25   O     O_2   0.581660 0.146228 0.162999 -0.439305
O26   O     O_R   0.574477 0.989504 0.271437 -0.695869
O27   O     O_2   0.806406 0.014356 0.158808 -0.558997
O28   O     O_R   0.913907 0.056476 0.048046 -0.625522
O29   O     O_2   0.163616 0.369629 0.269976 -0.538844
O30   O     O_R   0.999772 0.242059 0.359572 -0.665043
O31   O     O_2   0.677419 0.813639 0.920485 -0.533605
O32   O     O_R   0.648619 0.993212 0.842608 -0.618666
O33   O     O_2   0.033288 0.610366 0.759277 -0.535162
O34   O     O_R   0.720550 0.696220 0.420010 -0.506908
O35   O     O_R   0.863248 0.386757 0.802422 -0.640342
O36   O     O_2   0.139629 0.312455 0.913361 -0.469867
O37   O     O_R   0.948507 0.174869 0.829236 -0.588177
O38   O     O_2   0.085806 0.192672 0.710286 -0.468680
O39   O     O_R   0.994206 0.268772 0.593549 -0.657350
O40   O     O_3   0.500010 0.499990 0.499980 -0.320554
O41   O     O_R   0.163320 0.092900 0.874450 -0.439872
O42   O     O_R   0.934650 0.822080 0.882840 -0.463497
O43   O     O_R   0.915520 0.604140 0.893670 -0.485250
O44   O     O_R   0.191760 0.638110 0.923230 -0.466633

loop_
_geom_bond_atom_site_label_1
_geom_bond_atom_site_label_2
_ccdc_geom_bond_type
C47   O39   S    
C8    C13   S    
C31   O10   A    
C46   O37   S    
C4    O14   A    
C19   H14   S    
C19   C20   A    
C12   C48   A    
C27   O3    A    
C25   O43   A    
C14   C33   S    
C7    C8    A    
C41   O27   D    
C7    C11   S    
C12   C23   A    
C18   C24   A    
C36   C37   A    
Cr3   O15   S    
C4    C48   S    
C20   C40   S    
C39   O22   D    
Cr4   O41   S    
C23   C43   S    
Cr6   O11   S    
C28   O19   A    
C45   C47   S    
C30   O8    A    
H1    O21   S    
C25   C50   S    
C40   O26   S    
H6    O39   S    
C39   O24   S    
C35   C36   A    
C32   O23   A    
C38   O20   D    
C2    C27   S    
C34   C46   S    
Cr4   O6    S    
Cr1   O4    S    
C9    C10   A    
C27   O41   A    
C1    O13   A    
C10   H9    S    
C18   C22   S    
C21   C22   S    
C30   O9    A    
H4    O35   S    
C11   H10   S    
C4    O15   A    
C44   O33   D    
C15   C20   A    
C26   O2    A    
Cr6   O2    S    
C31   O5    A    
C34   C44   S    
C26   O44   A    
C2    C51   T    
C33   O17   A    
C22   H2    S    
Cr1   O1    S    
C32   O12   A    
C21   H17   S    
C17   C21   S    
C41   O28   S    
Cr3   O34   S    
C25   O42   A    
C28   O18   A    
C43   O31   D    
C9    C14   A    
C29   O6    A    
Cr5   O11   S    
C46   O36   D    
Cr3   O40   S    
C17   C18   A    
Cr6   O9    S    
Cr1   O18   S    
Cr2   O12   S    
C34   C45   S    
C43   O32   S    
C16   C49   S    
C37   C48   A    
Cr5   O7    S    
C1    C51   S    
H3    O32   S    
C21   C41   S    
H12   O24   S    
H18   O30   S    
C23   C35   A    
Cr2   O14   S    
C1    O4    A    
Cr5   O44   S    
Cr1   O17   S    
C33   O34   A    
C37   C45   S    
C11   H11   S    
Cr5   O8    S    
C5    C30   S    
Cr4   O42   S    
Cr1   O40   S    
C47   O38   D    
H15   O26   S    
C8    C14   A    
Cr2   O19   S    
C16   O1    A    
Cr5   O43   S    
Cr6   O3    S    
C24   C28   S    
C3    C5    T    
C42   O29   D    
C40   O25   D    
C15   C31   S    
C6    C7    A    
C45   H7    S    
Cr4   O11   S    
C19   C24   A    
Cr3   O16   S    
Cr4   O5    S    
C11   C13   S    
C22   C42   S    
Cr6   O10   S    
Cr2   O13   S    
C34   C36   S    
C12   C38   S    
C3    C32   S    
C42   O30   S    
C9    H8    S    
C13   C39   S    
C6    C10   A    
C26   C35   S    
H16   O28   S    
C6    C29   S    
H5    O37   S    
C29   O7    A    
C16   O16   A    
C49   C50   T    
C13   H13   S    
C38   O21   S    
Cr3   O23   S    
C15   C17   A    
Cr2   O40   S    
C44   O35   S    
