data_mof_unit_26035.cif
_audit_creation_date              2012-12-10T20:52:43-0500
_audit_creation_method            fapswitch 2.2
_symmetry_space_group_name_H-M    P1
_symmetry_Int_Tables_number       1
_space_group_crystal_system       triclinic
_cell_length_a                    8.593092
_cell_length_b                    15.840472
_cell_length_c                    15.10474
_cell_angle_alpha                 89.588944
_cell_angle_beta                  98.199654
_cell_angle_gamma                 90.039849
_cell_volume                      2034.9654089

loop_
_atom_site_label
_atom_site_type_symbol
_atom_type_description
_atom_site_fract_x
_atom_site_fract_y
_atom_site_fract_z
_atom_type_partial_charge
C1    C     C_R   0.499866 0.339005 0.500273 0.913892
C2    C     C_R   0.500134 0.660995 0.499727 0.913893
C3    C     C_R   0.499922 0.499708 0.904971 -0.052319
C4    C     C_R   0.500079 0.500292 0.095029 -0.052319
C5    C     C_R   0.625596 0.536529 0.962633 -0.030511
C6    C     C_R   0.374405 0.463470 0.037367 -0.030512
C7    C     C_1   0.499870 0.499761 0.806886 0.077350
C8    C     C_1   0.500130 0.500239 0.193114 0.077352
C9    C     C_R   0.200673 0.497887 0.477154 0.929393
C10   C     C_R   0.799327 0.502112 0.522846 0.929398
C11   C     C_2   0.037155 0.483774 0.467779 0.146847
C12   C     C_2   0.962845 0.516226 0.532222 0.146848
C13   C     C_R   0.521444 0.954554 0.581452 0.355386
C14   C     C_R   0.478546 0.045446 0.418547 0.355387
C15   C     C_R   0.505574 0.912965 0.498910 -0.253629
C16   C     C_R   0.494417 0.087035 0.501089 -0.253629
C17   C     C_R   0.485266 0.957559 0.417283 0.341719
C18   C     C_R   0.514724 0.042440 0.582716 0.341721
C19   C     C_1   0.504301 0.823979 0.498631 0.102298
C20   C     C_1   0.495694 0.176021 0.501369 0.102308
C21   C     C_1   0.497717 0.250788 0.500888 -0.180560
C22   C     C_1   0.502280 0.749212 0.499111 -0.180557
C23   C     C_R   0.374469 0.463007 0.943158 -0.032953
C24   C     C_R   0.625532 0.536993 0.056842 -0.032954
N1    N     N_1   0.499960 0.500020 0.270540 -0.099860
N2    N     N_1   0.500040 0.499980 0.729460 -0.099859
O1    O     O_R   0.500000 0.378020 0.573650 -0.610509
O2    O     O_R   0.500000 0.621980 0.426350 -0.610508
O3    O     O_R   0.500070 0.378020 0.426320 -0.614046
O4    O     O_R   0.499930 0.621980 0.573680 -0.614041
O5    O     O_R   0.271720 0.500000 0.556430 -0.599938
O6    O     O_R   0.728280 0.500000 0.443570 -0.599937
O7    O     O_R   0.271790 0.500000 0.409110 -0.642933
O8    O     O_R   0.728210 0.500000 0.590890 -0.642933
Zn1   Zn    Zn3+2 0.499950 0.500000 0.598370 0.978888
Zn2   Zn    Zn3+2 0.500050 0.500000 0.401630 0.978887
O9    O     O_3   0.973233 0.416542 0.415658 -0.639749
C25   C     C_3   0.958868 0.438069 0.323911 0.161629
H1    H     H_    0.074601 0.434375 0.299556 0.176970
H2    H     H_    0.908184 0.502418 0.310453 0.156607
C26   C     C_3   0.850000 0.374971 0.270790 -0.790777
H3    H     H_    0.734114 0.374166 0.295172 0.267813
H4    H     H_    0.832695 0.392688 0.198786 0.212791
H5    H     H_    0.902023 0.310719 0.278593 0.251514
O10   O     O_3   0.026767 0.583457 0.584343 -0.639747
C27   C     C_3   0.041137 0.561927 0.676090 0.161633
H6    H     H_    0.091828 0.497579 0.689546 0.156606
H7    H     H_    0.925404 0.565618 0.700447 0.176966
C28   C     C_3   0.150001 0.625028 0.729211 -0.790771
H8    H     H_    0.097970 0.689279 0.721409 0.251512
H9    H     H_    0.167308 0.607310 0.801214 0.212789
H10   H     H_    0.265886 0.625837 0.704828 0.267812
O11   O     O_3   0.539493 0.083743 0.664065 -0.559058
C29   C     C_3   0.394316 0.113696 0.685382 0.119132
H11   H     H_    0.296661 0.067559 0.668467 0.103260
H12   H     H_    0.361370 0.173874 0.649425 0.156769
C30   C     C_3   0.411059 0.130874 0.785226 -0.777679
H13   H     H_    0.504188 0.178786 0.803917 0.262289
H14   H     H_    0.298174 0.155069 0.802770 0.211584
H15   H     H_    0.442726 0.071752 0.823534 0.253927
O12   O     O_3   0.460495 0.916257 0.335934 -0.559059
C31   C     C_3   0.605672 0.886305 0.314615 0.119123
H16   H     H_    0.638626 0.826130 0.350575 0.156769
H17   H     H_    0.703323 0.932445 0.331524 0.103261
C32   C     C_3   0.588921 0.869120 0.214773 -0.777672
H18   H     H_    0.557258 0.928242 0.176462 0.253921
H19   H     H_    0.701806 0.844921 0.197229 0.211582
H20   H     H_    0.495787 0.821209 0.196087 0.262294
O13   O     O_3   0.557591 0.909682 0.660782 -0.555390
C33   C     C_3   0.417408 0.881888 0.690596 0.126304
H21   H     H_    0.326549 0.860502 0.635036 0.124711
H22   H     H_    0.367424 0.933464 0.727151 0.152261
C34   C     C_3   0.455096 0.807859 0.754794 -0.791614
H23   H     H_    0.543923 0.826899 0.811919 0.264509
H24   H     H_    0.346831 0.787032 0.780927 0.205223
H25   H     H_    0.502015 0.754281 0.719568 0.262811
O14   O     O_3   0.442399 0.090318 0.339218 -0.555392
C35   C     C_3   0.582582 0.118108 0.309400 0.126310
H26   H     H_    0.632544 0.066535 0.272832 0.152269
H27   H     H_    0.673457 0.139479 0.364959 0.124701
C36   C     C_3   0.544905 0.192150 0.245219 -0.791634
H28   H     H_    0.498032 0.245730 0.280463 0.262807
H29   H     H_    0.653164 0.212965 0.219071 0.205227
H30   H     H_    0.456043 0.173130 0.188102 0.264521
C37   C     C_1   0.244092 0.426134 0.075062 0.183004
N3    N     N_1   0.140084 0.396409 0.105166 -0.212593
C38   C     C_1   0.755908 0.573866 0.924938 0.183003
N4    N     N_1   0.859916 0.603591 0.894834 -0.212593
C39   C     C_1   0.245316 0.423991 0.885564 0.162894
N5    N     N_1   0.142179 0.392643 0.839813 -0.217668
C40   C     C_1   0.754685 0.576009 0.114436 0.162895
N6    N     N_1   0.857822 0.607356 0.160187 -0.217667

loop_
_geom_bond_atom_site_label_1
_geom_bond_atom_site_label_2
_ccdc_geom_bond_type
C38   N4    T    
C1    C21   S    
C34   H24   S    
C26   H3    S    
C3    C23   A    
C4    C8    S    
C28   H9    S    
C36   H28   S    
O10   C27   S    
C15   C19   S    
C27   C28   S    
C31   H16   S    
C6    C37   S    
C13   C18   A    
O6    Zn2   S    
C3    C7    S    
C25   H1    S    
C4    C24   A    
C35   H27   S    
C30   H14   S    
O7    Zn2   S    
O8    Zn1   S    
C34   H23   S    
C14   O14   S    
C11   O9    S    
C31   H17   S    
C18   O11   S    
C17   O12   S    
C29   H11   S    
C32   H19   S    
C2    C22   S    
C23   C39   S    
C33   H21   S    
O14   C35   S    
C32   H20   S    
C9    O7    A    
C8    N1    T    
C26   H4    S    
C14   C17   A    
O13   C33   S    
C36   H29   S    
C27   H7    S    
C29   H12   S    
C19   C22   T    
C25   C26   S    
C4    C6    A    
C40   N6    T    
C35   H26   S    
C30   H15   S    
O1    Zn1   S    
C37   N3    T    
O9    C25   S    
O3    Zn2   S    
C16   C20   S    
C28   H10   S    
C33   C34   S    
C1    O3    A    
C10   O8    A    
C9    C11   S    
C10   C12   S    
O4    Zn1   S    
C28   H8    S    
C13   C15   A    
C26   H5    S    
C14   C16   A    
C24   C40   S    
C36   H30   S    
C15   C17   A    
C27   H6    S    
C31   C32   S    
C12   O10   S    
C3    C5    A    
C2    O2    A    
C11   C12   D    
O11   C29   S    
C2    O4    A    
C25   H2    S    
C35   C36   S    
C30   H13   S    
C5    C24   A    
C13   O13   S    
C6    C23   A    
C34   H25   S    
O5    Zn1   S    
O12   C31   S    
C9    O5    A    
N1    Zn2   S    
C5    C38   S    
C10   O6    A    
N2    Zn1   S    
C20   C21   T    
O2    Zn2   S    
C16   C18   A    
C32   H18   S    
C1    O1    A    
C33   H22   S    
C39   N5    T    
C7    N2    T    
C29   C30   S    
