data_mof_unit_47685.cif
_audit_creation_date              2012-12-11T15:15:43-0500
_audit_creation_method            fapswitch 2.2
_symmetry_space_group_name_H-M    P1
_symmetry_Int_Tables_number       1
_space_group_crystal_system       triclinic
_cell_length_a                    20.654507
_cell_length_b                    22.957614
_cell_length_c                    6.947276
_cell_angle_alpha                 90.000962
_cell_angle_beta                  87.511897
_cell_angle_gamma                 89.999855
_cell_volume                      3291.14119432

loop_
_atom_site_label
_atom_site_type_symbol
_atom_type_description
_atom_site_fract_x
_atom_site_fract_y
_atom_site_fract_z
_atom_type_partial_charge
O1    O     O_R   0.387100 0.552640 0.378490 -0.526974
O2    O     O_R   0.612900 0.052640 0.621510 -0.526960
O3    O     O_R   0.249610 0.559600 0.072250 -0.547516
O4    O     O_R   0.750390 0.059600 0.927750 -0.547510
O5    O     O_R   0.249120 0.447360 0.902040 -0.543563
O6    O     O_R   0.750880 0.947360 0.097960 -0.543554
C1    C     C_R   0.223691 0.569766 0.242724 0.685351
C2    C     C_R   0.776310 0.069766 0.757277 0.685342
O7    O     O_R   0.386610 0.559560 0.048860 -0.537968
O8    O     O_R   0.613390 0.059560 0.951140 -0.538023
O9    O     O_R   0.387100 0.447320 0.878470 -0.539193
O10   O     O_R   0.612900 0.947320 0.121530 -0.539218
C3    C     C_R   0.405773 0.576800 0.215028 0.682493
C4    C     C_R   0.594237 0.076808 0.784972 0.682416
O11   O     O_R   0.249120 0.552680 0.402050 -0.546806
O12   O     O_R   0.750880 0.052680 0.597950 -0.546803
O13   O     O_3   0.318110 0.463180 0.223790 -0.374184
O14   O     O_3   0.681890 0.963180 0.776210 -0.374148
V1    V     V_3+5 0.318110 0.506830 0.948930 1.410603
V2    V     V_3+5 0.681890 0.006830 0.051070 1.410524
O15   O     O_R   0.386610 0.440400 0.548840 -0.539422
O16   O     O_R   0.613390 0.940400 0.451160 -0.539374
C5    C     C_R   0.405206 0.423414 0.715243 0.725935
C6    C     C_R   0.594775 0.923432 0.284755 0.725896
O17   O     O_R   0.249610 0.440440 0.572240 -0.547184
O18   O     O_R   0.750390 0.940440 0.427760 -0.547184
C7    C     C_R   0.228255 0.425477 0.743163 0.689459
C8    C     C_R   0.771744 0.925477 0.256834 0.689459
V3    V     V_3+5 0.318110 0.493170 0.448930 1.414076
V4    V     V_3+5 0.681890 0.993170 0.551070 1.414152
O19   O     O_3   0.318110 0.536820 0.723940 -0.368602
O20   O     O_3   0.681890 0.036820 0.276060 -0.368621
C9    C     C_R   0.175527 0.381727 0.751857 -0.066629
C10   C     C_R   0.824472 0.881726 0.248137 -0.066630
C11   C     C_R   0.163124 0.348698 0.587005 -0.208875
C12   C     C_R   0.836871 0.848695 0.412984 -0.208878
C13   C     C_R   0.110033 0.310951 0.583554 0.003018
C14   C     C_R   0.889961 0.810948 0.416436 0.003021
C15   C     C_R   0.067219 0.306218 0.748031 0.114578
C16   C     C_R   0.932777 0.806214 0.251963 0.114577
C17   C     C_R   0.080228 0.339218 0.912330 -0.099190
C18   C     C_R   0.919770 0.839214 0.087666 -0.099191
C19   C     C_R   0.134856 0.374943 0.916868 -0.170694
C20   C     C_R   0.865144 0.874941 0.083128 -0.170690
C21   C     C_R   0.930012 0.155325 0.868045 -0.151996
C22   C     C_R   0.069988 0.655324 0.131952 -0.152008
C23   C     C_R   0.877425 0.117016 0.894984 0.112458
C24   C     C_R   0.122576 0.617015 0.105014 0.112456
C25   C     C_R   0.845493 0.140305 0.569591 -0.215493
C26   C     C_R   0.154500 0.640299 0.430421 -0.215488
C27   C     C_R   0.899370 0.176606 0.544225 -0.142509
C28   C     C_R   0.100622 0.676600 0.455786 -0.142509
C29   C     C_R   0.941529 0.184234 0.693635 0.122334
C30   C     C_R   0.058467 0.684231 0.306368 0.122342
C31   C     C_2   0.007135 0.270255 0.756576 -0.188514
C32   C     C_2   0.992860 0.770249 0.243418 -0.188511
C33   C     C_2   0.000567 0.219277 0.664795 -0.179512
C34   C     C_2   0.999429 0.719274 0.335206 -0.179520
C35   C     C_R   0.833699 0.109279 0.742602 -0.048551
C36   C     C_R   0.166298 0.609276 0.257402 -0.048557
H1    H     H_    0.194592 0.352762 0.458563 0.133559
H2    H     H_    0.805401 0.852759 0.541423 0.133561
H3    H     H_    0.812721 0.136652 0.452904 0.129386
H4    H     H_    0.187270 0.636645 0.547112 0.129382
H5    H     H_    0.039865 0.200016 0.578880 0.161704
H6    H     H_    0.960133 0.700015 0.421127 0.161701
H7    H     H_    0.047714 0.337349 0.038720 0.131189
H8    H     H_    0.952286 0.837344 0.961279 0.131189
H9    H     H_    0.964126 0.161010 0.980934 0.130180
H10   H     H_    0.035877 0.661011 0.019057 0.130174
H11   H     H_    0.143823 0.398650 0.047545 0.122928
H12   H     H_    0.856179 0.898649 0.952455 0.122930
H13   H     H_    0.967397 0.284785 0.852757 0.140400
H14   H     H_    0.032598 0.784778 0.147233 0.140399
H15   H     H_    0.908057 0.198918 0.408120 0.123513
H16   H     H_    0.091932 0.698910 0.591895 0.123509
C37   C     C_R   0.577045 0.368419 0.696304 -0.071470
C38   C     C_R   0.422954 0.868397 0.304181 -0.071410
H17   H     H_    0.669548 0.288880 0.697775 0.153592
H18   H     H_    0.330460 0.788842 0.302938 0.153595
C39   C     C_R   0.460365 0.382294 0.714328 -0.115258
C40   C     C_R   0.539628 0.882301 0.285650 -0.115321
C41   C     C_R   0.477430 0.102245 0.839896 0.113450
C42   C     C_R   0.522569 0.602260 0.160036 0.113478
C43   C     C_R   0.431768 0.143135 0.913423 0.009345
C44   C     C_R   0.568189 0.643143 0.086242 0.009332
C45   C     C_R   0.442703 0.202344 0.886783 -0.265560
C46   C     C_R   0.557241 0.702355 0.112769 -0.265469
C47   C     C_R   0.499185 0.222950 0.790629 0.068966
C48   C     C_R   0.500803 0.722956 0.209184 0.069035
C49   C     C_R   0.553672 0.184295 0.778117 -0.007494
C50   C     C_R   0.446325 0.684294 0.221906 -0.007531
C51   C     C_R   0.505234 0.283381 0.740003 0.059365
C52   C     C_R   0.494771 0.783382 0.259893 0.059447
C53   C     C_R   0.568232 0.307358 0.717009 0.011549
C54   C     C_R   0.431774 0.807343 0.283277 0.011510
C55   C     C_R   0.621916 0.270373 0.721853 -0.162010
C56   C     C_R   0.378090 0.770350 0.278608 -0.162055
C57   C     C_R   0.616473 0.210746 0.764380 0.086359
C58   C     C_R   0.383525 0.710736 0.235905 0.086414
C59   C     C_R   0.451090 0.320976 0.708618 0.055623
C60   C     C_R   0.548931 0.820982 0.291053 0.055684
C61   C     C_R   0.523141 0.405570 0.704733 -0.113087
C62   C     C_R   0.476844 0.905562 0.295602 -0.113117
C63   C     C_R   0.541611 0.121931 0.791158 -0.125662
C64   C     C_R   0.458391 0.621932 0.208842 -0.125644
H19   H     H_    0.406858 0.232866 0.945065 0.126426
H20   H     H_    0.593040 0.732878 0.054243 0.126383
C65   C     C_1   0.531327 0.468228 0.689816 0.280106
N1    N     N_1   0.536531 0.518279 0.677610 -0.364708
C66   C     C_1   0.468638 0.968215 0.310701 0.280022
N2    N     N_1   0.463410 0.018261 0.323041 -0.364592
C67   C     C_1   0.641350 0.393909 0.674184 0.287651
N3    N     N_1   0.692508 0.414305 0.656535 -0.331744
C68   C     C_1   0.358648 0.893868 0.326701 0.287660
N4    N     N_1   0.307491 0.914246 0.344662 -0.331803
C69   C     C_3   0.389308 0.298357 0.620375 -0.365892
C70   C     C_3   0.394480 0.303228 0.400608 -0.706064
H21   H     H_    0.404033 0.348646 0.353428 0.235924
H22   H     H_    0.434388 0.275040 0.341950 0.226124
H23   H     H_    0.348427 0.288607 0.339369 0.210331
H24   H     H_    0.378679 0.252175 0.650075 0.199609
H25   H     H_    0.346300 0.322927 0.677474 0.154420
C71   C     C_3   0.610760 0.798363 0.379024 -0.365776
C72   C     C_3   0.605554 0.802995 0.598834 -0.706180
H26   H     H_    0.595936 0.848364 0.646470 0.235790
H27   H     H_    0.565679 0.774708 0.657118 0.226210
H28   H     H_    0.651617 0.788360 0.659955 0.210411
H29   H     H_    0.621519 0.752240 0.348719 0.199489
H30   H     H_    0.653722 0.823064 0.322295 0.154388
C73   C     C_3   0.458887 0.037928 0.824789 -0.365768
C74   C     C_3   0.395605 0.027919 0.721924 -0.653900
H31   H     H_    0.352979 0.031630 0.823575 0.228940
H32   H     H_    0.390341 0.059651 0.603060 0.255333
H33   H     H_    0.394820 0.982978 0.663075 0.220858
H34   H     H_    0.497071 0.012560 0.745151 0.185352
H35   H     H_    0.453494 0.018835 0.969647 0.201599
C75   C     C_3   0.541189 0.537976 0.175563 -0.365946
C76   C     C_3   0.604408 0.528130 0.278900 -0.653854
H36   H     H_    0.647105 0.531957 0.177569 0.228871
H37   H     H_    0.609470 0.559880 0.397817 0.255373
H38   H     H_    0.605285 0.483191 0.337746 0.220944
H39   H     H_    0.502990 0.512593 0.255078 0.185333
H40   H     H_    0.546740 0.518816 0.030831 0.201689
C77   C     C_1   0.373718 0.125857 0.022103 0.326157
N5    N     N_1   0.327283 0.112276 0.110068 -0.328620
C78   C     C_1   0.626208 0.625843 0.977443 0.326063
N6    N     N_1   0.672616 0.612240 0.889386 -0.328599
C79   C     C_3   0.677259 0.178986 0.820738 -0.347011
C80   C     C_3   0.733281 0.217185 0.886762 -0.766348
H41   H     H_    0.759937 0.237172 0.761162 0.232927
H42   H     H_    0.715108 0.251512 0.988098 0.234896
H43   H     H_    0.767965 0.190248 0.965470 0.218051
H44   H     H_    0.664804 0.152056 0.948757 0.200524
H45   H     H_    0.694214 0.151984 0.696877 0.171946
C81   C     C_3   0.322722 0.678990 0.179624 -0.347100
C82   C     C_3   0.266716 0.717212 0.113620 -0.766283
H46   H     H_    0.240060 0.737191 0.239234 0.232917
H47   H     H_    0.284906 0.751547 0.012346 0.234919
H48   H     H_    0.232028 0.690295 0.034852 0.218047
H49   H     H_    0.335151 0.652049 0.051608 0.200486
H50   H     H_    0.305766 0.651998 0.303508 0.171993
C83   C     C_3   0.873407 0.083442 0.082864 -0.367161
C84   C     C_3   0.894568 0.020544 0.051818 -0.703429
H51   H     H_    0.863496 0.998897 0.947355 0.212347
H52   H     H_    0.945702 0.018902 0.995497 0.224882
H53   H     H_    0.890894 0.996894 0.191174 0.209473
H54   H     H_    0.906147 0.102759 0.188461 0.175412
H55   H     H_    0.824528 0.085982 0.153798 0.195786
C85   C     C_3   0.126595 0.583441 0.917130 -0.367154
C86   C     C_3   0.105433 0.520543 0.948167 -0.703435
H56   H     H_    0.136504 0.498897 0.052629 0.212350
H57   H     H_    0.054299 0.518902 0.004484 0.224881
H58   H     H_    0.109109 0.496893 0.808808 0.209473
H59   H     H_    0.093856 0.602758 0.811532 0.175409
H60   H     H_    0.175475 0.585980 0.846200 0.195789
C87   C     C_1   0.100396 0.279913 0.406508 0.260854
N7    N     N_1   0.093167 0.254501 0.265188 -0.362692
C88   C     C_1   0.899596 0.779910 0.593482 0.260844
N8    N     N_1   0.906821 0.754499 0.734802 -0.362706

loop_
_geom_bond_atom_site_label_1
_geom_bond_atom_site_label_2
_ccdc_geom_bond_type
V4    O20   S    
C86   H56   S    
C82   H46   S    
C25   H3    S    
C48   C52   A    
O6    C8    A    
C26   H4    S    
C49   C63   A    
C78   N6    T    
O4    C2    A    
V1    O19   S    
C44   C78   S    
C77   N5    T    
C79   C80   S    
C84   H52   S    
C17   H7    S    
C85   H60   S    
C7    C9    S    
C57   C79   S    
O9    V1    S    
O16   C6    A    
C81   C82   S    
C11   C13   A    
C42   C44   A    
O3    C1    A    
C75   H39   S    
C2    C35   S    
C39   C61   A    
C46   H20   S    
C76   H38   S    
C12   H2    S    
C85   C86   S    
O12   V4    S    
C68   N4    T    
O13   V3    S    
O7    V1    S    
C2    O12   A    
C6    C40   S    
C70   H21   S    
O7    C3    A    
C9    C11   A    
O5    C7    A    
C48   C50   A    
C34   H6    S    
C4    C63   S    
C15   C31   S    
C38   C68   S    
O8    V2    S    
C74   H31   S    
C16   C32   S    
C80   H43   S    
C54   C56   A    
C72   H28   S    
C26   C28   A    
O3    V1    S    
O14   V4    S    
C47   C49   A    
C5    C39   S    
C10   C12   A    
C41   C43   A    
C24   C36   A    
C23   C83   S    
C58   C81   S    
C16   C18   A    
C69   H25   S    
O2    C4    A    
C42   C75   S    
C51   C53   A    
C79   H44   S    
C18   H8    S    
C17   C19   A    
O10   V2    S    
C18   C20   A    
V2    O20   S    
C60   C71   S    
C55   C57   A    
C28   C30   A    
O11   V3    S    
C85   H59   S    
C21   C23   A    
O15   C5    A    
O17   V3    S    
C13   C15   A    
C86   H58   S    
C22   C24   A    
C23   C35   A    
C32   H14   S    
C43   C45   A    
C38   C62   A    
C9    C19   A    
C10   C20   A    
C15   C17   A    
C73   H34   S    
O8    C4    A    
C38   C54   A    
C29   C33   S    
C39   C59   A    
C1    O11   A    
C25   C27   A    
C21   H9    S    
C37   C53   A    
C41   C63   A    
C27   C29   A    
C70   H23   S    
C31   H13   S    
C69   H24   S    
C41   C73   S    
C73   H35   S    
C86   H57   S    
C42   C64   A    
C22   C30   A    
O1    V3    S    
C40   C60   A    
C71   H30   S    
C11   H1    S    
C52   C54   A    
C24   C85   S    
C74   H32   S    
C37   C67   S    
C46   C48   A    
C81   H49   S    
O18   V4    S    
C82   H48   S    
C56   C58   A    
C31   C33   D    
C72   H26   S    
C80   H42   S    
C37   C61   A    
O1    C3    A    
C51   C59   A    
C73   C74   S    
C1    C36   S    
C27   H15   S    
C13   C87   S    
C50   C58   A    
C67   N3    T    
C30   C34   S    
C50   C64   A    
C84   H51   S    
C19   H11   S    
C14   C88   S    
O16   V4    S    
C66   N2    T    
H18   C56   S    
H17   C55   S    
C84   H53   S    
C33   H5    S    
C3    C64   S    
C28   H16   S    
C62   C66   S    
C76   H36   S    
C53   C55   A    
O5    V1    S    
O17   C7    A    
O6    V2    S    
O10   C6    A    
O18   C8    A    
C25   C35   A    
C61   C65   S    
O2    V4    S    
C59   C69   S    
C45   C47   A    
C83   H54   S    
C79   H45   S    
C26   C36   A    
V3    O19   S    
C75   H40   S    
C69   C70   S    
C12   C14   A    
C14   C16   A    
C76   H37   S    
O15   V3    S    
C74   H33   S    
C21   C29   A    
C43   C77   S    
C44   C46   A    
O9    C5    A    
O13   V1    S    
C32   C34   D    
C71   H29   S    
C20   H12   S    
O14   V2    S    
C8    C10   S    
C47   C51   A    
C83   H55   S    
C70   H22   S    
C22   H10   S    
C83   C84   S    
C75   C76   S    
C81   H50   S    
C88   N8    T    
O4    V2    S    
C45   H19   S    
C52   C60   A    
C82   H47   S    
C87   N7    T    
C72   H27   S    
C40   C62   A    
C80   H41   S    
C49   C57   A    
C65   N1    T    
C71   C72   S    
