data_mof_unit_6561.cif
_audit_creation_date              2012-10-26T19:59:10-0400
_audit_creation_method            fapswitch 2.2
_symmetry_space_group_name_H-M    P1
_symmetry_Int_Tables_number       1
_space_group_crystal_system       triclinic
_cell_length_a                    7.474937
_cell_length_b                    8.685699
_cell_length_c                    15.669804
_cell_angle_alpha                 94.235859
_cell_angle_beta                  74.982115
_cell_angle_gamma                 103.26171
_cell_volume                      956.298302957

loop_
_atom_site_label
_atom_site_type_symbol
_atom_type_description
_atom_site_fract_x
_atom_site_fract_y
_atom_site_fract_z
_atom_type_partial_charge
C1    C     C_R   0.545098 0.800044 0.502599 0.549026
C2    C     C_R   0.615918 0.513111 0.333610 0.543455
C3    C     C_R   0.310944 0.442877 0.759278 -0.013329
C4    C     C_R   0.685941 0.537281 0.238158 -0.013377
C5    C     C_R   0.122464 0.253359 0.871023 -0.137445
C6    C     C_R   0.899114 0.683437 0.113265 -0.137978
C7    C     C_R   0.173200 0.303963 0.783923 -0.144106
C8    C     C_R   0.850818 0.649432 0.202906 -0.152224
C9    C     C_R   0.407693 0.522074 0.820377 -0.137678
C10   C     C_R   0.570432 0.461798 0.183496 -0.137858
C11   C     C_R   0.388907 0.450593 0.900643 0.028765
C12   C     C_R   0.454902 0.199965 0.497410 0.546047
C13   C     C_R   0.598844 0.512116 0.096901 0.024737
C14   C     C_R   0.228574 0.328418 0.930079 0.030067
C15   C     C_R   0.775053 0.615173 0.060092 0.035555
C16   C     C_R   0.523649 0.496319 0.952202 0.027471
C17   C     C_R   0.464287 0.458432 0.044488 0.014905
C18   C     C_3   0.156738 0.369050 0.173349 -0.278590
C19   C     C_3   0.107309 0.206712 0.216410 -0.438850
C20   C     C_3   0.820257 0.553911 0.816266 -0.261033
C21   C     C_3   0.783022 0.383981 0.779793 -0.401663
C22   C     C_R   0.273630 0.367765 0.078236 0.005339
C23   C     C_R   0.718321 0.568757 0.913867 0.003818
C24   C     C_R   0.171540 0.288819 0.018546 -0.116818
C25   C     C_R   0.833302 0.639890 0.969633 -0.125730
C26   C     C_2   0.570306 0.968144 0.503813 -0.161489
C27   C     C_2   0.429713 0.031885 0.496200 -0.161332
C28   C     C_R   0.383744 0.484391 0.666131 0.537358
Cu1   Cu    Cu3+1 0.322120 0.483240 0.490330 0.931352
Cu2   Cu    Cu3+1 0.677880 0.516760 0.509670 0.932111
H1    H     H_    0.035345 0.208881 0.042736 0.112103
H2    H     H_    0.294361 0.960279 0.489036 0.132817
H3    H     H_    0.003021 0.615330 0.569420 0.236594
H4    H     H_    0.996738 0.384467 0.430755 0.236236
H5    H     H_    0.993906 0.125348 0.191077 0.142428
H6    H     H_    0.232001 0.151460 0.202551 0.148789
H7    H     H_    0.054133 0.219735 0.289008 0.140762
H8    H     H_    0.220605 0.464320 0.214395 0.155777
H9    H     H_    0.020700 0.399808 0.173400 0.158972
H10   H     H_    0.795174 0.300191 0.826959 0.148350
H11   H     H_    0.641453 0.344945 0.766722 0.171855
H12   H     H_    0.976297 0.705937 0.941506 0.101075
H13   H     H_    0.886691 0.376399 0.715446 0.157649
H14   H     H_    0.791937 0.636711 0.773758 0.133770
H15   H     H_    0.976396 0.590302 0.807892 0.142280
H16   H     H_    0.460603 0.362676 0.210504 0.127657
H17   H     H_    0.503337 0.634660 0.802881 0.106073
H18   H     H_    0.942043 0.709461 0.244284 0.126607
H19   H     H_    0.105056 0.235125 0.736040 0.116372
H20   H     H_    0.005295 0.152990 0.891312 0.101610
H21   H     H_    0.032320 0.764559 0.085654 0.108531
H22   H     H_    0.705665 0.039759 0.510971 0.130835
N1    N     N_2   0.945180 0.542040 0.524240 -0.260294
N2    N     N_2   0.054820 0.457960 0.475760 -0.259781
O1    O     O_R   0.384450 0.714270 0.493720 -0.499825
O2    O     O_R   0.615550 0.285730 0.506280 -0.503029
O3    O     O_R   0.684880 0.742590 0.510050 -0.496925
O4    O     O_R   0.315120 0.257410 0.489950 -0.499624
O5    O     O_R   0.265540 0.477900 0.617090 -0.509270
O6    O     O_R   0.734460 0.522100 0.382910 -0.501762
O7    O     O_R   0.565970 0.506210 0.633420 -0.499865
O8    O     O_R   0.434030 0.493790 0.366580 -0.497275

loop_
_geom_bond_atom_site_label_1
_geom_bond_atom_site_label_2
_ccdc_geom_bond_type
C25   H12   S    
C10   H16   S    
C2    C4    S    
C18   H9    S    
C8    H18   S    
H4    N2    S    
Cu1   Cu2   S    
C3    C9    A    
C1    O3    A    
C6    H21   S    
Cu1   O1    S    
C11   C16   A    
C17   C22   A    
C20   C23   S    
C13   C17   A    
C4    C8    A    
C12   O4    A    
C28   O7    A    
C23   C25   A    
C18   H8    S    
C24   H1    S    
C19   H5    S    
N1    N2    D    
Cu1   O4    S    
H3    N1    S    
C9    C11   A    
C5    C14   A    
C12   O2    A    
C21   H10   S    
C28   O5    A    
C21   H11   S    
C3    C28   S    
C11   C14   A    
C9    H17   S    
C16   C23   A    
C3    C7    A    
C19   H6    S    
C13   C15   A    
C26   C27   D    
C1    C26   S    
Cu2   N1    S    
C22   C24   A    
C5    H20   S    
C15   C25   A    
Cu1   N2    S    
C27   H2    S    
C12   C27   S    
C4    C10   A    
Cu2   O3    S    
C2    O8    A    
C2    O6    A    
C20   C21   S    
C7    H19   S    
C18   C19   S    
Cu2   O7    S    
C14   C24   A    
C5    C7    A    
Cu1   O5    S    
Cu1   O8    S    
C6    C8    A    
C19   H7    S    
C20   H14   S    
C6    C15   A    
C18   C22   S    
Cu2   O2    S    
C26   H22   S    
C21   H13   S    
C20   H15   S    
C16   C17   A    
C1    O1    A    
C10   C13   A    
Cu2   O6    S    
