data_mof_unit_29315.cif
_audit_creation_date              2012-12-11T15:12:17-0500
_audit_creation_method            fapswitch 2.2
_symmetry_space_group_name_H-M    P1
_symmetry_Int_Tables_number       1
_space_group_crystal_system       triclinic
_cell_length_a                    30.53803
_cell_length_b                    22.166691
_cell_length_c                    17.954364
_cell_angle_alpha                 90.196598
_cell_angle_beta                  123.65049
_cell_angle_gamma                 89.96178
_cell_volume                      10117.1525913

loop_
_atom_site_label
_atom_site_type_symbol
_atom_type_description
_atom_site_fract_x
_atom_site_fract_y
_atom_site_fract_z
_atom_type_partial_charge
C1    C     C_R   0.543782 0.585233 0.741386 -0.009368
C2    C     C_R   0.356549 0.782863 0.582901 0.114562
C3    C     C_R   0.364587 0.192749 0.111630 0.100820
C4    C     C_R   0.814423 0.176971 0.943579 0.096494
C5    C     C_R   0.132106 0.678700 0.841230 0.096750
C6    C     C_R   0.185492 0.177502 0.057175 0.096337
C7    C     C_R   0.864616 0.692423 0.112371 0.099072
C8    C     C_R   0.242264 0.662591 0.932273 0.082426
C9    C     C_R   0.706173 0.193428 0.864045 0.087580
C10   C     C_R   0.765961 0.650615 0.066446 0.086548
C11   C     C_R   0.294000 0.192558 0.137895 0.087575
C12   C     C_R   0.733846 0.151597 0.935505 0.085076
C13   C     C_R   0.269525 0.358118 0.582972 0.118892
C14   C     C_R   0.216679 0.709173 0.868880 0.090982
C15   C     C_R   0.266095 0.150657 0.066150 0.085052
C16   C     C_R   0.793858 0.692517 0.138209 0.086322
C17   C     C_R   0.730863 0.214563 0.821904 -0.212090
C18   C     C_R   0.210704 0.620169 0.941065 -0.213105
C19   C     C_R   0.269276 0.214430 0.179748 -0.213135
C20   C     C_R   0.793604 0.620742 0.035017 -0.210356
C21   C     C_R   0.245047 0.743502 0.843237 -0.222290
C22   C     C_R   0.706237 0.122727 0.967607 -0.214039
C23   C     C_R   0.769032 0.714563 0.179796 -0.204078
C24   C     C_R   0.643966 0.782692 0.419560 0.111173
C25   C     C_R   0.293682 0.120921 0.034502 -0.216097
C26   C     C_R   0.784365 0.205872 0.861099 -0.162855
C27   C     C_R   0.155898 0.626870 0.892623 -0.154066
C28   C     C_R   0.215634 0.206396 0.139982 -0.164675
C29   C     C_R   0.842630 0.641298 0.058463 -0.157054
C30   C     C_R   0.299205 0.739613 0.890464 -0.155256
C31   C     C_R   0.657609 0.144113 0.945001 -0.161644
C32   C     C_R   0.715349 0.706677 0.139777 -0.158538
C33   C     C_R   0.342630 0.141616 0.057732 -0.160553
C34   C     C_R   0.575306 0.611581 0.425532 -0.102231
C35   C     C_R   0.231434 0.859980 0.417464 0.126360
C36   C     C_R   0.403711 0.419938 0.574976 -0.137162
C37   C     C_R   0.425356 0.611795 0.575325 -0.112831
C38   C     C_R   0.596384 0.419947 0.425034 -0.137071
C39   C     C_R   0.074383 0.111962 0.425136 -0.118078
C40   C     C_R   0.903810 0.920065 0.575151 -0.068927
C41   C     C_R   0.925766 0.112113 0.575210 -0.117935
C42   C     C_R   0.096582 0.920936 0.424838 -0.131406
C43   C     C_R   0.384532 0.589998 0.261381 -0.152746
C44   C     C_R   0.608702 0.394169 0.716575 -0.143787
C45   C     C_R   0.616209 0.587601 0.740924 -0.156588
C46   C     C_R   0.857277 0.283068 0.582783 0.102327
C47   C     C_R   0.391523 0.393637 0.284007 -0.144297
C48   C     C_R   0.883772 0.087230 0.259083 -0.159449
C49   C     C_R   0.102554 0.887266 0.696966 -0.145790
C50   C     C_R   0.116217 0.087565 0.740949 -0.162590
C51   C     C_R   0.891600 0.893498 0.284341 -0.127791
C52   C     C_R   0.595022 0.606095 0.789224 0.161632
C53   C     C_R   0.419239 0.361341 0.255104 0.140964
C54   C     C_R   0.406977 0.610828 0.216533 0.162506
C55   C     C_R   0.581147 0.362260 0.745938 0.141703
C56   C     C_R   0.095054 0.105994 0.789324 0.123495
C57   C     C_R   0.770263 0.858324 0.584284 0.128498
C58   C     C_R   0.919355 0.861094 0.255640 0.142500
C59   C     C_R   0.904909 0.105437 0.210692 0.121442
C60   C     C_R   0.073660 0.852661 0.720233 0.134235
C61   C     C_R   0.610697 0.645977 0.500058 0.077076
C62   C     C_R   0.353571 0.407325 0.501386 0.087181
C63   C     C_R   0.389863 0.646135 0.501296 0.073792
C64   C     C_R   0.646489 0.407388 0.498625 0.087414
C65   C     C_R   0.109543 0.146602 0.499456 0.075210
C66   C     C_R   0.853656 0.907622 0.501720 0.086217
C67   C     C_R   0.890759 0.146727 0.501137 0.077118
C68   C     C_R   0.143070 0.282564 0.418118 0.102571
C69   C     C_R   0.147002 0.909645 0.498199 0.089895
C70   C     C_R   0.742146 0.385109 0.580095 -0.245786
C71   C     C_R   0.334520 0.735563 0.420403 -0.232891
C72   C     C_R   0.257967 0.384563 0.420263 -0.248561
C73   C     C_R   0.666970 0.734963 0.582025 -0.229101
C74   C     C_R   0.242676 0.887707 0.579758 -0.247876
C75   C     C_R   0.835347 0.236057 0.420197 -0.235745
C76   C     C_R   0.757970 0.885958 0.421308 -0.240843
C77   C     C_R   0.165430 0.235925 0.580756 -0.236099
C78   C     C_R   0.693538 0.393690 0.498559 0.103133
C79   C     C_R   0.777276 0.342442 0.499863 0.035524
C80   C     C_R   0.371166 0.707088 0.501649 0.113333
C81   C     C_R   0.306631 0.393510 0.501671 0.103620
C82   C     C_R   0.629704 0.706842 0.500530 0.105846
C83   C     C_R   0.194139 0.896484 0.498147 0.104347
C84   C     C_R   0.872339 0.207851 0.501456 0.097211
C85   C     C_R   0.806854 0.894233 0.502483 0.104287
C86   C     C_R   0.128168 0.207625 0.499426 0.097797
C87   C     C_R   0.689423 0.384211 0.417529 -0.223686
C88   C     C_R   0.385237 0.734159 0.582801 -0.239060
C89   C     C_R   0.310932 0.384285 0.582830 -0.225285
C90   C     C_R   0.314033 0.805163 0.500663 0.035900
C91   C     C_R   0.615245 0.734158 0.419641 -0.234658
C92   C     C_R   0.190071 0.886829 0.417202 -0.228719
C93   C     C_R   0.886537 0.235037 0.582613 -0.195012
C94   C     C_R   0.811524 0.884562 0.583859 -0.237880
C95   C     C_R   0.113801 0.234625 0.418315 -0.196657
C96   C     C_R   0.223135 0.342129 0.500829 0.034686
C97   C     C_R   0.466702 0.391661 0.289957 -0.046367
C98   C     C_R   0.687058 0.804559 0.501722 0.034914
C99   C     C_R   0.277467 0.843747 0.499788 0.031222
C100  C     C_R   0.814317 0.304815 0.500591 0.034198
C101  C     C_R   0.723698 0.842668 0.502225 0.034601
C102  C     C_R   0.186188 0.304492 0.500264 0.033544
C103  C     C_R   0.783802 0.358638 0.581380 0.140198
C104  C     C_R   0.304729 0.783547 0.419174 0.131439
C105  C     C_R   0.216411 0.358069 0.419208 0.140039
C106  C     C_R   0.696869 0.782782 0.583309 0.128579
C107  C     C_R   0.284081 0.860379 0.581221 0.139590
C108  C     C_R   0.457252 0.587844 0.261372 -0.001984
C109  C     C_R   0.805113 0.283483 0.419037 0.130536
C110  C     C_R   0.716586 0.859258 0.420512 0.140732
C111  C     C_R   0.195615 0.283356 0.581876 0.130431
C112  C     C_R   0.724986 0.342050 0.336882 -0.162885
C113  C     C_R   0.365818 0.804854 0.663695 -0.166268
C114  C     C_R   0.275746 0.342228 0.663818 -0.164421
C115  C     C_R   0.634183 0.804762 0.338655 -0.148001
C116  C     C_R   0.225401 0.843484 0.336826 -0.174360
C117  C     C_R   0.866389 0.304713 0.663632 -0.149149
C118  C     C_R   0.776862 0.841838 0.665220 -0.173632
C119  C     C_R   0.533520 0.392185 0.710673 -0.046999
C120  C     C_R   0.133766 0.303952 0.337212 -0.150513
C121  C     C_R   0.262104 0.805539 0.337692 -0.191720
C122  C     C_R   0.829746 0.342549 0.662923 -0.208197
C123  C     C_R   0.740102 0.804316 0.664728 -0.183396
C124  C     C_R   0.170353 0.341730 0.337764 -0.211413
C125  C     C_R   0.762098 0.304968 0.337598 -0.188708
C126  C     C_R   0.329697 0.843693 0.662852 -0.202922
C127  C     C_R   0.238763 0.305071 0.663265 -0.189625
C128  C     C_R   0.670400 0.843141 0.339142 -0.213528
C129  C     C_R   0.380524 0.642612 0.130235 -0.097792
C130  C     C_R   0.043809 0.085155 0.741445 -0.026803
C131  C     C_R   0.597839 0.304484 0.796714 -0.076838
C132  C     C_R   0.624235 0.630587 0.881941 -0.089086
C133  C     C_R   0.402850 0.302899 0.205315 -0.076705
C134  C     C_R   0.875647 0.129736 0.118065 -0.089156
C135  C     C_R   0.089312 0.790944 0.758519 -0.070384
C136  C     C_R   0.124308 0.130373 0.882123 -0.092729
C137  C     C_R   0.902961 0.802579 0.206025 -0.081292
C138  C     C_R   0.380151 0.712050 0.025796 -0.307780
C139  C     C_R   0.595642 0.226302 0.889511 -0.319502
C140  C     C_R   0.630656 0.685324 0.005313 -0.309198
C141  C     C_R   0.966791 0.891481 0.290327 -0.036957
C142  C     C_R   0.405179 0.223431 0.113586 -0.319615
C143  C     C_R   0.869121 0.183730 0.994527 -0.285128
C144  C     C_R   0.077960 0.689667 0.798486 -0.314756
C145  C     C_R   0.130868 0.184881 0.005790 -0.288742
C146  C     C_R   0.905283 0.723002 0.114438 -0.316206
C147  C     C_R   0.406995 0.685567 0.110132 0.568564
C148  C     C_R   0.579642 0.283305 0.849880 0.541636
C149  C     C_R   0.600473 0.666869 0.915650 0.556006
C150  C     C_R   0.421279 0.280752 0.152767 0.541841
C151  C     C_R   0.899476 0.165304 0.083975 0.489859
C152  C     C_R   0.956159 0.084748 0.258532 -0.009949
C153  C     C_R   0.055464 0.744372 0.752817 0.568616
C154  C     C_R   0.100579 0.166392 0.916163 0.491631
C155  C     C_R   0.921384 0.780346 0.153524 0.551882
C156  C     C_R   0.326927 0.630834 0.067529 -0.294743
C157  C     C_R   0.634941 0.269628 0.792533 -0.296623
C158  C     C_R   0.678407 0.618741 0.937431 -0.288023
C159  C     C_R   0.365643 0.268444 0.209626 -0.296652
C160  C     C_R   0.821291 0.118615 0.063113 -0.273896
C161  C     C_R   0.142803 0.778194 0.800988 -0.316751
C162  C     C_R   0.178517 0.118694 0.937375 -0.286564
C163  C     C_R   0.031023 0.888134 0.701833 -0.051064
C164  C     C_R   0.865683 0.768211 0.210275 -0.278330
C165  C     C_R   0.298235 0.663416 0.987331 0.099867
C166  C     C_R   0.657916 0.217915 0.845471 0.098347
C167  C     C_R   0.710312 0.646207 0.021974 0.099741
C168  C     C_R   0.342527 0.216446 0.156903 0.098144
C169  C     C_R   0.789367 0.146242 0.979019 0.094376
C170  C     C_R   0.163482 0.721372 0.834113 0.101727
C171  C     C_R   0.210474 0.146114 0.021925 0.096460
C172  C     C_R   0.842496 0.716243 0.157479 0.097146
C173  C     C_R   0.625575 0.611130 0.574417 -0.114142
C174  C     C_R   0.730974 0.358143 0.417620 0.119301
C175  C     C_R   0.354368 0.419644 0.426747 -0.140173
C176  C     C_R   0.374510 0.611141 0.426426 -0.110588
C177  C     C_R   0.645598 0.419681 0.573250 -0.139046
C178  C     C_R   0.124969 0.111608 0.574062 -0.116957
C179  C     C_R   0.854353 0.919771 0.426920 -0.120021
C180  C     C_R   0.875215 0.111605 0.426299 -0.119373
C181  C     C_R   0.146074 0.921613 0.572753 -0.139857
C182  C     C_R   0.326118 0.703717 0.966587 0.097567
C183  C     C_R   0.635925 0.195040 0.891147 0.100515
C184  C     C_R   0.685265 0.677766 0.056969 0.096612
H1    H     H_    0.519181 0.579932 0.766626 0.141418
H2    H     H_    0.307488 0.598965 0.085116 0.142761
H3    H     H_    0.508440 0.754784 0.730059 0.369698
H4    H     H_    0.928237 0.794380 0.702341 0.369162
H5    H     H_    0.951029 0.240256 0.245960 0.347852
H6    H     H_    0.967685 0.918054 0.105914 0.375093
H7    H     H_    0.049745 0.240865 0.754456 0.347990
H8    H     H_    0.352633 0.285031 0.250463 0.141157
H9    H     H_    0.695625 0.591082 0.911001 0.139786
H10   H     H_    0.169806 0.814203 0.813199 0.146516
H11   H     H_    0.803994 0.091398 0.089634 0.138177
H12   H     H_    0.852663 0.784857 0.251071 0.145290
H13   H     H_    0.195721 0.091200 0.910768 0.138210
H14   H     H_    0.400433 0.744056 0.009486 0.193839
H15   H     H_    0.580584 0.209016 0.927565 0.190291
H16   H     H_    0.612389 0.711609 0.032040 0.193135
H17   H     H_    0.499360 0.378574 0.286526 0.167120
H18   H     H_    0.420362 0.205434 0.075968 0.189916
H19   H     H_    0.887437 0.209451 0.967541 0.192455
H20   H     H_    0.053228 0.655319 0.799950 0.189485
H21   H     H_    0.112627 0.211031 0.032689 0.192716
H22   H     H_    0.920489 0.704936 0.076892 0.190044
H23   H     H_    0.710446 0.240466 0.761008 0.130636
H24   H     H_    0.227329 0.580906 0.983143 0.135071
H25   H     H_    0.289826 0.240393 0.240875 0.130860
H26   H     H_    0.777227 0.583302 0.988843 0.131630
H27   H     H_    0.225643 0.774342 0.787291 0.134611
H28   H     H_    0.482026 0.584692 0.236078 0.131058
H29   H     H_    0.722345 0.085437 0.013659 0.131371
H30   H     H_    0.789537 0.740564 0.240889 0.137800
H31   H     H_    0.277319 0.083469 0.988346 0.129678
H32   H     H_    0.653232 0.622669 0.643573 0.096674
H33   H     H_    0.321063 0.423788 0.358459 0.090145
H34   H     H_    0.346401 0.622564 0.357565 0.094994
H35   H     H_    0.678826 0.423878 0.641643 0.089943
H36   H     H_    0.152563 0.123423 0.643133 0.095423
H37   H     H_    0.820999 0.923907 0.358673 0.082923
H38   H     H_    0.847680 0.123316 0.357310 0.095700
H39   H     H_    0.500978 0.379238 0.714493 0.166345
H40   H     H_    0.179436 0.926970 0.640829 0.086293
H41   H     H_    0.556333 0.623772 0.356441 0.161514
H42   H     H_    0.415552 0.424225 0.643684 0.117416
H43   H     H_    0.445179 0.624263 0.644737 0.158043
H44   H     H_    0.584670 0.424207 0.356426 0.116987
H45   H     H_    0.054611 0.124282 0.355815 0.161196
H46   H     H_    0.915796 0.924393 0.643923 0.084127
H47   H     H_    0.945542 0.124598 0.644599 0.162248
H48   H     H_    0.084627 0.925160 0.356093 0.113768
H49   H     H_    0.343299 0.591302 0.236948 0.093600
H50   H     H_    0.019199 0.079807 0.766652 0.145304
H51   H     H_    0.647454 0.384703 0.731380 0.101453
H52   H     H_    0.657303 0.587631 0.764478 0.093215
H53   H     H_    0.352856 0.384004 0.269468 0.101679
H54   H     H_    0.842706 0.087227 0.235696 0.094420
H55   H     H_    0.136889 0.873485 0.698463 0.106911
H56   H     H_    0.157298 0.087619 0.764418 0.094759
H57   H     H_    0.852967 0.883839 0.269934 0.098846
H58   H     H_    0.746855 0.394076 0.643333 0.118505
H59   H     H_    0.325369 0.717346 0.357351 0.123467
H60   H     H_    0.253151 0.393286 0.356957 0.118822
H61   H     H_    0.999503 0.878313 0.287087 0.166944
H62   H     H_    0.676566 0.716514 0.645045 0.123007
H63   H     H_    0.247391 0.896845 0.642958 0.116732
H64   H     H_    0.826136 0.217836 0.357113 0.121814
H65   H     H_    0.752884 0.895196 0.357913 0.117150
H66   H     H_    0.174830 0.217802 0.643837 0.121972
H67   H     H_    0.652836 0.392443 0.354097 0.141241
H68   H     H_    0.414816 0.714251 0.646086 0.176944
H69   H     H_    0.347559 0.392798 0.646190 0.141439
H70   H     H_    0.585324 0.714508 0.356351 0.199197
H71   H     H_    0.153561 0.895328 0.353750 0.138347
H72   H     H_    0.980763 0.079211 0.233323 0.146313
H73   H     H_    0.916564 0.215531 0.645904 0.195564
H74   H     H_    0.848341 0.892598 0.647103 0.126356
H75   H     H_    0.083595 0.215048 0.354987 0.195786
H76   H     H_    0.690022 0.354783 0.273270 0.161118
H77   H     H_    0.398911 0.788811 0.727293 0.176719
H78   H     H_    0.310795 0.355177 0.727363 0.161151
H79   H     H_    0.600616 0.789034 0.275143 0.189823
H80   H     H_    0.190667 0.856598 0.273160 0.149920
H81   H     H_    0.899786 0.289076 0.727192 0.184593
H82   H     H_    0.812056 0.854554 0.728715 0.156101
H83   H     H_    0.000724 0.876946 0.712639 0.167529
H84   H     H_    0.100248 0.288154 0.273691 0.184942
H85   H     H_    0.255051 0.789932 0.274650 0.140496
H86   H     H_    0.835512 0.355633 0.726002 0.143099
H87   H     H_    0.747563 0.788603 0.727863 0.145012
H88   H     H_    0.164432 0.354608 0.274616 0.143200
H89   H     H_    0.755100 0.289572 0.274505 0.144080
H90   H     H_    0.335518 0.857068 0.725873 0.137562
H91   H     H_    0.245938 0.289836 0.726407 0.144342
H92   H     H_    0.664176 0.856529 0.275953 0.142866
H93   H     H_    0.802976 0.226802 0.830906 0.138054
H94   H     H_    0.647858 0.285629 0.751401 0.141108
H95   H     H_    0.132584 0.593235 0.899348 0.141988
H96   H     H_    0.197049 0.227846 0.170005 0.138233
H97   H     H_    0.860943 0.620565 0.027506 0.140656
H98   H     H_    0.320174 0.768745 0.871932 0.135241
H99   H     H_    0.639368 0.124114 0.976420 0.140142
H100  H     H_    0.696702 0.728264 0.169599 0.138944
H101  H     H_    0.360899 0.120974 0.026639 0.139568
H102  H     H_    0.533837 0.422389 0.896161 0.377800
H103  H     H_    0.496120 0.756471 0.317835 0.372077
H104  H     H_    0.467601 0.418429 0.105024 0.377814
N1    N     N_R   0.532970 0.559900 0.665210 -0.061177
N2    N     N_R   0.402100 0.440070 0.454470 -0.040179
N3    N     N_R   0.402100 0.559930 0.454470 -0.041418
N4    N     N_R   0.597900 0.440070 0.545530 -0.040159
N5    N     N_R   0.097900 0.059930 0.545530 -0.041402
N6    N     N_R   0.902100 0.940070 0.454470 -0.037386
N7    N     N_R   0.902100 0.059930 0.454470 -0.044300
N8    N     N_R   0.097900 0.940070 0.545530 -0.036914
N9    N     N_R   0.567170 0.559950 0.454460 -0.050990
N10   N     N_R   0.432830 0.440050 0.545540 -0.049922
N11   N     N_R   0.432830 0.559950 0.545540 -0.049319
N12   N     N_R   0.467030 0.440100 0.334790 -0.063947
N13   N     N_R   0.567170 0.440050 0.454460 -0.050356
N14   N     N_R   0.067170 0.059950 0.454460 -0.050259
N15   N     N_R   0.932830 0.940050 0.545540 -0.040316
N16   N     N_R   0.932830 0.059950 0.545540 -0.053630
N17   N     N_R   0.067170 0.940050 0.454460 -0.047379
N18   N     N_R   0.421470 0.559970 0.334770 -0.042925
N19   N     N_R   0.578530 0.440030 0.665230 -0.047833
N20   N     N_R   0.578530 0.559970 0.665230 -0.043246
N21   N     N_R   0.421470 0.440030 0.334770 -0.048217
N22   N     N_R   0.921470 0.059970 0.334770 -0.042719
N23   N     N_R   0.467030 0.559900 0.334790 -0.058736
N24   N     N_R   0.078530 0.940030 0.665230 -0.047613
N25   N     N_R   0.078530 0.059970 0.665230 -0.041950
N26   N     N_R   0.921470 0.940030 0.334770 -0.047438
N27   N     N_R   0.532970 0.440100 0.665210 -0.063537
N28   N     N_R   0.032970 0.059900 0.665210 -0.060565
N29   N     N_R   0.967030 0.940100 0.334790 -0.063923
N30   N     N_R   0.967030 0.059900 0.334790 -0.061149
N31   N     N_R   0.032970 0.940100 0.665210 -0.065295
N32   N     N_R   0.597900 0.559930 0.545530 -0.041678
Ni1   Ni    Ni4+2 0.483030 0.500000 0.604430 0.230273
Ni2   Ni    Ni4+2 0.516970 0.500000 0.395570 0.230052
Ni3   Ni    Ni4+2 0.983030 0.000000 0.604430 0.227764
Ni4   Ni    Ni4+2 0.016970 0.000000 0.395570 0.232929
Ni5   Ni    Ni4+2 0.587400 0.500000 0.604430 0.215867
Ni6   Ni    Ni4+2 0.412600 0.500000 0.395570 0.216564
Ni7   Ni    Ni4+2 0.087400 0.000000 0.604430 0.214550
Ni8   Ni    Ni4+2 0.912600 0.000000 0.395570 0.220041
O1    O     O_2   0.485595 0.319694 0.811526 -0.322080
O2    O     O_2   0.496305 0.655907 0.839900 -0.309244
O3    O     O_2   0.534097 0.756555 0.888634 -0.301673
O4    O     O_3   0.523103 0.713422 0.744466 -0.577493
O5    O     O_2   0.967386 0.782618 0.601603 -0.314351
O6    O     O_2   0.962000 0.687773 0.665243 -0.263992
O7    O     O_3   0.966262 0.786847 0.745824 -0.551510
O8    O     O_2   0.003102 0.152777 0.157494 -0.293180
O9    O     O_2   0.967091 0.254037 0.111121 -0.274203
O10   O     O_3   0.978641 0.211843 0.255126 -0.568260
O11   O     O_2   0.015719 0.816364 0.192809 -0.329603
O12   O     O_2   0.554961 0.306532 0.969378 -0.235900
O13   O     O_2   0.947058 0.801073 0.034892 -0.261000
O14   O     O_3   0.941049 0.896787 0.111296 -0.554477
O15   O     O_2   0.996828 0.154529 0.841994 -0.293710
O16   O     O_2   0.033442 0.255699 0.888985 -0.274210
O17   O     O_3   0.021929 0.212682 0.745014 -0.565417
O18   O     O_3   0.560153 0.400755 0.890230 -0.554396
O19   O     O_2   0.511382 0.675530 0.192090 -0.331084
O20   O     O_2   0.475587 0.777442 0.164765 -0.309787
O21   O     O_3   0.480626 0.716352 0.292536 -0.575798
O22   O     O_2   0.515694 0.316688 0.192304 -0.322584
O23   O     O_2   0.447091 0.301602 0.034313 -0.235813
O24   O     O_3   0.441134 0.397232 0.110931 -0.554445
S1    S     S_3+6 0.543446 0.327468 0.880642 -0.045534
S2    S     S_3+6 0.470555 0.714495 0.190331 -0.092345
S3    S     S_3+6 0.457957 0.323933 0.122233 -0.045602
S4    S     S_3+6 0.536658 0.698678 0.847168 -0.079367
S5    S     S_3+6 0.985939 0.749831 0.687365 -0.051590
S6    S     S_3+6 0.963709 0.196464 0.151732 -0.069960
S7    S     S_3+6 0.957963 0.823509 0.122789 -0.058881
S8    S     S_3+6 0.036567 0.197829 0.848225 -0.069303

loop_
_geom_bond_atom_site_label_1
_geom_bond_atom_site_label_2
_ccdc_geom_bond_type
C71   C104  A    
C7    C29   A    
C96   C102  A    
C181  N8    A    
C74   C83   A    
C14   C170  A    
C66   C85   S    
C41   C67   A    
C51   N26   A    
C55   C119  A    
O1    S1    D    
C49   C60   A    
C179  H37   S    
C24   C98   A    
O12   S1    D    
C14   C21   A    
C39   H45   S    
C61   C82   S    
C65   C178  A    
C30   H98   S    
C60   C163  A    
C2    C90   A    
C163  N31   A    
N20   Ni5   S    
C56   C136  S    
C144  H20   S    
C11   C15   A    
C162  C171  A    
C41   H47   S    
C10   C20   A    
N10   Ni1   S    
N7    Ni8   S    
C180  H38   S    
C20   H26   S    
N2    Ni6   S    
C47   C53   A    
C7    C146  A    
C143  C151  A    
C100  C109  A    
C7    C172  A    
H6    O14   S    
C102  C111  A    
C36   C62   A    
N21   Ni6   S    
N15   Ni3   S    
C37   C63   A    
C158  C167  A    
C28   H96   S    
C38   C64   A    
O9    S6    D    
N31   Ni3   S    
C68   C95   A    
C116  C121  A    
C52   C132  S    
C65   C86   S    
C34   H41   S    
C53   C133  S    
C4    C169  A    
C152  H72   S    
C70   C103  A    
C125  H89   S    
C42   N17   A    
C108  N23   A    
C154  S8    S    
C101  C110  A    
H103  O21   S    
C34   C61   A    
C82   C91   A    
C46   C117  A    
C31   H99   S    
C116  H80   S    
C43   C54   A    
N11   Ni1   S    
C119  H39   S    
N24   N31   A    
C1    N1    A    
C90   C104  A    
C112  C125  A    
C93   H73   S    
H104  O24   S    
C62   C81   S    
C33   H101  S    
O17   S8    S    
C178  H36   S    
C87   C174  A    
C175  N2    A    
C159  H8    S    
C127  H91   S    
C129  C156  A    
C1    H1    S    
C66   C179  A    
C39   C65   A    
C98   C106  A    
H7    O17   S    
C140  H16   S    
C80   C88   A    
C10   C16   A    
C64   C177  A    
C44   C55   A    
C62   C175  A    
C84   C93   A    
C114  H78   S    
C138  C182  A    
C129  C147  A    
C86   C95   A    
C92   H71   S    
N22   Ni8   S    
C179  N6    A    
C77   H66   S    
C76   C85   A    
C75   H64   S    
C69   C181  A    
C57   C118  A    
C78   C87   A    
C37   N11   A    
C134  C160  A    
N8    Ni7   S    
C173  N32   A    
N12   Ni2   S    
C58   C141  A    
C45   H52   S    
C49   H55   S    
C145  H21   S    
O20   S2    D    
C87   H67   S    
C44   N19   A    
C9    C166  A    
C67   C180  A    
C75   C84   A    
C15   C25   A    
C134  C151  A    
O24   S3    S    
C12   C22   A    
C136  C162  A    
C137  C155  A    
C131  C157  A    
C74   C107  A    
C5    C27   A    
C6    C28   A    
N3    Ni6   S    
C141  H61   S    
C5    C170  A    
C126  H90   S    
C135  C161  A    
C79   C103  A    
C97   N12   A    
C177  H35   S    
O14   S7    S    
N12   N21   A    
C108  H28   S    
C63   C80   S    
C130  N28   A    
C139  C148  A    
C13   C96   A    
C25   H31   S    
O2    S4    D    
C113  C126  A    
C45   C52   A    
C50   C56   A    
C115  C128  A    
C40   N15   A    
C117  C122  A    
C36   N10   A    
C167  C184  A    
C178  N5    A    
N4    N13   A    
N25   Ni7   S    
C48   N22   A    
C19   C28   A    
C145  C154  A    
C76   C110  A    
C16   C23   A    
C57   C94   A    
N5    Ni7   S    
C164  C172  A    
N19   N27   A    
C121  H85   S    
C90   C99   A    
N4    Ni5   S    
C48   C59   A    
O5    S5    D    
C123  H87   S    
C124  H88   S    
C112  C174  A    
C64   C78   S    
C133  C150  A    
C13   C114  A    
C97   H17   S    
C48   H54   S    
C164  H12   S    
C12   C169  A    
C156  H2    S    
C57   C101  A    
C59   C134  S    
N18   N23   A    
C54   C108  A    
C68   C120  A    
N29   Ni4   S    
N26   Ni8   S    
C94   H74   S    
O22   S3    D    
O3    S4    D    
O19   S2    D    
C9    C12   A    
C8    C165  A    
C22   H29   S    
C110  C128  A    
N13   Ni2   S    
C40   C66   A    
C140  C149  A    
C117  H81   S    
C88   H68   S    
C25   C33   A    
C42   H48   S    
C96   C105  A    
C120  H84   S    
C175  H33   S    
C72   H60   S    
C143  H19   S    
N2    N10   A    
C63   C176  A    
C59   C152  A    
C11   C19   A    
C140  C184  A    
O11   S7    D    
C39   N14   A    
C165  C182  A    
C142  H18   S    
C155  S7    S    
C68   C102  A    
O23   S3    D    
C3    C33   A    
N8    N17   A    
C77   C111  A    
C47   H53   S    
C50   N25   A    
H3    O4    S    
C146  C155  A    
C160  C169  A    
C49   N24   A    
C72   C81   A    
O13   S7    D    
H102  O18   S    
C81   C89   A    
C35   C92   A    
N26   N29   A    
C176  H34   S    
O6    S5    D    
C132  C149  A    
C79   C174  A    
C51   H57   S    
C76   H65   S    
O16   S8    D    
C41   N16   A    
N6    Ni8   S    
N1    Ni1   S    
C158  H9    S    
C79   C100  A    
C17   H23   S    
C43   H49   S    
C44   H51   S    
C6    C145  A    
C5    C144  A    
C73   H62   S    
C130  H50   S    
C132  C158  A    
C105  C124  A    
O8    S6    D    
C133  C159  A    
N14   Ni4   S    
C136  C154  A    
N27   Ni1   S    
O10   S6    S    
C15   C171  A    
C35   C116  A    
C51   C58   A    
N32   Ni5   S    
C9    C17   A    
C160  H11   S    
C147  S2    S    
C55   C131  S    
C11   C168  A    
C119  N27   A    
C73   C82   A    
C149  S4    S    
C38   N13   A    
C36   H42   S    
C163  H83   S    
C19   H25   S    
C166  C183  A    
C4    C26   A    
N9    Ni2   S    
N30   Ni4   S    
O4    S4    S    
C98   C101  A    
C99   C107  A    
C21   C30   A    
C47   N21   A    
C23   C32   A    
C142  C150  A    
C50   H56   S    
N18   Ni6   S    
C71   H59   S    
C114  C127  A    
C156  C165  A    
C118  C123  A    
C1    C52   A    
C8    C18   A    
C122  H86   S    
C37   H43   S    
C72   C105  A    
C29   H97   S    
O7    S5    S    
C150  S3    S    
N19   Ni5   S    
C45   N20   A    
C32   H100  S    
C103  C122  A    
C26   H93   S    
C112  H76   S    
C23   H30   S    
N17   Ni4   S    
C70   C78   A    
C30   C182  A    
C146  H22   S    
C4    C143  A    
N1    N20   A    
C95   H75   S    
C83   C92   A    
C46   C93   A    
C162  H13   S    
C153  S5    S    
C20   C29   A    
C17   C26   A    
C2    C113  A    
C139  H15   S    
C141  N29   A    
C159  C168  A    
C18   H24   S    
C144  C153  A    
C128  H92   S    
C157  H94   S    
C118  H82   S    
C6    C171  A    
N28   Ni3   S    
C10   C167  A    
C106  C123  A    
C43   N18   A    
C2    C88   A    
N3    N11   A    
O18   S1    S    
C67   C84   S    
N16   Ni3   S    
C89   H69   S    
C181  H40   S    
C3    C142  A    
C35   C99   A    
C71   C80   A    
C3    C168  A    
C13   C89   A    
H5    O10   S    
C75   C109  A    
C151  S6    S    
C22   C31   A    
C173  H32   S    
C61   C173  A    
C176  N3    A    
N25   N28   A    
C27   H95   S    
C104  C121  A    
N22   N30   A    
C53   C97   A    
C42   C69   A    
C148  S1    S    
C21   H27   S    
C69   C83   S    
C85   C94   A    
C16   C172  A    
C138  C147  A    
N24   Ni7   S    
N6    N15   A    
C131  C148  A    
H4    O7    S    
C113  H77   S    
C60   C135  S    
C115  H79   S    
C161  C170  A    
C138  H14   S    
C58   C137  S    
C109  C125  A    
C77   C86   A    
C111  C127  A    
C40   H46   S    
C24   C91   A    
N23   Ni2   S    
C139  C183  A    
C38   H44   S    
C54   C129  S    
C46   C100  A    
C177  N4    A    
C8    C14   A    
C31   C183  A    
C32   C184  A    
C18   C27   A    
C107  C126  A    
C157  C166  A    
C137  C164  A    
C152  N30   A    
C91   H70   S    
C135  C153  A    
C180  N7    A    
C70   H58   S    
C74   H63   S    
C73   C106  A    
C34   N9    A    
O21   S2    S    
C161  H10   S    
C56   C130  A    
O15   S8    D    
C24   C115  A    
N9    N32   A    
N5    N14   A    
C120  C124  A    
N7    N16   A    
