data_mof_unit_59700.cif
_audit_creation_date              2012-12-11T16:28:34-0500
_audit_creation_method            fapswitch 2.2
_symmetry_space_group_name_H-M    P1
_symmetry_Int_Tables_number       1
_space_group_crystal_system       triclinic
_cell_length_a                    16.6686
_cell_length_b                    7.253844
_cell_length_c                    15.114996
_cell_angle_alpha                 90.023099
_cell_angle_beta                  94.692538
_cell_angle_gamma                 89.957077
_cell_volume                      1821.44913053

loop_
_atom_site_label
_atom_site_type_symbol
_atom_type_description
_atom_site_fract_x
_atom_site_fract_y
_atom_site_fract_z
_atom_type_partial_charge
O1    O     O_R   0.663460 0.361760 0.165970 -0.527200
O2    O     O_R   0.336540 0.638240 0.834030 -0.527200
O3    O     O_R   0.836540 0.861760 0.334030 -0.531593
O4    O     O_R   0.163460 0.138240 0.665970 -0.531593
O5    O     O_R   0.827100 0.689870 0.163730 -0.537670
O6    O     O_R   0.172900 0.310130 0.836270 -0.537670
O7    O     O_R   0.672900 0.189870 0.336270 -0.535882
O8    O     O_R   0.327100 0.810130 0.663730 -0.535882
C1    C     C_R   0.853677 0.523007 0.144047 0.799363
C2    C     C_R   0.146322 0.476993 0.855952 0.799363
C3    C     C_R   0.646244 0.023116 0.355867 0.800796
C4    C     C_R   0.353756 0.976884 0.644133 0.800795
O9    O     O_R   0.663490 0.691370 0.155500 -0.543297
O10   O     O_R   0.336510 0.308630 0.844500 -0.543297
O11   O     O_R   0.836510 0.191370 0.344500 -0.540238
O12   O     O_R   0.163490 0.808630 0.655500 -0.540238
O13   O     O_R   0.671770 0.863320 0.325740 -0.528382
O14   O     O_R   0.328230 0.136680 0.674260 -0.528382
O15   O     O_R   0.828230 0.363320 0.174260 -0.522298
O16   O     O_R   0.171770 0.636680 0.825740 -0.522297
C5    C     C_R   0.636827 0.522837 0.132878 0.790236
C6    C     C_R   0.363172 0.477163 0.867122 0.790236
C7    C     C_R   0.863106 0.022764 0.367189 0.792472
C8    C     C_R   0.136894 0.977236 0.632810 0.792472
O17   O     O_3   0.752910 0.528800 0.305860 -0.382090
O18   O     O_3   0.247090 0.471200 0.694140 -0.382089
O19   O     O_3   0.747090 0.028800 0.194140 -0.378527
O20   O     O_3   0.252910 0.971200 0.805860 -0.378527
V1    V     V_3+5 0.749460 0.803010 0.239640 1.533893
V2    V     V_3+5 0.250540 0.196990 0.760360 1.533893
V3    V     V_3+5 0.750540 0.303010 0.260360 1.542182
V4    V     V_3+5 0.249460 0.696990 0.739640 1.542181
C9    C     C_1   0.469000 0.994629 0.530311 0.140261
C10   C     C_1   0.531000 0.005371 0.469689 0.140261
C11   C     C_1   0.031041 0.494755 0.969732 0.131577
C12   C     C_1   0.968959 0.505245 0.030267 0.131577
C13   C     C_R   0.024489 0.069295 0.319939 -0.243305
C14   C     C_R   0.975510 0.930705 0.680061 -0.243305
C15   C     C_R   0.476970 0.608016 0.176127 -0.244418
C16   C     C_R   0.523030 0.391984 0.823873 -0.244418
C17   C     C_R   0.101416 0.090052 0.292288 0.520118
C18   C     C_R   0.898584 0.909948 0.707712 0.520118
C19   C     C_R   0.400705 0.646933 0.202000 0.515801
C20   C     C_R   0.599295 0.353067 0.797999 0.515801
C21   C     C_R   0.168873 0.076671 0.353115 -0.205446
C22   C     C_R   0.831127 0.923329 0.646885 -0.205446
C23   C     C_R   0.333129 0.632115 0.141455 -0.200561
C24   C     C_R   0.666871 0.367885 0.858545 -0.200561
C25   C     C_R   0.158114 0.042055 0.443141 0.540037
C26   C     C_R   0.841885 0.957945 0.556859 0.540037
C27   C     C_R   0.343138 0.578152 0.053440 0.540257
C28   C     C_R   0.656862 0.421847 0.946559 0.540257
C29   C     C_R   0.079704 0.021567 0.473147 -0.062475
C30   C     C_R   0.920296 0.978433 0.526853 -0.062475
C31   C     C_R   0.420996 0.540392 0.025001 -0.063535
C32   C     C_R   0.579004 0.459608 0.974999 -0.063535
C33   C     C_R   0.011745 0.035011 0.409775 -0.103249
C34   C     C_R   0.988255 0.964988 0.590225 -0.103249
C35   C     C_R   0.489026 0.554582 0.088220 -0.100579
C36   C     C_R   0.510974 0.445418 0.911780 -0.100579
C37   C     C_R   0.067626 0.986836 0.563942 -0.069973
C38   C     C_R   0.932374 0.013164 0.436058 -0.069973
C39   C     C_R   0.432330 0.486450 0.936144 -0.070590
C40   C     C_R   0.567670 0.513550 0.063856 -0.070589
C41   C     C_1   0.416395 0.985904 0.581912 -0.070020
C42   C     C_1   0.583605 0.014096 0.418088 -0.070020
C43   C     C_1   0.083686 0.486157 0.918172 -0.072432
C44   C     C_1   0.916314 0.513843 0.081828 -0.072432
H1    H     H_    0.974899 0.080563 0.269373 0.145265
H2    H     H_    0.025101 0.919437 0.730627 0.145265
H3    H     H_    0.526543 0.620274 0.226619 0.146023
H4    H     H_    0.473457 0.379725 0.773380 0.146023
F1    F     F_    0.224731 0.026917 0.500354 -0.677146
F2    F     F_    0.775269 0.973083 0.499646 -0.677146
F3    F     F_    0.276189 0.559436 0.997000 -0.674239
F4    F     F_    0.723811 0.440564 0.003000 -0.674239
F5    F     F_    0.109741 0.123043 0.205054 -0.669141
F6    F     F_    0.890259 0.876957 0.794945 -0.669141
F7    F     F_    0.393104 0.698442 0.287330 -0.670862
F8    F     F_    0.606896 0.301558 0.712669 -0.670862
C45   C     C_2   0.749842 0.900911 0.679247 0.536440
H5    H     H_    0.743668 0.875299 0.749111 0.082387
O21   O     O_2   0.688769 0.910577 0.629059 -0.473662
C46   C     C_2   0.250157 0.099088 0.320753 0.536440
H6    H     H_    0.256332 0.124701 0.250889 0.082387
O22   O     O_2   0.311231 0.089423 0.370940 -0.473662
C47   C     C_2   0.747552 0.327368 0.827908 0.539877
H7    H     H_    0.753375 0.291036 0.759066 0.077179
O23   O     O_2   0.808485 0.333288 0.878469 -0.475354
C48   C     C_2   0.252448 0.672632 0.172092 0.539877
H8    H     H_    0.246625 0.708964 0.240934 0.077179
O24   O     O_2   0.191515 0.666712 0.121531 -0.475354

loop_
_geom_bond_atom_site_label_1
_geom_bond_atom_site_label_2
_ccdc_geom_bond_type
O17   V3    S    
C47   H7    S    
C14   H2    S    
O18   V4    S    
C8    C37   S    
C16   C36   A    
C31   C35   A    
O19   V1    S    
O13   V1    S    
O3    C7    A    
C11   C12   S    
O15   V3    S    
C10   C42   T    
C45   H5    S    
C9    C41   T    
C33   C38   A    
C2    C43   S    
O1    C5    A    
C35   C40   A    
C26   C30   A    
C36   C39   A    
O9    V1    S    
C46   O22   D    
C14   C18   A    
C13   H1    S    
C26   F2    S    
C17   F5    S    
O4    C8    A    
C19   F7    S    
O1    V3    S    
O2    V4    S    
C18   C22   A    
O3    V1    S    
C5    C40   S    
C6    C39   S    
C14   C34   A    
C29   C37   A    
C1    O15   A    
C7    C38   S    
C2    O16   A    
C31   C39   A    
O2    C6    A    
C32   C40   A    
O14   V2    S    
C11   C43   T    
C16   C20   A    
C3    C42   S    
C34   C37   A    
O11   C7    A    
O12   C8    A    
O10   V2    S    
C45   O21   D    
O5    V1    S    
O7    V3    S    
O8    V4    S    
C20   F8    S    
C46   H6    S    
C29   C33   A    
C23   C27   A    
C30   C38   A    
C32   C36   A    
O7    C3    A    
O5    C1    A    
C22   C45   S    
C48   O24   D    
C21   C25   A    
O8    C4    A    
C15   C35   A    
C30   C34   A    
C9    C10   S    
C24   C47   S    
O9    C5    A    
O6    V2    S    
C18   F6    S    
C47   O23   D    
C23   C48   S    
C25   F1    S    
C21   C46   S    
O16   V4    S    
C3    O13   A    
C17   C21   A    
C16   H4    S    
C27   F3    S    
C28   F4    S    
O6    C2    A    
C15   C19   A    
C12   C44   T    
O11   V3    S    
O12   V4    S    
C4    C41   S    
C22   C26   A    
O10   C6    A    
O20   V2    S    
C1    C44   S    
C48   H8    S    
C25   C29   A    
C27   C31   A    
C13   C17   A    
O4    V2    S    
C28   C32   A    
C24   C28   A    
C4    O14   A    
C15   H3    S    
C19   C23   A    
C13   C33   A    
C20   C24   A    
