data_mof_unit_7793.cif
_audit_creation_date              2012-12-11T15:55:39-0500
_audit_creation_method            fapswitch 2.2
_symmetry_space_group_name_H-M    P1
_symmetry_Int_Tables_number       1
_space_group_crystal_system       triclinic
_cell_length_a                    6.936003
_cell_length_b                    14.601449
_cell_length_c                    16.042408
_cell_angle_alpha                 90.004553
_cell_angle_beta                  89.862335
_cell_angle_gamma                 89.939535
_cell_volume                      1624.70040485

loop_
_atom_site_label
_atom_site_type_symbol
_atom_type_description
_atom_site_fract_x
_atom_site_fract_y
_atom_site_fract_z
_atom_type_partial_charge
O1    O     O_R   0.505680 0.583900 0.413320 -0.547786
O2    O     O_R   0.176010 0.594950 0.586080 -0.498578
O3    O     O_R   0.005680 0.416100 0.586680 -0.523833
C1    C     C_R   0.343519 0.615576 0.616555 0.775671
O4    O     O_R   0.175960 0.594930 0.413930 -0.551261
O5    O     O_R   0.005640 0.416080 0.413300 -0.550539
C2    C     C_R   0.345109 0.617171 0.385001 0.659355
O6    O     O_R   0.505720 0.583920 0.586700 -0.520095
O7    O     O_3   0.339190 0.441320 0.500000 -0.387261
V1    V     V_3+5 0.064350 0.510890 0.500000 1.517278
O8    O     O_R   0.675920 0.405050 0.413920 -0.552206
C3    C     C_R   0.845127 0.382884 0.384916 0.653086
O9    O     O_R   0.675960 0.405070 0.586070 -0.543364
C4    C     C_R   0.845148 0.381865 0.613951 0.782191
V2    V     V_3+5 0.564340 0.489110 0.500000 1.461410
O10   O     O_3   0.839370 0.558680 0.500000 -0.351843
C5    C     C_R   0.004450 0.316666 0.741546 0.190443
C6    C     C_R   0.854586 0.314711 0.683230 -0.129805
C7    C     C_R   0.706154 0.250594 0.696822 -0.180141
H1    H     H_    0.586322 0.246676 0.654030 0.113396
C8    C     C_R   0.717487 0.186753 0.762698 -0.093734
H2    H     H_    0.606132 0.135271 0.768320 0.105973
C9    C     C_R   0.875692 0.186433 0.818008 -0.151863
C10   C     C_R   0.012055 0.256390 0.808615 0.114616
C11   C     C_3   0.226845 0.252786 0.806659 0.303749
C12   C     C_3   0.218112 0.314150 0.729854 -0.447231
H3    H     H_    0.285091 0.183144 0.794769 0.018596
H4    H     H_    0.258052 0.277890 0.671424 0.098902
H5    H     H_    0.288721 0.381738 0.737639 0.255367
C13   C     C_R   0.046655 0.225191 0.216766 -0.131443
H6    H     H_    0.187293 0.206858 0.192494 0.130378
C14   C     C_R   0.035726 0.288693 0.282053 -0.153159
H7    H     H_    0.168425 0.317459 0.305897 0.118317
C15   C     C_R   0.856334 0.314711 0.315928 -0.040108
C16   C     C_R   0.688154 0.275595 0.282488 -0.153572
H8    H     H_    0.547502 0.293989 0.306699 0.115067
C17   C     C_R   0.699081 0.212085 0.217211 -0.131336
H9    H     H_    0.566372 0.183369 0.193321 0.125388
C18   C     C_R   0.878500 0.185891 0.183489 -0.043145
C19   C     C_R   0.202616 0.690693 0.748388 0.460750
C20   C     C_R   0.218206 0.757006 0.811407 -0.223031
H10   H     H_    0.106347 0.762381 0.858315 0.183277
C21   C     C_R   0.378871 0.814666 0.816847 -0.123835
C22   C     C_R   0.524358 0.807178 0.756472 -0.123140
H11   H     H_    0.648639 0.851983 0.758419 0.121857
C23   C     C_R   0.507777 0.743894 0.691255 -0.146969
H12   H     H_    0.618215 0.743059 0.643520 0.169060
C24   C     C_R   0.349798 0.683609 0.686348 -0.192876
C25   C     C_R   0.188175 0.724401 0.282411 -0.152687
H13   H     H_    0.047445 0.705799 0.306309 0.114996
C26   C     C_R   0.199236 0.787939 0.217183 -0.146800
H14   H     H_    0.066499 0.816475 0.193026 0.116787
C27   C     C_R   0.378777 0.814326 0.183796 -0.040969
C28   C     C_R   0.546943 0.775364 0.217510 -0.149653
H15   H     H_    0.687668 0.793964 0.193605 0.117598
C29   C     C_R   0.535882 0.711823 0.282740 -0.147589
H16   H     H_    0.668612 0.683279 0.306897 0.118048
C30   C     C_R   0.356341 0.685469 0.316152 -0.040206
O11   O     O_R   0.229200 0.915950 0.913350 -0.549788
O12   O     O_R   0.559090 0.905000 0.086080 -0.548477
O13   O     O_R   0.729280 0.083880 0.086680 -0.540302
C31   C     C_R   0.389967 0.882693 0.115004 0.670097
O14   O     O_R   0.558920 0.904980 0.913920 -0.541593
O15   O     O_R   0.729110 0.083860 0.913300 -0.527617
C32   C     C_R   0.390266 0.883352 0.884787 0.699456
O16   O     O_R   0.229360 0.915970 0.086730 -0.548729
O17   O     O_3   0.395680 0.058580 0.000030 -0.335843
V3    V     V_3+5 0.670570 0.989070 0.999990 1.471437
O18   O     O_R   0.058820 0.094950 0.913870 -0.532697
C33   C     C_R   0.889719 0.116935 0.885079 0.731245
O19   O     O_R   0.058990 0.094970 0.086020 -0.533036
C34   C     C_R   0.889754 0.117352 0.114830 0.708025
V4    V     V_3+5 0.170560 0.010930 0.999930 1.498748
O20   O     O_3   0.895590 0.941310 0.999960 -0.381447
S1    S     S_3+6 0.003996 0.614817 0.754788 -0.007596
O21   O     O_2   0.874223 0.628219 0.681132 -0.355112
O22   O     O_2   0.077603 0.518375 0.755013 -0.335678
O23   O     O_3   0.876105 0.632922 0.842527 -0.505149
H17   H     H_    0.761899 0.592621 0.837495 0.382088
S2    S     S_3+6 0.327199 0.309751 0.895588 0.039381
O24   O     O_2   0.308804 0.249453 0.971015 -0.324840
O25   O     O_2   0.536336 0.330322 0.879920 -0.318323
O26   O     O_3   0.208027 0.408391 0.912784 -0.458598
H18   H     H_    0.274763 0.437053 0.960646 0.372852

loop_
_geom_bond_atom_site_label_1
_geom_bond_atom_site_label_2
_ccdc_geom_bond_type
O14   C32   A    
C11   S2    S    
C20   H10   S    
C4    C6    S    
C7    H1    S    
C1    O6    A    
C27   C28   A    
C5    C12   S    
O15   V3    S    
C7    C8    A    
C6    C7    A    
O5    C3    A    
C13   H6    S    
V3    O20   S    
V2    O10   S    
C29   H16   S    
O12   C31   A    
C15   C16   A    
V4    O20   S    
C28   H15   S    
O8    V2    S    
C16   H8    S    
C25   C26   A    
C18   C34   S    
O18   V4    S    
O17   V4    S    
O15   C33   A    
O7    V1    S    
O11   V4    S    
C2    C30   S    
O9    C4    A    
C20   C21   A    
C9    C33   S    
S2    O26   S    
C22   C23   A    
C28   C29   A    
C23   C24   A    
C5    C10   A    
C31   O16   A    
C26   H14   S    
C10   C11   S    
S2    O25   D    
O19   V4    S    
O23   H17   S    
C11   C12   S    
O16   V4    S    
C25   C30   A    
O17   V3    S    
C26   C27   A    
C14   C15   A    
O2    C1    A    
S1    O21   D    
C17   H9    S    
C27   C31   S    
O26   H18   S    
C21   C32   S    
C5    C6    A    
S1    O22   D    
O3    C4    A    
O1    V2    S    
O13   C34   A    
C19   C20   A    
O6    V2    S    
C8    C9    A    
C21   C22   A    
C3    C15   S    
O2    V1    S    
C22   H11   S    
O4    C2    A    
C1    C24   S    
C19   C24   A    
C23   H12   S    
C16   C17   A    
O1    C2    A    
S2    O24   D    
O5    V1    S    
O8    C3    A    
C11   H3    S    
O14   V3    S    
C12   H4    S    
C19   S1    S    
C14   H7    S    
O9    V2    S    
O7    V2    S    
O4    V1    S    
C17   C18   A    
O3    V1    S    
V1    O10   S    
O11   C32   A    
C13   C14   A    
O13   V3    S    
C29   C30   A    
C13   C18   A    
O18   C33   A    
S1    O23   S    
C9    C10   A    
O19   C34   A    
O12   V3    S    
C12   H5    S    
C25   H13   S    
C8    H2    S    
