data_mof_unit_56953.cif
_audit_creation_date              2012-12-11T17:07:36-0500
_audit_creation_method            fapswitch 2.2
_symmetry_space_group_name_H-M    P1
_symmetry_Int_Tables_number       1
_space_group_crystal_system       triclinic
_cell_length_a                    6.969481
_cell_length_b                    14.610095
_cell_length_c                    16.003602
_cell_angle_alpha                 89.977313
_cell_angle_beta                  90.154093
_cell_angle_gamma                 90.065687
_cell_volume                      1629.55615501

loop_
_atom_site_label
_atom_site_type_symbol
_atom_type_description
_atom_site_fract_x
_atom_site_fract_y
_atom_site_fract_z
_atom_type_partial_charge
O1    O     O_R   0.505720 0.583900 0.413310 -0.535812
O2    O     O_R   0.175940 0.594920 0.586080 -0.553016
O3    O     O_R   0.005640 0.416100 0.586690 -0.548081
C1    C     C_R   0.345516 0.618633 0.613431 0.705715
O4    O     O_R   0.176000 0.594930 0.413930 -0.527998
O5    O     O_R   0.005700 0.416110 0.413310 -0.535756
C2    C     C_R   0.344842 0.617059 0.385251 0.695511
O6    O     O_R   0.505660 0.583890 0.586690 -0.523684
O7    O     O_3   0.339200 0.441330 0.500000 -0.360856
V1    V     V_3+5 0.064350 0.510880 0.500000 1.456761
O8    O     O_R   0.675980 0.405080 0.413920 -0.533133
C3    C     C_R   0.844840 0.383491 0.384842 0.714389
O9    O     O_R   0.675920 0.405070 0.586070 -0.516206
C4    C     C_R   0.844984 0.383014 0.614609 0.732787
V2    V     V_3+5 0.564340 0.489120 0.500000 1.502874
O10   O     O_3   0.839360 0.558670 0.500000 -0.377034
H1    H     H_    0.141828 0.101038 0.514572 0.128583
C5    C     C_R   0.711718 0.426903 0.787158 0.288725
C6    C     C_R   0.625990 0.443105 0.864484 -0.122530
C7    C     C_R   0.626515 0.376307 0.927070 0.123181
C8    C     C_R   0.714126 0.292434 0.910526 -0.213023
C9    C     C_R   0.792455 0.271440 0.831220 0.014129
C10   C     C_R   0.786967 0.338807 0.766731 -0.012829
C11   C     C_R   0.879087 0.185083 0.816716 -0.148756
C12   C     C_R   0.952884 0.163954 0.736618 0.074087
C13   C     C_R   0.939917 0.229039 0.670664 0.057172
C14   C     C_R   0.856982 0.316423 0.685169 -0.177414
C15   C     C_R   0.034980 0.077217 0.719954 -0.150759
C16   C     C_R   0.103399 0.055346 0.640786 -0.130855
C17   C     C_R   0.089919 0.118557 0.576229 -0.103557
C18   C     C_R   0.008410 0.204145 0.590463 -0.127515
H2    H     H_    0.566953 0.510375 0.875840 0.143245
H3    H     H_    0.719618 0.243774 0.961389 0.121846
H4    H     H_    0.045691 0.024913 0.767499 0.101748
H5    H     H_    0.165678 0.988662 0.629356 0.121480
H6    H     H_    0.998913 0.249949 0.537531 0.113448
C19   C     C_R   0.727804 0.183615 0.241000 0.037602
C20   C     C_R   0.881782 0.183279 0.184825 -0.100197
C21   C     C_R   0.032190 0.245668 0.199872 -0.172011
H7    H     H_    0.154221 0.247997 0.158401 0.122279
C22   C     C_R   0.020504 0.310049 0.265245 -0.098677
H8    H     H_    0.134312 0.359863 0.272209 0.125179
C23   C     C_R   0.858363 0.313855 0.317708 -0.142270
C24   C     C_R   0.716858 0.247001 0.306079 0.038264
C25   C     C_3   0.505444 0.258201 0.293901 0.213829
C26   C     C_3   0.517776 0.188414 0.223363 -0.445711
H9    H     H_    0.465256 0.328194 0.273132 0.100685
H10   H     H_    0.487582 0.218178 0.160763 0.141617
H11   H     H_    0.443787 0.122499 0.236434 0.179493
C27   C     C_R   0.519703 0.694262 0.732649 0.192737
C28   C     C_R   0.356480 0.687177 0.681790 -0.124928
C29   C     C_R   0.202122 0.745934 0.699267 -0.202952
H12   H     H_    0.078659 0.746537 0.658513 0.143311
C30   C     C_R   0.211347 0.808770 0.765883 -0.184416
H13   H     H_    0.093457 0.855549 0.775118 0.131083
C31   C     C_R   0.376294 0.815397 0.816555 -0.110760
C32   C     C_R   0.528590 0.756412 0.799049 0.088367
C33   C     C_3   0.728901 0.783363 0.779311 -0.436834
C34   C     C_3   0.718206 0.718661 0.705877 -0.393653
H14   H     H_    0.830054 0.760523 0.828905 0.181935
H15   H     H_    0.742060 0.856448 0.760600 0.172498
H16   H     H_    0.820521 0.661328 0.711620 0.198521
H17   H     H_    0.720928 0.754242 0.644401 0.159105
C35   C     C_R   0.510199 0.747149 0.310799 0.002532
C36   C     C_R   0.353595 0.687502 0.318526 -0.128198
C37   C     C_R   0.204934 0.696006 0.259560 -0.120099
H18   H     H_    0.086996 0.648628 0.260962 0.183737
C38   C     C_R   0.214997 0.760354 0.194199 -0.181372
H19   H     H_    0.100300 0.762674 0.148593 0.127335
C39   C     C_R   0.377892 0.816290 0.184171 -0.091680
C40   C     C_R   0.523065 0.809452 0.244468 -0.006364
C41   C     C_3   0.731507 0.791802 0.231092 -0.410949
C42   C     C_3   0.718346 0.723757 0.302882 0.640965
H20   H     H_    0.820167 0.853178 0.245404 0.178673
H21   H     H_    0.760113 0.760114 0.169218 0.131781
O11   O     O_R   0.229140 0.916090 0.913340 -0.544197
O12   O     O_R   0.558860 0.905090 0.086080 -0.539150
O13   O     O_R   0.729100 0.083920 0.086690 -0.537505
C43   C     C_R   0.389952 0.882726 0.114456 0.706145
O14   O     O_R   0.558860 0.905090 0.913930 -0.539255
O15   O     O_R   0.729100 0.083920 0.913310 -0.536779
C44   C     C_R   0.389583 0.884057 0.884485 0.698851
O16   O     O_R   0.229140 0.916080 0.086720 -0.539334
O17   O     O_3   0.395570 0.058660 0.000020 -0.369145
V3    V     V_3+5 0.670450 0.989140 0.000000 1.400577
O18   O     O_R   0.058810 0.094980 0.913910 -0.539233
C45   C     C_R   0.889880 0.116250 0.885060 0.691484
O19   O     O_R   0.058810 0.094980 0.086060 -0.542379
C46   C     C_R   0.890065 0.117301 0.114525 0.697420
V4    V     V_3+5 0.170450 0.010950 0.999970 1.402374
O20   O     O_3   0.895460 0.941370 0.999990 -0.372766
O21   O     O_3   0.397653 0.227825 0.362895 -0.628800
H22   H     H_    0.447802 0.167359 0.381094 0.294437
O22   O     O_3   0.729083 0.500911 0.735281 -0.653080
H23   H     H_    0.868078 0.506636 0.723206 0.262012
O23   O     O_3   0.827302 0.751059 0.372334 -0.636535
H24   H     H_    0.783523 0.713148 0.419989 0.302540
O24   O     O_3   0.751704 0.631829 0.280412 -0.657193
H25   H     H_    0.674799 0.617625 0.229685 0.256022
C47   C     C_3   0.541760 0.390870 0.013450 -0.344794
C48   C     C_3   0.449901 0.484410 0.028634 -0.788711
H26   H     H_    0.558388 0.539730 0.022337 0.223160
H27   H     H_    0.329665 0.495949 0.984169 0.229785
H28   H     H_    0.391593 0.486844 0.093124 0.214454
H29   H     H_    0.430839 0.337467 0.024436 0.176040
H30   H     H_    0.656905 0.380908 0.060827 0.176224

loop_
_geom_bond_atom_site_label_1
_geom_bond_atom_site_label_2
_ccdc_geom_bond_type
C37   C38   A    
C48   H26   S    
C22   H8    S    
C6    C7    A    
C1    O6    A    
V3    O20   S    
C21   C22   A    
C25   C26   S    
C29   H12   S    
C12   C15   A    
C20   C46   S    
C13   C14   A    
O14   V3    S    
C27   C34   S    
C15   C16   A    
C19   C20   A    
C3    C23   S    
O5    C3    A    
C17   C18   A    
C8    H3    S    
C33   H14   S    
V2    O10   S    
C31   C32   A    
C5    C6    A    
C35   C40   A    
C25   O21   S    
O21   H22   S    
O8    V2    S    
C38   H19   S    
C35   C42   S    
C39   C40   A    
O1    V2    S    
C10   C14   A    
C4    C14   S    
O7    V1    S    
C19   C26   S    
C33   H15   S    
C25   H9    S    
C37   H18   S    
O12   V3    S    
C13   C18   A    
C48   H27   S    
O9    C4    A    
H1    C17   S    
C22   C23   A    
O17   V4    S    
C41   H21   S    
C6    H2    S    
C29   C30   A    
C30   C31   A    
O12   C43   A    
O13   C46   A    
C42   O24   S    
C26   H10   S    
C1    C28   S    
C28   C29   A    
C11   C12   A    
O14   C44   A    
O18   V4    S    
O11   C44   A    
C21   H7    S    
O4    C2    A    
O18   C45   A    
C12   C13   A    
C5    C10   A    
O2    C1    A    
C23   C24   A    
C16   C17   A    
C2    C36   S    
C7    C47   S    
O23   H24   S    
C7    C8    A    
C27   C28   A    
C47   H29   S    
O17   V3    S    
O15   C45   A    
O3    C4    A    
O13   V3    S    
C41   H20   S    
O19   V4    S    
C36   C37   A    
O6    V2    S    
O9    V2    S    
C5    O22   S    
C9    C11   A    
O2    V1    S    
C24   C25   S    
O16   V4    S    
C30   H13   S    
C34   H16   S    
C39   C43   S    
O1    C2    A    
C27   C32   A    
C47   H30   S    
C9    C10   A    
C26   H11   S    
C41   C42   S    
O5    V1    S    
O8    C3    A    
C31   C44   S    
C48   H28   S    
C16   H5    S    
C34   H17   S    
C35   C36   A    
C19   C24   A    
C33   C34   S    
O4    V1    S    
O3    V1    S    
V1    O10   S    
C43   O16   A    
V4    O20   S    
C20   C21   A    
C47   C48   S    
O7    V2    S    
O22   H23   S    
C11   C45   S    
C15   H4    S    
C40   C41   S    
O19   C46   A    
C38   C39   A    
O24   H25   S    
C18   H6    S    
C42   O23   S    
C32   C33   S    
C8    C9    A    
O15   V3    S    
O11   V4    S    
