data_mof_unit_17060.cif
_audit_creation_date              2012-12-11T17:04:45-0500
_audit_creation_method            fapswitch 2.2
_symmetry_space_group_name_H-M    P1
_symmetry_Int_Tables_number       1
_space_group_crystal_system       triclinic
_cell_length_a                    17.549077
_cell_length_b                    24.505498
_cell_length_c                    14.990341
_cell_angle_alpha                 90.202443
_cell_angle_beta                  125.410114
_cell_angle_gamma                 89.818703
_cell_volume                      5254.0889006

loop_
_atom_site_label
_atom_site_type_symbol
_atom_type_description
_atom_site_fract_x
_atom_site_fract_y
_atom_site_fract_z
_atom_type_partial_charge
C1    C     C_R   0.844177 0.649605 0.906909 -0.186728
C2    C     C_R   0.155835 0.650097 0.093038 -0.195755
C3    C     C_R   0.344481 0.149764 0.907384 -0.161423
C4    C     C_R   0.661433 0.147726 0.094604 -0.151164
C5    C     C_R   0.820688 0.359128 0.002343 -0.000732
C6    C     C_R   0.178510 0.359714 0.991660 0.025845
C7    C     C_R   0.321385 0.858099 0.002392 0.000837
C8    C     C_R   0.678353 0.859527 0.991652 0.025159
C9    C     C_R   0.068065 0.502689 0.369058 0.006266
C10   C     C_R   0.031049 0.502580 0.705606 0.018349
C11   C     C_R   0.567649 0.002554 0.368921 0.007005
C12   C     C_R   0.532789 0.002159 0.707393 -0.039112
C13   C     C_R   0.692514 0.499779 0.639401 -0.052751
C14   C     C_R   0.309060 0.500048 0.358790 -0.058934
C15   C     C_R   0.190113 0.999276 0.642351 -0.043116
C16   C     C_R   0.807129 0.999723 0.360770 -0.053746
C17   C     C_3   0.529440 0.452824 0.559899 -0.253719
C18   C     C_3   0.472080 0.454440 0.433077 -0.212114
C19   C     C_3   0.027004 0.951603 0.561652 -0.251628
C20   C     C_3   0.969985 0.954249 0.434918 -0.213789
C21   C     C_3   0.466445 0.497418 0.556827 0.042640
C22   C     C_3   0.535098 0.500168 0.440855 0.051151
C23   C     C_3   0.963847 0.995805 0.559517 0.047236
C24   C     C_3   0.033149 0.000299 0.444343 0.052854
C25   C     C_3   0.409775 0.499140 0.433208 0.133919
C26   C     C_3   0.591804 0.498741 0.564511 0.136210
C27   C     C_3   0.907630 0.998576 0.436028 0.125990
C28   C     C_3   0.089501 0.997887 0.567889 0.130214
C29   C     C_3   0.472288 0.544851 0.437774 -0.061357
C30   C     C_3   0.529268 0.543243 0.564616 -0.063201
C31   C     C_3   0.970377 0.044608 0.442375 -0.052643
C32   C     C_3   0.026890 0.041946 0.569089 -0.066729
C33   C     C_R   0.684426 0.319115 0.976604 0.037337
C34   C     C_R   0.198655 0.291274 0.889252 -0.046977
C35   C     C_R   0.193730 0.822330 0.002346 0.046307
C36   C     C_R   0.698250 0.791039 0.889119 -0.048365
C37   C     C_R   0.772895 0.312482 0.999875 -0.049661
C38   C     C_R   0.240603 0.327304 0.978741 0.057846
C39   C     C_R   0.270487 0.812859 0.999516 -0.067048
C40   C     C_R   0.740328 0.827089 0.978603 0.058416
C41   C     C_R   0.810659 0.259804 0.009760 -0.074977
C42   C     C_R   0.338886 0.324689 0.058145 -0.023938
C43   C     C_R   0.292143 0.759666 0.983129 -0.079309
C44   C     C_R   0.838657 0.824586 0.057692 -0.024490
C45   C     C_R   0.906922 0.373615 0.093668 -0.122166
C46   C     C_R   0.091237 0.373862 0.904568 -0.115885
C47   C     C_R   0.407848 0.872222 0.093645 -0.109403
C48   C     C_R   0.591069 0.873655 0.904583 -0.117193
C49   C     C_R   0.241232 0.716474 0.983139 -0.154408
C50   C     C_R   0.885999 0.777558 0.060140 -0.259997
C51   C     C_R   0.763558 0.215559 0.013573 -0.170477
C52   C     C_R   0.386207 0.277586 0.060816 -0.259026
C53   C     C_R   0.172834 0.726401 0.001024 0.047403
C54   C     C_R   0.835127 0.735188 0.985191 0.105098
C55   C     C_R   0.681455 0.224120 0.005863 0.017797
C56   C     C_R   0.335334 0.235233 0.985816 0.102420
C57   C     C_R   0.144718 0.779011 0.003091 0.248401
C58   C     C_R   0.745344 0.745546 0.894181 0.127689
C59   C     C_R   0.638385 0.274808 0.979207 0.114860
C60   C     C_R   0.245694 0.245696 0.894583 0.123450
C61   C     C_3   0.133568 0.805253 0.084991 -0.654497
C62   C     C_3   0.661543 0.709351 0.839768 -0.539637
C63   C     C_3   0.601800 0.306061 0.032776 -0.598906
C64   C     C_3   0.161754 0.209610 0.839751 -0.545261
C65   C     C_3   0.653299 0.355313 0.030288 -0.193840
C66   C     C_3   0.107865 0.259686 0.832144 -0.213714
C67   C     C_3   0.188562 0.853203 0.084937 -0.226314
C68   C     C_3   0.607597 0.759336 0.832444 -0.217649
C69   C     C_R   0.060756 0.555869 0.591785 0.164029
C70   C     C_R   0.072966 0.556492 0.509653 0.146677
C71   C     C_R   0.561572 0.055487 0.592773 0.125197
C72   C     C_R   0.573040 0.056139 0.510047 0.146164
C73   C     C_R   0.072373 0.507355 0.646551 0.046924
C74   C     C_R   0.097609 0.508474 0.481317 0.045917
C75   C     C_R   0.573645 0.006971 0.647790 0.059380
C76   C     C_R   0.597397 0.008172 0.481301 0.052459
C77   C     C_R   0.122387 0.464598 0.640498 -0.186438
C78   C     C_R   0.135829 0.465313 0.557338 -0.208779
C79   C     C_R   0.623200 0.964197 0.640990 -0.181111
C80   C     C_R   0.635957 0.964974 0.557268 -0.213852
C81   C     C_3   0.991610 0.594520 0.441811 -0.438123
C82   C     C_3   0.978897 0.593817 0.533085 -0.509145
C83   C     C_3   0.491559 0.094116 0.442648 -0.452422
C84   C     C_3   0.479614 0.093392 0.534540 -0.461921
C85   C     C_R   0.051715 0.546715 0.304053 -0.171419
C86   C     C_R   0.014623 0.546945 0.747728 -0.166607
C87   C     C_R   0.551482 0.046645 0.304057 -0.166203
C88   C     C_R   0.516508 0.046523 0.749580 -0.076040
C89   C     C_R   0.743490 0.454857 0.698116 -0.059978
C90   C     C_R   0.258191 0.454979 0.300567 -0.008440
C91   C     C_R   0.242353 0.954531 0.699666 -0.069274
C92   C     C_R   0.757018 0.954828 0.301350 -0.010988
C93   C     C_R   0.050831 0.456591 0.306049 0.066584
C94   C     C_R   0.997371 0.456573 0.726470 0.042501
C95   C     C_R   0.550417 0.956522 0.305822 0.072136
C96   C     C_R   0.498037 0.956378 0.727202 0.044683
C97   C     C_R   0.741858 0.545657 0.697273 -0.050301
C98   C     C_R   0.258570 0.545855 0.302055 -0.050933
C99   C     C_R   0.239844 0.045373 0.698584 -0.055417
C100  C     C_R   0.757492 0.045618 0.303380 -0.054863
C101  C     C_R   0.813719 0.374977 0.910185 -0.084685
C102  C     C_R   0.186378 0.374098 0.086415 0.031644
C103  C     C_R   0.313994 0.874562 0.910253 -0.089859
C104  C     C_R   0.686366 0.874068 0.086442 0.031668
C105  C     C_R   0.935073 0.651037 0.089153 0.003265
C106  C     C_R   0.058720 0.652328 0.911042 -0.048004
C107  C     C_R   0.435045 0.150947 0.089430 0.001800
C108  C     C_R   0.564133 0.151413 0.912423 -0.004205
C109  C     C_R   0.869201 0.680266 0.996600 0.053847
C110  C     C_R   0.124941 0.680968 0.002575 0.061991
C111  C     C_R   0.369322 0.180273 0.997116 0.040533
C112  C     C_R   0.634348 0.177756 0.004786 -0.023682
H1    H     H_    0.804711 0.664091 0.823993 0.107779
H2    H     H_    0.204949 0.662708 0.176716 0.109550
H3    H     H_    0.305611 0.164776 0.825059 0.109210
H4    H     H_    0.710864 0.159785 0.178565 0.110949
H5    H     H_    0.553354 0.415734 0.611845 0.125714
H6    H     H_    0.448161 0.418753 0.377184 0.140261
H7    H     H_    0.050872 0.914130 0.612508 0.134466
H8    H     H_    0.946146 0.919030 0.377924 0.142309
H9    H     H_    0.448890 0.581865 0.385672 0.150822
H10   H     H_    0.552757 0.578896 0.620553 0.146784
H11   H     H_    0.947343 0.082068 0.391544 0.152416
H12   H     H_    0.050290 0.077067 0.626260 0.144651
H13   H     H_    0.257175 0.674843 0.974183 0.176183
H14   H     H_    0.960149 0.773154 0.122802 0.141117
H15   H     H_    0.790883 0.174503 0.023971 0.181440
H16   H     H_    0.460323 0.273131 0.123615 0.140854
H17   H     H_    0.171471 0.782880 0.164097 0.210939
H18   H     H_    0.666262 0.677679 0.895761 0.220713
H19   H     H_    0.631204 0.291332 0.117002 0.207985
H20   H     H_    0.166101 0.177963 0.895560 0.219964
H21   H     H_    0.058976 0.814219 0.049693 0.197661
H22   H     H_    0.643103 0.693417 0.759904 0.188525
H23   H     H_    0.524194 0.309302 0.978881 0.188265
H24   H     H_    0.143584 0.193662 0.760010 0.187805
H25   H     H_    0.712159 0.369604 0.112911 0.170817
H26   H     H_    0.078855 0.256335 0.881167 0.189676
H27   H     H_    0.258174 0.858998 0.164083 0.173009
H28   H     H_    0.578933 0.755914 0.881825 0.191546
H29   H     H_    0.143538 0.429133 0.692738 0.130233
H30   H     H_    0.167968 0.430268 0.548578 0.126297
H31   H     H_    0.644518 0.928684 0.693143 0.130080
H32   H     H_    0.667948 0.929967 0.548170 0.128147
H33   H     H_    0.932117 0.575523 0.365080 0.212174
H34   H     H_    0.994180 0.633830 0.575415 0.215393
H35   H     H_    0.431861 0.075074 0.366151 0.218923
H36   H     H_    0.495071 0.133410 0.576889 0.211986
H37   H     H_    0.936203 0.361911 0.176752 0.130541
H38   H     H_    0.062223 0.365968 0.820959 0.130748
H39   H     H_    0.437311 0.860275 0.176640 0.127923
H40   H     H_    0.561906 0.865597 0.820999 0.131232
H41   H     H_    0.013729 0.635053 0.431388 0.230440
H42   H     H_    0.912473 0.574250 0.509411 0.205782
H43   H     H_    0.513433 0.134659 0.431911 0.227542
H44   H     H_    0.413382 0.073792 0.511448 0.214829
H45   H     H_    0.073412 0.587776 0.333228 0.114359
H46   H     H_    0.033588 0.588353 0.746445 0.112333
H47   H     H_    0.573184 0.087674 0.333431 0.113559
H48   H     H_    0.537336 0.087565 0.749668 0.141075
H49   H     H_    0.757164 0.365763 0.826772 0.126655
H50   H     H_    0.246879 0.367610 0.168539 0.136691
H51   H     H_    0.257108 0.865657 0.826892 0.132841
H52   H     H_    0.746938 0.867716 0.168622 0.137274
N1    N     N_R   0.892620 0.603790 0.941770 -0.053501
N2    N     N_R   0.107380 0.603790 0.058230 -0.048299
N3    N     N_R   0.392620 0.103790 0.941770 -0.049452
N4    N     N_R   0.607380 0.103790 0.058230 -0.060122
N5    N     N_R   0.952270 0.397640 0.058010 -0.043605
N6    N     N_R   0.047730 0.397640 0.941990 -0.041512
N7    N     N_R   0.452270 0.897640 0.058010 -0.042918
N8    N     N_R   0.547730 0.897640 0.941990 -0.042920
N9    N     N_R   0.026310 0.529110 0.206760 -0.059461
N10   N     N_R   0.973690 0.529110 0.793240 -0.066030
N11   N     N_R   0.526310 0.029110 0.206760 -0.060813
N12   N     N_R   0.473690 0.029110 0.793240 -0.049520
N13   N     N_R   0.818570 0.472310 0.793020 -0.043601
N14   N     N_R   0.181430 0.472310 0.206980 -0.044863
N15   N     N_R   0.318570 0.972310 0.793020 -0.046689
N16   N     N_R   0.681430 0.972310 0.206980 -0.045634
N17   N     N_R   0.026930 0.472300 0.207330 -0.042140
N18   N     N_R   0.973070 0.472300 0.792670 -0.034978
N19   N     N_R   0.526930 0.972300 0.207330 -0.042767
N20   N     N_R   0.473070 0.972300 0.792670 -0.043449
N21   N     N_R   0.817960 0.529130 0.792460 -0.082546
N22   N     N_R   0.182040 0.529130 0.207540 -0.080727
N23   N     N_R   0.317960 0.029130 0.792460 -0.079181
N24   N     N_R   0.682040 0.029130 0.207540 -0.083282
N25   N     N_R   0.894850 0.397640 0.943830 -0.033373
N26   N     N_R   0.105150 0.397640 0.056170 -0.046086
N27   N     N_R   0.394850 0.897640 0.943830 -0.035766
N28   N     N_R   0.605150 0.897640 0.056170 -0.046036
N29   N     N_R   0.950040 0.603780 0.055950 -0.074393
N30   N     N_R   0.049960 0.603780 0.944050 -0.072201
N31   N     N_R   0.450040 0.103780 0.055950 -0.079408
N32   N     N_R   0.549960 0.103780 0.944050 -0.044768
Ni1   Ni    Ni4+2 0.934160 0.565860 0.869070 0.190053
Ni2   Ni    Ni4+2 0.065840 0.565860 0.130930 0.192146
Ni3   Ni    Ni4+2 0.434160 0.065860 0.869070 0.244997
Ni4   Ni    Ni4+2 0.565840 0.065860 0.130930 0.188203
Ni5   Ni    Ni4+2 0.067260 0.435560 0.132230 0.288863
Ni6   Ni    Ni4+2 0.932740 0.435560 0.867770 0.305369
Ni7   Ni    Ni4+2 0.567260 0.935560 0.132230 0.284910
Ni8   Ni    Ni4+2 0.432740 0.935560 0.867770 0.303304
C113  C     C_2   0.898528 0.250297 0.018083 0.560388
H53   H     H_    0.933903 0.283481 0.008658 0.034762
O1    O     O_2   0.932472 0.204662 0.034809 -0.566193
C114  C     C_2   0.393297 0.368141 0.140268 0.470831
H54   H     H_    0.463298 0.359520 0.211945 0.026424
O2    O     O_2   0.362543 0.414427 0.126966 -0.595044
C115  C     C_2   0.369736 0.748206 0.971961 0.574618
H55   H     H_    0.415846 0.780394 0.980859 0.031532
O3    O     O_2   0.383464 0.702118 0.952775 -0.564240
C116  C     C_2   0.893129 0.868068 0.139715 0.463945
H56   H     H_    0.963246 0.859496 0.211213 0.031666
O4    O     O_2   0.862302 0.914329 0.126500 -0.596046
C117  C     C_2   0.589594 0.399945 0.955086 0.589870
H57   H     H_    0.530575 0.390536 0.872080 -0.007551
O5    O     O_2   0.604026 0.447189 0.986802 -0.572992
C118  C     C_2   0.037741 0.276907 0.715297 0.579991
H58   H     H_    0.060043 0.285777 0.662767 -0.000572
O6    O     O_2   0.955145 0.280800 0.678721 -0.537810
C119  C     C_2   0.132019 0.904601 0.037822 0.612095
H59   H     H_    0.063448 0.903679 0.960192 0.006108
O7    O     O_2   0.163015 0.947831 0.086517 -0.575262
C120  C     C_2   0.537064 0.776496 0.715652 0.585252
H60   H     H_    0.558977 0.785337 0.662732 -0.002526
O8    O     O_2   0.454577 0.780386 0.679571 -0.533180
C121  C     C_2   0.736841 0.401485 0.648266 0.444871
H61   H     H_    0.674655 0.391078 0.568281 0.034405
O9    O     O_2   0.802139 0.369387 0.694199 -0.553870
C122  C     C_2   0.270908 0.400356 0.348693 0.389236
H62   H     H_    0.333649 0.391197 0.429011 0.045576
O10   O     O_2   0.210447 0.365508 0.300983 -0.590842
C123  C     C_2   0.235093 0.901307 0.648998 0.456176
H63   H     H_    0.171961 0.890714 0.569984 0.035541
O11   O     O_2   0.300911 0.869550 0.693123 -0.551095
C124  C     C_2   0.768773 0.900030 0.348459 0.390023
H64   H     H_    0.830690 0.890678 0.429317 0.053063
O12   O     O_2   0.708397 0.865252 0.299291 -0.591892
N33   N     N_3   0.072143 0.401442 0.343079 -0.196145
H65   H     H_    0.143951 0.398012 0.401872 0.136605
H66   H     H_    0.037334 0.391995 0.378718 0.096608
N34   N     N_3   0.954750 0.410921 0.653711 -0.168734
H67   H     H_    0.896020 0.425352 0.579760 0.130761
H68   H     H_    0.000735 0.395241 0.637287 0.088829
N35   N     N_3   0.570828 0.901293 0.342448 -0.197532
H69   H     H_    0.642552 0.897438 0.401239 0.136008
H70   H     H_    0.535795 0.892103 0.377926 0.097282
N36   N     N_3   0.455219 0.910903 0.653984 -0.166974
H71   H     H_    0.397069 0.925596 0.579824 0.136536
H72   H     H_    0.501502 0.894975 0.638241 0.089741
C125  C     C_2   0.734577 0.598806 0.647117 0.474139
H73   H     H_    0.793256 0.626200 0.687092 -0.001959
O13   O     O_2   0.664611 0.611717 0.558233 -0.599869
C126  C     C_2   0.265048 0.598822 0.352938 0.488793
H74   H     H_    0.206942 0.626834 0.311305 -0.011496
O14   O     O_2   0.333204 0.610784 0.444052 -0.588294
C127  C     C_2   0.228075 0.098882 0.647431 0.451714
H75   H     H_    0.284344 0.127500 0.685685 0.109562
O15   O     O_2   0.156748 0.110806 0.559010 -0.599152
C128  C     C_2   0.762956 0.098423 0.354215 0.486364
H76   H     H_    0.705955 0.127061 0.310651 -0.012279
O16   O     O_2   0.828987 0.109588 0.447224 -0.588074
C129  C     C_2   0.993106 0.671728 0.201783 0.444324
H77   H     H_    0.067693 0.664995 0.251568 -0.009654
O17   O     O_2   0.957765 0.696435 0.240106 -0.577345
C130  C     C_2   0.991382 0.675488 0.801010 0.467605
H78   H     H_    0.934199 0.650925 0.737788 -0.002367
O18   O     O_2   0.998860 0.722328 0.779668 -0.579575
C131  C     C_2   0.492859 0.171523 0.202145 0.448321
H79   H     H_    0.567452 0.164901 0.252044 -0.012254
O19   O     O_2   0.457308 0.196084 0.240369 -0.577593
C132  C     C_2   0.502467 0.177502 0.804136 0.402273
H80   H     H_    0.521387 0.216511 0.788303 0.037917
O20   O     O_2   0.429658 0.156230 0.731480 -0.626266
N37   N     N_3   0.425759 0.495210 0.618173 -0.218361
H81   H     H_    0.481002 0.495649 0.701263 0.128413
H82   H     H_    0.388089 0.531281 0.602529 0.163086
N38   N     N_3   0.575506 0.500782 0.379139 -0.212875
H83   H     H_    0.520067 0.502201 0.296194 0.149964
H84   H     H_    0.612288 0.537320 0.397240 0.157392
N39   N     N_3   0.922604 0.992727 0.620170 -0.215967
H85   H     H_    0.977543 0.993039 0.703383 0.115872
H86   H     H_    0.884442 0.028570 0.604711 0.159709
N40   N     N_3   0.073763 0.001691 0.382866 -0.208757
H87   H     H_    0.018423 0.003422 0.299908 0.150472
H88   H     H_    0.110488 0.038293 0.401713 0.166072

loop_
_geom_bond_atom_site_label_1
_geom_bond_atom_site_label_2
_ccdc_geom_bond_type
C63   C65   S    
N20   Ni8   S    
C22   C29   S    
C55   C59   A    
C119  H59   S    
C99   N23   A    
C61   H21   S    
C97   N21   A    
C44   C116  S    
C100  N24   A    
C101  N25   A    
C11   C76   S    
C68   C120  S    
N30   Ni1   S    
C10   C94   A    
N36   H72   S    
C131  H79   S    
C104  N28   A    
N34   H67   S    
C132  H80   S    
C14   C90   A    
C92   N16   A    
C93   N17   A    
C19   C20   S    
C70   C74   A    
C43   C115  S    
C18   H6    S    
C65   H25   S    
C33   C59   A    
C34   C60   A    
C18   C25   S    
C1    H1    S    
C25   C29   S    
C124  O12   D    
C27   C31   S    
C28   C32   S    
C17   C21   S    
C4    N4    A    
C86   N10   A    
C64   C66   S    
C19   C23   S    
N2    Ni2   S    
C121  H61   S    
C21   N37   S    
C47   N7    A    
C122  O10   D    
C67   C119  S    
C8    C104  A    
C130  O18   D    
C68   H28   S    
N12   Ni3   S    
C20   H8    S    
N11   N19   A    
C44   C50   A    
N12   N20   A    
N3    N31   A    
N17   Ni5   S    
C127  O15   D    
C104  H52   S    
C39   C43   A    
C36   C68   S    
C57   C61   S    
C59   C63   S    
C62   C68   S    
C60   C64   S    
C65   C117  S    
C2    H2    S    
C95   N19   A    
C49   C53   A    
C87   H47   S    
C51   C55   A    
C88   H48   S    
C13   C97   A    
C69   C70   A    
C77   H29   S    
N6    Ni6   S    
C15   C91   A    
N14   N22   A    
C98   N22   A    
C12   C75   S    
C73   C77   A    
C8    C40   S    
N21   Ni1   S    
C75   C79   A    
C41   C51   A    
C42   C52   A    
N40   H88   S    
C64   H24   S    
C84   H44   S    
C62   H18   S    
N5    N25   A    
N16   Ni7   S    
N10   N18   A    
C3    N3    A    
C106  N30   A    
N8    N28   A    
C92   C124  S    
C21   C25   S    
C125  H73   S    
C22   N38   S    
C83   H43   S    
N24   Ni4   S    
C105  C129  S    
C91   C123  S    
C81   H41   S    
N33   H65   S    
C69   C82   S    
C9    C85   A    
C79   H31   S    
C31   C32   S    
C11   C87   A    
C80   H32   S    
C126  O14   D    
C6    C38   S    
C35   C67   S    
C67   H27   S    
C61   H17   S    
C16   C27   S    
C6    C102  A    
C7    C103  A    
N37   H81   S    
C90   C122  S    
N32   Ni3   S    
C118  H58   S    
C14   C98   A    
C113  O1    D    
C24   N40   S    
C12   C88   A    
C30   H10   S    
N38   H83   S    
C16   C100  A    
C117  H57   S    
C46   N6    A    
C29   C30   S    
C61   C67   S    
C83   C84   S    
C66   H26   S    
C99   C127  S    
C17   C18   S    
C42   C114  S    
C19   C28   S    
C129  O17   D    
C26   C30   S    
C74   C78   A    
C13   C26   S    
C103  N27   A    
C9    C74   S    
C97   C125  S    
C105  C109  A    
C10   C86   A    
N10   Ni1   S    
C7    C39   S    
C46   H38   S    
C18   C22   S    
C107  C111  A    
N22   Ni2   S    
C24   C28   S    
C45   N5    A    
C119  O7    D    
C128  H76   S    
C23   N39   S    
N25   Ni6   S    
C87   N11   A    
C120  O8    D    
C88   N12   A    
C71   C72   A    
C93   N33   S    
N34   H68   S    
C132  O20   D    
C37   C41   A    
C19   H7    S    
C40   C44   A    
C120  H60   S    
N14   Ni5   S    
N39   H85   S    
N3    Ni3   S    
C58   C62   S    
C90   N14   A    
C96   N36   S    
C52   H16   S    
C77   C78   A    
C50   C54   A    
C71   C84   S    
C108  C132  S    
C78   H30   S    
C54   C58   A    
C10   C73   S    
N15   N23   A    
C5    C37   S    
N29   Ni2   S    
N13   N21   A    
N8    Ni8   S    
C66   C118  S    
N16   N24   A    
C1    C109  A    
C64   H20   S    
C3    C111  A    
C114  H54   S    
C29   H9    S    
C123  H63   S    
C69   C73   A    
C63   H19   S    
C108  N32   A    
C2    N2    A    
C56   C111  S    
C17   H5    S    
N35   H70   S    
N9    N17   A    
C34   C66   S    
C85   H45   S    
C98   C126  S    
C82   H34   S    
C5    C101  A    
C84   H36   S    
C107  C131  S    
C76   C80   A    
C53   C57   A    
N36   H71   S    
C5    C45   A    
C33   C37   A    
C56   C60   A    
N23   Ni3   S    
C7    C47   A    
C35   C39   A    
C8    C48   A    
N1    Ni1   S    
C115  H55   S    
C102  H50   S    
N7    N27   A    
C47   H39   S    
C16   C92   A    
C89   N13   A    
C48   H40   S    
N27   Ni8   S    
C124  H64   S    
C2    C110  A    
N4    Ni4   S    
N18   Ni6   S    
C106  C130  S    
C4    H4    S    
C20   C27   S    
C49   H13   S    
C21   C30   S    
C118  O6    D    
C35   C57   A    
C51   H15   S    
C23   C32   S    
C24   C31   S    
C121  O9    D    
C3    H3    S    
C15   C28   S    
C122  H62   S    
C102  N26   A    
N28   Ni7   S    
C116  O4    D    
C14   C25   S    
N7    Ni7   S    
C72   C83   S    
N5    Ni5   S    
C108  C112  A    
C130  H78   S    
C22   C26   S    
C12   C96   A    
C94   N18   A    
C53   C110  S    
C55   C112  S    
N39   H86   S    
C32   H12   S    
C72   C76   A    
C107  N31   A    
C81   C82   S    
C33   C65   S    
C113  H53   S    
C105  N29   A    
C17   C26   S    
N38   H84   S    
C38   C42   A    
C36   C58   A    
N40   H87   S    
C70   C81   S    
C94   N34   S    
C48   N8    A    
C20   C24   S    
C91   N15   A    
C85   N9    A    
C50   H14   S    
C23   C27   S    
C129  H77   S    
C95   N35   S    
C4    C112  A    
C123  O11   D    
C96   N20   A    
C36   C40   A    
C125  O13   D    
C116  H56   S    
C43   C49   A    
C128  O16   D    
C54   C109  S    
N33   H66   S    
C63   H23   S    
C1    N1    A    
C126  H74   S    
C86   H46   S    
C83   H35   S    
C115  O3    D    
C100  C128  S    
C81   H33   S    
N37   H82   S    
N2    N30   A    
C127  H75   S    
C9    C93   A    
N31   Ni4   S    
C106  C110  A    
C11   C95   A    
C131  O19   D    
C6    C46   A    
C13   C89   A    
N9    Ni2   S    
C34   C38   A    
C15   C99   A    
N1    N29   A    
N35   H69   S    
N26   Ni5   S    
C117  O5    D    
N6    N26   A    
C103  H51   S    
N19   Ni7   S    
C62   H22   S    
C101  H49   S    
C31   H11   S    
C71   C75   A    
C45   H37   S    
C41   C113  S    
N11   Ni4   S    
C79   C80   A    
C82   H42   S    
N15   Ni8   S    
C114  O2    D    
N4    N32   A    
N13   Ni6   S    
C89   C121  S    
C52   C56   A    
