data_mof_unit_18324.cif
_audit_creation_date              2012-10-26T20:20:47-0400
_audit_creation_method            fapswitch 2.2
_symmetry_space_group_name_H-M    P1
_symmetry_Int_Tables_number       1
_space_group_crystal_system       triclinic
_cell_length_a                    8.83138
_cell_length_b                    10.924069
_cell_length_c                    9.5987
_cell_angle_alpha                 88.515242
_cell_angle_beta                  98.108148
_cell_angle_gamma                 94.224847
_cell_volume                      914.169629239

loop_
_atom_site_label
_atom_site_type_symbol
_atom_type_description
_atom_site_fract_x
_atom_site_fract_y
_atom_site_fract_z
_atom_type_partial_charge
C1    C     C_R   0.496580 0.262117 0.501795 0.536202
C2    C     C_R   0.447137 0.053273 0.616926 0.000804
C3    C     C_R   0.490625 0.871494 0.491003 0.006627
C4    C     C_R   0.493219 0.127819 0.504818 0.007879
C5    C     C_R   0.407152 0.414741 0.062011 0.123360
C6    C     C_R   0.594612 0.583297 0.938635 0.131296
C7    C     C_R   0.409930 0.416505 0.914163 0.004981
C8    C     C_R   0.591822 0.582355 0.085974 0.014072
C9    C     C_3   0.970680 0.381490 0.342141 -0.261055
C10   C     C_3   0.938901 0.440314 0.195789 -0.414400
C11   C     C_3   0.028456 0.622786 0.653410 -0.263283
C12   C     C_R   0.497857 0.737691 0.497200 0.535388
C13   C     C_3   0.064123 0.569337 0.801884 -0.423217
C14   C     C_3   0.548391 0.897042 0.233619 -0.254066
C15   C     C_3   0.393574 0.856596 0.148425 -0.406546
C16   C     C_3   0.395397 0.101676 0.747305 -0.258360
C17   C     C_3   0.532076 0.130548 0.861100 -0.422225
C18   C     C_3   0.312432 0.308903 0.121835 -0.256038
C19   C     C_3   0.167308 0.261127 0.025997 -0.508333
C20   C     C_3   0.714554 0.673021 0.887000 -0.252522
C21   C     C_3   0.690164 0.806457 0.914023 -0.470044
C22   C     C_R   0.204475 0.498465 0.464685 0.550902
C23   C     C_R   0.795605 0.501601 0.535257 0.553306
C24   C     C_2   0.039464 0.476884 0.451034 -0.014071
C25   C     C_2   0.960704 0.523761 0.548524 -0.012588
C26   C     C_R   0.532497 0.072520 0.386487 -0.147949
C27   C     C_R   0.446703 0.926454 0.607355 -0.145593
C28   C     C_R   0.525797 0.945853 0.374644 -0.002415
Cu1   Cu    Cu3+1 0.500000 0.500020 0.640660 0.889948
Cu2   Cu    Cu3+1 0.500000 0.499980 0.359340 0.888825
H1    H     H_    0.047605 0.469774 0.155448 0.160147
H2    H     H_    0.945048 0.693978 0.654993 0.114377
H3    H     H_    0.566940 0.128778 0.300235 0.121366
H4    H     H_    0.408250 0.869535 0.691247 0.124824
H5    H     H_    0.410865 0.804640 0.055180 0.132046
H6    H     H_    0.320872 0.797088 0.211618 0.180802
H7    H     H_    0.330781 0.938611 0.112013 0.129945
H8    H     H_    0.604988 0.968861 0.170358 0.111767
H9    H     H_    0.628604 0.823489 0.247655 0.155587
H10   H     H_    0.613294 0.203212 0.826040 0.186958
H11   H     H_    0.491184 0.161262 0.957253 0.121792
H12   H     H_    0.871486 0.373688 0.121729 0.130836
H13   H     H_    0.594795 0.047267 0.888987 0.136825
H14   H     H_    0.325599 0.181139 0.720897 0.151683
H15   H     H_    0.316412 0.031950 0.791798 0.114612
H16   H     H_    0.103026 0.338012 0.976293 0.142780
H17   H     H_    0.196320 0.201422 0.943304 0.134449
H18   H     H_    0.091375 0.204374 0.089064 0.141377
H19   H     H_    0.385529 0.231054 0.147099 0.138698
H20   H     H_    0.273342 0.334511 0.219068 0.214390
H21   H     H_    0.759980 0.867935 0.849911 0.137445
H22   H     H_    0.568191 0.824317 0.885083 0.159141
H23   H     H_    0.874437 0.522751 0.199371 0.163937
H24   H     H_    0.727488 0.828504 0.026114 0.121591
H25   H     H_    0.828629 0.652730 0.943427 0.098350
H26   H     H_    0.721071 0.666638 0.775299 0.222460
H27   H     H_    0.339862 0.351246 0.847041 0.119601
H28   H     H_    0.667894 0.645297 0.152236 0.103742
H29   H     H_    0.051829 0.308913 0.338687 0.113604
H30   H     H_    0.865546 0.330742 0.370415 0.162924
H31   H     H_    0.961203 0.519780 0.835802 0.151699
H32   H     H_    0.152353 0.502999 0.805330 0.179079
H33   H     H_    0.106732 0.643907 0.876960 0.125082
H34   H     H_    0.131966 0.673962 0.622117 0.159187
N1    N     N_R   0.500040 0.500030 0.852080 -0.240320
N2    N     N_R   0.499960 0.499970 0.147920 -0.236956
O1    O     O_R   0.499990 0.319660 0.618740 -0.505765
O2    O     O_R   0.500010 0.680340 0.381260 -0.505594
O3    O     O_R   0.499990 0.319630 0.381170 -0.532125
O4    O     O_R   0.500010 0.680370 0.618830 -0.520171
O5    O     O_R   0.274840 0.500010 0.591370 -0.510556
O6    O     O_R   0.725160 0.499990 0.408630 -0.506369
O7    O     O_R   0.274830 0.499980 0.353800 -0.517162
O8    O     O_R   0.725170 0.500020 0.646200 -0.518976

loop_
_geom_bond_atom_site_label_1
_geom_bond_atom_site_label_2
_ccdc_geom_bond_type
C16   H15   S    
C2    C4    A    
C17   H13   S    
C9    C24   S    
C8    N2    A    
C2    C27   A    
C3    C12   S    
C9    H29   S    
C7    N1    A    
C2    C16   S    
C9    C10   S    
C16   H14   S    
C26   H3    S    
C4    C26   A    
C13   H33   S    
C21   H21   S    
C20   H26   S    
C9    H30   S    
C14   C28   S    
C1    C4    S    
C3    C27   A    
C19   H16   S    
C1    O3    A    
C15   H6    S    
C5    N2    A    
Cu2   N2    S    
C24   C25   D    
C12   O2    A    
Cu1   Cu2   S    
C6    C20   S    
C5    C18   S    
C20   H25   S    
Cu1   N1    S    
C23   O6    A    
C15   H5    S    
C3    C28   A    
C1    O1    A    
C11   H2    S    
Cu1   O4    S    
C22   C24   S    
C23   C25   S    
C27   H4    S    
C21   H24   S    
C17   H11   S    
C10   H12   S    
C11   C25   S    
C23   O8    A    
C14   H8    S    
Cu2   O7    S    
Cu1   O5    S    
C21   H22   S    
C22   O5    A    
C11   C13   S    
Cu2   O3    S    
C13   H31   S    
C20   C21   S    
C18   H20   S    
C18   C19   S    
C19   H17   S    
C5    C7    A    
C10   H23   S    
C12   O4    A    
C14   C15   S    
C16   C17   S    
C6    C8    A    
Cu1   O8    S    
Cu2   O2    S    
C22   O7    A    
C8    H28   S    
C14   H9    S    
Cu1   O1    S    
C26   C28   A    
C10   H1    S    
C7    H27   S    
C6    N1    A    
C15   H7    S    
C13   H32   S    
C18   H19   S    
C19   H18   S    
Cu2   O6    S    
C11   H34   S    
C17   H10   S    
