data_mof_unit_47273.cif
_audit_creation_date              2012-12-10T18:45:05-0500
_audit_creation_method            fapswitch 2.2
_symmetry_space_group_name_H-M    P1
_symmetry_Int_Tables_number       1
_space_group_crystal_system       triclinic
_cell_length_a                    10.695921
_cell_length_b                    9.964685
_cell_length_c                    10.588303
_cell_angle_alpha                 89.434782
_cell_angle_beta                  90.063278
_cell_angle_gamma                 88.204454
_cell_volume                      1127.90692688

loop_
_atom_site_label
_atom_site_type_symbol
_atom_type_description
_atom_site_fract_x
_atom_site_fract_y
_atom_site_fract_z
_atom_type_partial_charge
C1    C     C_R   0.259627 0.503188 0.501398 0.827731
C2    C     C_R   0.739059 0.498611 0.489211 0.862640
C3    C     C_R   0.931558 0.609034 0.419890 0.095183
C4    C     C_R   0.056148 0.627201 0.455332 0.062369
C5    C     C_R   0.545753 0.064889 0.602255 0.135493
C6    C     C_R   0.452186 0.070566 0.398374 0.136792
C7    C     C_R   0.547149 0.922709 0.598588 -0.104848
C8    C     C_R   0.452232 0.928090 0.401451 -0.135417
C9    C     C_R   0.495736 0.500464 0.260981 0.843200
C10   C     C_R   0.496231 0.499392 0.739214 0.867938
C11   C     C_R   0.279339 0.616775 0.130301 -0.213581
C12   C     C_R   0.274322 0.602476 0.867584 -0.187399
C13   C     C_R   0.175680 0.667950 0.063451 -0.143190
C14   C     C_R   0.172698 0.659816 0.932269 -0.135102
C15   C     C_R   0.381461 0.554223 0.933558 0.103720
C16   C     C_R   0.383072 0.558840 0.065664 0.097840
C17   C     C_R   0.487229 0.499928 0.128726 -0.085943
C18   C     C_R   0.486516 0.496986 0.871746 -0.099929
C19   C     C_R   0.583736 0.432453 0.065506 -0.227617
C20   C     C_R   0.585091 0.434397 0.936802 -0.248118
C21   C     C_R   0.066189 0.391898 0.528767 -0.234235
C22   C     C_R   0.939560 0.387124 0.520668 -0.249280
C23   C     C_R   0.871563 0.496729 0.471995 -0.064678
C24   C     C_R   0.125556 0.510546 0.498161 -0.074715
H1    H     H_    0.660639 0.382677 0.115904 0.145393
H2    H     H_    0.664538 0.389990 0.887916 0.158526
H3    H     H_    0.276372 0.620869 0.232216 0.137852
H4    H     H_    0.267472 0.592293 0.766565 0.122464
H5    H     H_    0.096694 0.711908 0.113640 0.136042
H6    H     H_    0.090976 0.696620 0.880709 0.129727
H7    H     H_    0.117043 0.303748 0.564705 0.170330
H8    H     H_    0.895355 0.297824 0.553840 0.161357
H9    H     H_    0.585695 0.862569 0.675808 0.149080
H10   H     H_    0.413702 0.872113 0.324245 0.142371
N1    N     N_R   0.500000 0.857200 0.500000 -0.102926
N2    N     N_R   0.500000 0.142810 0.500000 -0.097409
O1    O     O_R   0.316770 0.614620 0.499990 -0.629145
O2    O     O_R   0.683230 0.614620 0.500010 -0.611278
O3    O     O_R   0.316800 0.385290 0.500000 -0.631079
O4    O     O_R   0.683200 0.385290 0.500000 -0.635099
O5    O     O_R   0.500010 0.614690 0.316770 -0.620886
O6    O     O_R   0.499990 0.614690 0.683230 -0.618429
O7    O     O_R   0.500040 0.385360 0.316770 -0.633656
O8    O     O_R   0.499960 0.385360 0.683230 -0.628683
Zn1   Zn    Zn3+2 0.500000 0.653120 0.500000 0.924731
Zn2   Zn    Zn3+2 0.500000 0.346880 0.500000 0.920787
C25   C     C_3   0.867489 0.700647 0.320491 -0.440427
C26   C     C_3   0.819874 0.621177 0.207976 -0.336456
C27   C     C_3   0.761938 0.714960 0.107255 -0.867229
H11   H     H_    0.677646 0.768427 0.145359 0.271850
H12   H     H_    0.830485 0.789619 0.075444 0.246572
H13   H     H_    0.734258 0.656170 0.023956 0.260244
H14   H     H_    0.898893 0.562303 0.165386 0.217324
H15   H     H_    0.748925 0.550225 0.239892 0.215338
H16   H     H_    0.791009 0.762927 0.362839 0.236993
H17   H     H_    0.933650 0.770826 0.277582 0.184379
C28   C     C_3   0.105322 0.770531 0.460768 -0.410947
C29   C     C_3   0.123257 0.816532 0.597716 -0.302621
C30   C     C_3   0.148402 0.966401 0.604545 -0.901853
H18   H     H_    0.233999 0.989626 0.550670 0.269627
H19   H     H_    0.067921 0.026829 0.565708 0.253701
H20   H     H_    0.162402 0.995078 0.704529 0.250659
H21   H     H_    0.037578 0.796393 0.653298 0.209584
H22   H     H_    0.202801 0.761538 0.642540 0.243469
H23   H     H_    0.191035 0.781342 0.403291 0.213662
H24   H     H_    0.038158 0.845674 0.420673 0.191691
C31   C     C_3   0.596999 0.118499 0.725178 -0.371246
C32   C     C_3   0.729677 0.171244 0.710888 -0.296738
C33   C     C_3   0.813162 0.134845 0.824277 -0.960145
H25   H     H_    0.769722 0.171628 0.913162 0.266130
H26   H     H_    0.828485 0.024206 0.831091 0.268483
H27   H     H_    0.905384 0.181615 0.812494 0.258655
H28   H     H_    0.774947 0.128101 0.625310 0.214916
H29   H     H_    0.724823 0.281756 0.701909 0.244007
H30   H     H_    0.530577 0.186783 0.773178 0.216272
H31   H     H_    0.601808 0.036078 0.796944 0.171879
C34   C     C_3   0.398115 0.131365 0.276642 -0.377679
C35   C     C_3   0.269380 0.202947 0.293617 -0.247186
C36   C     C_3   0.173938 0.160628 0.195352 -0.951324
H32   H     H_    0.208205 0.182871 0.098590 0.271407
H33   H     H_    0.156982 0.051515 0.204742 0.260347
H34   H     H_    0.084055 0.217111 0.210190 0.259818
H35   H     H_    0.230503 0.180669 0.388485 0.227027
H36   H     H_    0.279010 0.312837 0.282872 0.239510
H37   H     H_    0.466645 0.191096 0.225347 0.210403
H38   H     H_    0.386372 0.050446 0.206294 0.170978

loop_
_geom_bond_atom_site_label_1
_geom_bond_atom_site_label_2
_ccdc_geom_bond_type
C15   C18   A    
C10   O6    A    
C3    C23   A    
C19   C20   A    
C28   H24   S    
C5    C31   S    
C34   C35   S    
O4    Zn2   S    
C21   H7    S    
C22   H8    S    
C12   H4    S    
C13   H5    S    
C4    C24   A    
C32   H29   S    
C15   C16   A    
C5    N2    A    
C33   H26   S    
O2    Zn1   S    
C35   H35   S    
C32   C33   S    
C27   H12   S    
C4    C28   S    
N2    Zn2   S    
C1    O1    A    
C34   H37   S    
C30   H18   S    
C13   C14   A    
C7    H9    S    
C14   H6    S    
O8    Zn2   S    
C5    C7    A    
C29   H22   S    
C26   H14   S    
C30   H19   S    
C9    O7    A    
C10   O8    A    
C31   C32   S    
C36   H33   S    
C35   C36   S    
C16   C17   A    
C6    C34   S    
C6    C8    A    
C32   H28   S    
O6    Zn1   S    
C33   H27   S    
C26   H15   S    
C35   H36   S    
C11   C16   A    
C2    O2    A    
C25   C26   S    
C12   C15   A    
C11   H3    S    
C27   H13   S    
C8    H10   S    
O3    Zn2   S    
C9    C17   S    
C26   C27   S    
C12   C14   A    
C34   H38   S    
C31   H30   S    
O1    Zn1   S    
C3    C4    A    
N1    Zn1   S    
C25   H16   S    
C29   H21   S    
C30   H20   S    
C7    N1    A    
C28   H23   S    
C36   H34   S    
C9    O5    A    
C29   C30   S    
C11   C13   A    
C28   C29   S    
C20   H2    S    
C10   C18   S    
C3    C25   S    
C17   C19   A    
C6    N2    A    
C18   C20   A    
C33   H25   S    
C19   H1    S    
O7    Zn2   S    
C1    O3    A    
C36   H32   S    
C2    O4    A    
C1    C24   S    
C27   H11   S    
C21   C24   A    
C2    C23   S    
O5    Zn1   S    
C22   C23   A    
C31   H31   S    
C21   C22   A    
C8    N1    A    
C25   H17   S    
