data_mof_unit_8762.cif
_audit_creation_date              2012-12-10T18:21:19-0500
_audit_creation_method            fapswitch 2.2
_symmetry_space_group_name_H-M    P1
_symmetry_Int_Tables_number       1
_space_group_crystal_system       triclinic
_cell_length_a                    14.949297
_cell_length_b                    14.003902
_cell_length_c                    10.680433
_cell_angle_alpha                 89.922859
_cell_angle_beta                  90.23744
_cell_angle_gamma                 90.014572
_cell_volume                      2235.91122755

loop_
_atom_site_label
_atom_site_type_symbol
_atom_type_description
_atom_site_fract_x
_atom_site_fract_y
_atom_site_fract_z
_atom_type_partial_charge
C1    C     C_R   0.327139 0.499895 0.499191 0.853670
C2    C     C_3   0.581169 0.528536 0.926593 -0.362150
C3    C     C_R   0.814428 0.540075 0.395522 -0.089800
C4    C     C_R   0.769496 0.498767 0.497753 -0.189773
C5    C     C_R   0.815542 0.456398 0.598384 -0.046107
C6    C     C_R   0.909003 0.451781 0.593978 0.101929
C7    C     C_R   0.954579 0.487658 0.487189 0.014481
C8    C     C_R   0.907235 0.524742 0.382712 0.001487
C9    C     C_R   0.958171 0.410061 0.692735 -0.136661
C10   C     C_R   0.050385 0.412087 0.692602 -0.173327
C11   C     C_R   0.095353 0.452753 0.592190 0.131953
C12   C     C_R   0.496445 0.499866 0.257448 0.814569
C13   C     C_R   0.048100 0.488159 0.486711 0.075361
C14   C     C_R   0.094970 0.524539 0.382105 0.028422
C15   C     C_R   0.048615 0.547508 0.270613 -0.099028
C16   C     C_R   0.954051 0.544245 0.269277 -0.062980
C17   C     C_R   0.187478 0.457511 0.595503 -0.230297
C18   C     C_R   0.232401 0.498710 0.496297 -0.041650
C19   C     C_R   0.188128 0.531190 0.390028 -0.227294
C20   C     C_R   0.560609 0.798162 0.428239 0.011925
C21   C     C_R   0.561616 0.201964 0.429997 -0.071481
C22   C     C_R   0.439475 0.797997 0.571724 -0.047557
C23   C     C_R   0.438768 0.201716 0.570415 -0.046724
C24   C     C_R   0.437852 0.898663 0.573158 0.015985
C25   C     C_R   0.437570 0.101065 0.572603 0.016017
C26   C     C_R   0.673269 0.499967 0.500041 0.862371
C27   C     C_R   0.500082 0.949340 0.499989 0.080547
C28   C     C_R   0.500130 0.050575 0.500053 0.092574
C29   C     C_R   0.562275 0.898837 0.426791 0.007879
C30   C     C_R   0.562757 0.101282 0.427626 0.012591
C31   C     C_R   0.375827 0.949618 0.645636 -0.179589
C32   C     C_R   0.375582 0.049960 0.645186 -0.188393
C33   C     C_R   0.624691 0.050338 0.354965 -0.195574
C34   C     C_R   0.624345 0.949976 0.354370 -0.156750
C35   C     C_R   0.493873 0.499679 0.741655 0.804067
C36   C     C_3   0.409403 0.559868 0.071324 -0.189003
C37   C     C_3   0.478120 0.393609 0.071163 -0.152497
C38   C     C_3   0.417236 0.572472 0.926816 -0.176899
C39   C     C_3   0.464953 0.395287 0.927271 -0.179753
C40   C     C_3   0.579739 0.540789 0.068526 -0.349584
C41   C     C_3   0.491633 0.499139 0.120654 -0.001693
C42   C     C_3   0.487282 0.498474 0.877524 -0.052950
H1    H     H_    0.086613 0.382095 0.771564 0.192724
H2    H     H_    0.327452 0.911896 0.702516 0.155840
H3    H     H_    0.327017 0.087573 0.701717 0.156325
H4    H     H_    0.348615 0.517353 0.093775 0.162338
H5    H     H_    0.417231 0.365414 0.117742 0.162478
H6    H     H_    0.444721 0.644743 0.906176 0.176767
H7    H     H_    0.513148 0.344077 0.884944 0.166456
H8    H     H_    0.603811 0.596697 0.883118 0.199073
H9    H     H_    0.630814 0.472920 0.901672 0.246489
N1    N     N_R   0.500070 0.750030 0.500050 -0.112415
N2    N     N_R   0.500070 0.249970 0.500050 -0.107175
O1    O     O_R   0.367860 0.580280 0.500020 -0.631465
O2    O     O_R   0.367860 0.419720 0.500020 -0.622040
O3    O     O_R   0.500000 0.580270 0.314790 -0.605712
O4    O     O_R   0.500000 0.419730 0.314790 -0.634394
O5    O     O_R   0.632160 0.580270 0.499960 -0.605879
O6    O     O_R   0.632160 0.419730 0.499960 -0.629937
O7    O     O_R   0.500030 0.580270 0.685200 -0.623287
O8    O     O_R   0.500030 0.419730 0.685200 -0.645609
Zn1   Zn    Zn3+2 0.500020 0.607200 0.499990 0.965350
Zn2   Zn    Zn3+2 0.500020 0.392800 0.499990 0.936848
C43   C     C_2   0.394972 0.656091 0.133180 0.452997
H10   H     H_    0.335866 0.667506 0.189865 0.055126
O9    O     O_2   0.448851 0.721020 0.121373 -0.572746
C44   C     C_2   0.551754 0.323319 0.107001 0.402014
H11   H     H_    0.535832 0.263455 0.167488 0.077828
O10   O     O_2   0.627869 0.331232 0.067323 -0.582338
H12   H     H_    0.224480 0.430194 0.675535 0.147152
H13   H     H_    0.227749 0.558730 0.313474 0.101186
C45   C     C_2   0.099540 0.568203 0.154311 0.545598
H14   H     H_    0.149050 0.624849 0.153013 0.047718
O11   O     O_2   0.088348 0.519886 0.060457 -0.486860
C46   C     C_2   0.904559 0.551568 0.148118 0.579096
H15   H     H_    0.847663 0.505201 0.130609 0.043427
O12   O     O_2   0.924245 0.611451 0.069702 -0.491774
H16   H     H_    0.607565 0.757924 0.372273 0.155718
H17   H     H_    0.609693 0.242308 0.375919 0.144424
H18   H     H_    0.392452 0.757621 0.627619 0.132213
H19   H     H_    0.390816 0.241755 0.624686 0.123162
H20   H     H_    0.673280 0.088089 0.298475 0.161497
H21   H     H_    0.672704 0.912377 0.297478 0.176794
C47   C     C_2   0.327726 0.569763 0.858711 0.348553
H22   H     H_    0.325665 0.580928 0.758323 0.067492
O13   O     O_2   0.257332 0.557612 0.914039 -0.516198
C48   C     C_2   0.373081 0.360517 0.884291 0.382586
H23   H     H_    0.358635 0.355844 0.785066 0.066169
O14   O     O_2   0.314370 0.337739 0.957681 -0.547207
H24   H     H_    0.585784 0.617755 0.092205 0.221941
H25   H     H_    0.639071 0.505077 0.110470 0.192356
C49   C     C_2   0.765013 0.608054 0.312928 0.387894
H26   H     H_    0.697808 0.591951 0.281335 0.050157
O15   O     O_2   0.797841 0.684970 0.284763 -0.537309
C50   C     C_2   0.765398 0.426685 0.712507 0.345874
H27   H     H_    0.706051 0.382559 0.704778 0.101222
O16   O     O_2   0.788113 0.455138 0.815886 -0.558065
H28   H     H_    0.926531 0.375521 0.771454 0.201216

loop_
_geom_bond_atom_site_label_1
_geom_bond_atom_site_label_2
_ccdc_geom_bond_type
O5    Zn1   S    
C48   H23   S    
C9    H28   S    
C27   C29   A    
C16   C46   S    
C11   C13   A    
C32   H3    S    
C19   H13   S    
C50   H27   S    
C24   C27   A    
C39   C48   S    
C1    O1    A    
C6    C9    A    
C7    C8    A    
C25   C28   A    
C15   C45   S    
C1    C18   S    
C47   O13   D    
C38   C42   S    
C5    C6    A    
C15   C16   A    
O7    Zn1   S    
C18   C19   A    
O8    Zn2   S    
C35   C42   S    
C2    H8    S    
O2    Zn2   S    
C36   H4    S    
C37   H5    S    
C9    C10   A    
C38   H6    S    
C25   C32   A    
C17   H12   S    
C8    C16   A    
C13   C14   A    
C36   C41   S    
C5    C50   S    
C23   N2    A    
C39   C42   S    
C20   C29   A    
C31   H2    S    
C44   H11   S    
C47   H22   S    
C45   O11   D    
C3    C8    A    
C2    H9    S    
C45   H14   S    
O1    Zn1   S    
C29   C34   A    
C35   O7    A    
C44   O10   D    
C43   O9    D    
C46   H15   S    
C12   C41   S    
C26   O5    A    
C31   C32   A    
C21   H17   S    
C49   O15   D    
C17   C18   A    
C35   O8    A    
C46   O12   D    
C12   O3    A    
C12   O4    A    
C40   C41   S    
C39   H7    S    
C48   O14   D    
O3    Zn1   S    
C34   H21   S    
C3    C4    A    
C22   N1    A    
C33   H20   S    
C11   C17   A    
C23   H19   S    
C30   C33   A    
C38   C47   S    
C10   H1    S    
C14   C19   A    
O4    Zn2   S    
C4    C5    A    
C4    C26   S    
C50   O16   D    
C6    C7    A    
C21   C30   A    
O6    Zn2   S    
C20   H16   S    
C43   H10   S    
C36   C38   S    
C1    O2    A    
C24   C31   A    
C22   H18   S    
C37   C39   S    
N1    Zn1   S    
C21   N2    A    
N2    Zn2   S    
C2    C42   S    
C37   C44   S    
C28   C30   A    
C49   H26   S    
C33   C34   A    
C22   C24   A    
C23   C25   A    
C40   H25   S    
C37   C41   S    
C10   C11   A    
C2    C40   S    
C7    C13   A    
C20   N1    A    
C27   C28   A    
C14   C15   A    
C3    C49   S    
C26   O6    A    
C40   H24   S    
C36   C43   S    
