data_mof_unit_28807.cif
_audit_creation_date              2012-12-11T14:50:39-0500
_audit_creation_method            fapswitch 2.2
_symmetry_space_group_name_H-M    P1
_symmetry_Int_Tables_number       1
_space_group_crystal_system       triclinic
_cell_length_a                    20.870163
_cell_length_b                    7.08518
_cell_length_c                    20.191015
_cell_angle_alpha                 90.000102
_cell_angle_beta                  101.656232
_cell_angle_gamma                 89.998969
_cell_volume                      2924.05120253

loop_
_atom_site_label
_atom_site_type_symbol
_atom_type_description
_atom_site_fract_x
_atom_site_fract_y
_atom_site_fract_z
_atom_type_partial_charge
O1    O     O_R   0.423690 0.494470 0.435930 -0.536157
O2    O     O_R   0.576310 0.994470 0.564070 -0.536159
O3    O     O_R   0.556070 0.822310 0.435760 -0.545985
O4    O     O_R   0.443930 0.322310 0.564240 -0.545984
C1    C     C_R   0.575360 0.655326 0.420413 0.773772
C2    C     C_R   0.424643 0.155327 0.579589 0.773786
O5    O     O_R   0.422940 0.824080 0.428040 -0.511559
O6    O     O_R   0.577060 0.324080 0.571960 -0.511565
O7    O     O_R   0.442240 0.995960 0.556300 -0.519553
O8    O     O_R   0.557760 0.495960 0.443700 -0.519565
C3    C     C_R   0.398469 0.656169 0.411101 0.772528
C4    C     C_R   0.601531 0.156167 0.588898 0.772503
O9    O     O_3   0.506490 0.661310 0.542090 -0.375292
O10   O     O_3   0.493510 0.161310 0.457910 -0.375291
V1    V     V_3+5 0.498800 0.935560 0.492190 1.626693
V2    V     V_3+5 0.501200 0.435560 0.507810 1.626684
C5    C     C_R   0.836661 0.080347 0.858375 -0.211559
C6    C     C_R   0.163337 0.580338 0.141626 -0.211548
C7    C     C_R   0.663417 0.151945 0.640266 -0.196132
C8    C     C_R   0.336584 0.651951 0.359732 -0.196145
C9    C     C_R   0.774489 0.259954 0.682875 -0.145182
C10   C     C_R   0.225509 0.759949 0.317125 -0.145190
C11   C     C_R   0.718978 0.253910 0.630861 0.453102
C12   C     C_R   0.281022 0.753917 0.369138 0.453082
C13   C     C_R   0.665661 0.054564 0.701329 -0.140405
C14   C     C_R   0.334340 0.554567 0.298670 -0.140389
C15   C     C_R   0.722180 0.057553 0.754139 -0.055595
C16   C     C_R   0.277822 0.557555 0.245860 -0.055618
C17   C     C_R   0.777204 0.163282 0.744422 -0.015095
C18   C     C_R   0.222794 0.663273 0.255578 -0.015086
C19   C     C_R   0.834773 0.169928 0.795493 0.212089
C20   C     C_R   0.165223 0.669903 0.204511 0.212093
C21   C     C_R   0.781242 0.976916 0.868683 0.087764
C22   C     C_R   0.218759 0.476913 0.131317 0.087769
C23   C     C_R   0.725023 0.958940 0.816120 0.412651
C24   C     C_R   0.274981 0.458947 0.183878 0.412651
H1    H     H_    0.815859 0.342715 0.674967 0.210123
H2    H     H_    0.184137 0.842706 0.325032 0.210114
H3    H     H_    0.621626 0.982603 0.707368 0.197872
H4    H     H_    0.378375 0.482599 0.292632 0.197895
C25   C     C_3   0.262021 0.264038 0.816124 -0.354447
C26   C     C_3   0.737988 0.764042 0.183893 -0.354426
C27   C     C_3   0.252019 0.912338 0.800967 0.273833
C28   C     C_3   0.748012 0.412354 0.199066 0.273693
C29   C     C_3   0.298473 0.908574 0.747120 0.059744
C30   C     C_3   0.701597 0.408566 0.252948 0.059737
H5    H     H_    0.363439 0.235468 0.802888 0.236524
H6    H     H_    0.636576 0.735357 0.197136 0.236598
H7    H     H_    0.286283 0.252373 0.870142 0.262541
H8    H     H_    0.713725 0.752375 0.129875 0.262549
H9    H     H_    0.216577 0.794312 0.788187 0.101826
H10   H     H_    0.783463 0.294335 0.211823 0.101810
H11   H     H_    0.275408 0.809876 0.706281 0.125289
H12   H     H_    0.724717 0.309947 0.293788 0.125401
C31   C     C_1   0.380903 0.144929 0.626816 -0.130179
C32   C     C_1   0.619112 0.644929 0.373198 -0.130189
C33   C     C_3   0.211504 0.102706 0.795157 -0.056239
C34   C     C_3   0.788516 0.602736 0.204862 -0.056203
C35   C     C_3   0.314304 0.262691 0.771001 -0.313817
C36   C     C_3   0.685707 0.762653 0.229019 -0.313821
C37   C     C_3   0.298979 0.110759 0.714429 0.097151
C38   C     C_3   0.701059 0.610774 0.285609 0.097163
C39   C     C_3   0.228953 0.146517 0.673293 -0.441144
C40   C     C_3   0.771083 0.646630 0.326732 -0.441223
C41   C     C_3   0.175834 0.142778 0.718751 0.610672
C42   C     C_3   0.824195 0.642862 0.281262 0.610720
C43   C     C_1   0.344577 0.130501 0.666629 0.016732
C44   C     C_1   0.655451 0.630503 0.333398 0.016980
C45   C     C_1   0.163302 0.097107 0.841070 0.127360
C46   C     C_1   0.836707 0.597124 0.158938 0.127339
C47   C     C_1   0.123618 0.089438 0.877746 -0.111625
C48   C     C_1   0.876386 0.589444 0.122256 -0.111665
H13   H     H_    0.228534 0.283908 0.646367 0.173813
H14   H     H_    0.771486 0.784056 0.353632 0.173801
H15   H     H_    0.237157 0.403132 0.812372 0.178431
H16   H     H_    0.762842 0.903147 0.187646 0.178437
H17   H     H_    0.315993 0.404847 0.747964 0.145924
H18   H     H_    0.683995 0.904821 0.252040 0.145941
H19   H     H_    0.218070 0.042319 0.631378 0.214581
H20   H     H_    0.781985 0.542492 0.368666 0.214557
O11   O     O_R   0.942280 0.741210 0.056360 -0.546161
O12   O     O_R   0.057720 0.241210 0.943640 -0.546160
O13   O     O_R   0.077070 0.409690 0.071960 -0.541341
O14   O     O_R   0.922930 0.909690 0.928040 -0.541344
C49   C     C_R   0.101686 0.577610 0.088979 0.741065
C50   C     C_R   0.898313 0.077613 0.911022 0.741069
O15   O     O_R   0.943940 0.411580 0.064250 -0.524764
O16   O     O_R   0.056060 0.911580 0.935750 -0.524755
O17   O     O_R   0.923670 0.239840 0.935920 -0.541387
O18   O     O_R   0.076330 0.739840 0.064080 -0.541379
C51   C     C_R   0.923502 0.580079 0.078289 0.705804
C52   C     C_R   0.076497 0.080077 0.921710 0.705822
O19   O     O_3   0.993540 0.572620 0.957940 -0.373202
O20   O     O_3   0.006460 0.072620 0.042060 -0.373199
V3    V     V_3+5 0.001200 0.298330 0.007800 1.427303
V4    V     V_3+5 0.998800 0.798330 0.992200 1.427318
N1    N     N_2   0.892282 0.254384 0.780765 -0.550398
H21   H     H_    0.920495 0.333763 0.818408 0.270117
C53   C     C_3   0.929483 0.134497 0.744343 -0.443253
H22   H     H_    0.970528 0.067856 0.780349 0.190224
H23   H     H_    0.948883 0.221277 0.707148 0.232072
H24   H     H_    0.898713 0.021266 0.715836 0.223072
N2    N     N_2   0.107708 0.754309 0.219245 -0.550424
H25   H     H_    0.079483 0.833667 0.181604 0.270097
C54   C     C_3   0.070526 0.634391 0.255677 -0.443205
H26   H     H_    0.029474 0.567757 0.219679 0.190269
H27   H     H_    0.051135 0.721141 0.292886 0.232133
H28   H     H_    0.101307 0.521149 0.284165 0.223048
S1    S     S_3+6 0.294670 0.863874 0.888245 -0.014582
O21   O     O_2   0.358481 0.969430 0.904106 -0.279136
O22   O     O_2   0.254536 0.919287 0.939058 -0.344259
O23   O     O_3   0.310027 0.631453 0.897214 -0.548357
H29   H     H_    0.345717 0.620151 0.937607 0.388690
S2    S     S_3+6 0.705322 0.363913 0.111800 -0.014620
O24   O     O_2   0.641494 0.469397 0.095989 -0.279203
O25   O     O_2   0.745413 0.419431 0.060959 -0.344181
O26   O     O_3   0.689997 0.131480 0.102818 -0.548376
H30   H     H_    0.654303 0.120165 0.062428 0.388682
N3    N     N_2   0.363641 0.831158 0.775277 -0.431828
H31   H     H_    0.360623 0.712087 0.803553 0.313514
C55   C     C_3   0.407313 0.788285 0.729734 -0.443029
H32   H     H_    0.439995 0.668524 0.749831 0.208033
H33   H     H_    0.439849 0.910295 0.726853 0.222055
H34   H     H_    0.379662 0.747320 0.678779 0.183648
N4    N     N_2   0.636430 0.331031 0.224870 -0.431913
H35   H     H_    0.639416 0.212156 0.196490 0.313696
C56   C     C_3   0.592906 0.287704 0.270524 -0.443318
H36   H     H_    0.560352 0.167590 0.250526 0.207675
H37   H     H_    0.560236 0.409386 0.273432 0.222124
H38   H     H_    0.620681 0.247073 0.321464 0.183861
N5    N     N_2   0.143561 0.328908 0.711238 -0.502618
H39   H     H_    0.173626 0.443501 0.709633 0.260238
C57   C     C_3   0.089936 0.374550 0.744080 -0.390498
H40   H     H_    0.109033 0.436426 0.794756 0.161711
H41   H     H_    0.059983 0.249439 0.749150 0.217799
H42   H     H_    0.058012 0.481053 0.713341 0.239283
N6    N     N_2   0.856463 0.828999 0.288755 -0.502607
H43   H     H_    0.826398 0.943596 0.290365 0.260201
C58   C     C_3   0.910075 0.874632 0.255895 -0.390550
H44   H     H_    0.890964 0.936487 0.205218 0.161703
H45   H     H_    0.940030 0.749523 0.250824 0.217800
H46   H     H_    0.942001 0.981150 0.286621 0.239275
S3    S     S_3+6 0.115546 0.962184 0.684914 -0.034529
O27   O     O_2   0.078155 0.896262 0.736851 -0.376112
O28   O     O_2   0.068157 0.044347 0.625877 -0.279658
O29   O     O_3   0.151974 0.773975 0.657706 -0.550442
H47   H     H_    0.116150 0.702866 0.628576 0.388950
S4    S     S_3+6 0.884494 0.462296 0.315105 -0.034548
O30   O     O_2   0.921871 0.396339 0.263161 -0.376167
O31   O     O_2   0.931893 0.544511 0.374123 -0.279648
O32   O     O_3   0.848088 0.274099 0.342347 -0.550420
H48   H     H_    0.883929 0.202946 0.371435 0.388957
N7    N     N_2   0.781624 0.889308 0.932221 -0.497156
H49   H     H_    0.819637 0.797158 0.948686 0.262765
C59   C     C_3   0.768398 0.014354 0.984363 -0.287030
H50   H     H_    0.764694 0.930457 0.029884 0.203934
H51   H     H_    0.721314 0.089389 0.966567 0.243788
H52   H     H_    0.808500 0.118855 0.998497 0.162596
N8    N     N_2   0.218375 0.389285 0.067781 -0.497153
H53   H     H_    0.180368 0.297110 0.051329 0.262774
C60   C     C_3   0.231581 0.514318 0.015628 -0.286978
H54   H     H_    0.235293 0.430403 0.970114 0.203928
H55   H     H_    0.278656 0.589404 0.033415 0.243799
H56   H     H_    0.191465 0.618777 0.001488 0.162596
S5    S     S_3+6 0.659319 0.807614 0.827307 0.050359
O33   O     O_2   0.600531 0.927225 0.830401 -0.290059
O34   O     O_2   0.642327 0.676332 0.767788 -0.350251
O35   O     O_3   0.676653 0.675887 0.898044 -0.420733
H57   H     H_    0.704241 0.571137 0.887139 0.359698
S6    S     S_3+6 0.340696 0.307664 0.172683 0.050448
O36   O     O_2   0.399477 0.427320 0.169614 -0.289969
O37   O     O_2   0.357685 0.176331 0.232188 -0.350228
O38   O     O_3   0.323386 0.176000 0.101929 -0.420737
H58   H     H_    0.295846 0.071130 0.112830 0.359766
S7    S     S_3+6 0.721542 0.375208 0.554597 -0.001774
O39   O     O_2   0.687042 0.262584 0.494821 -0.357287
O40   O     O_2   0.688293 0.563056 0.555557 -0.339420
O41   O     O_3   0.799575 0.410800 0.547533 -0.488123
H59   H     H_    0.796558 0.479800 0.504334 0.379479
S8    S     S_3+6 0.278458 0.875232 0.445398 -0.001756
O42   O     O_2   0.312960 0.762619 0.505177 -0.357213
O43   O     O_2   0.311704 0.063078 0.444432 -0.339446
O44   O     O_3   0.200425 0.910828 0.452464 -0.488123
H60   H     H_    0.203443 0.979977 0.495634 0.379483

loop_
_geom_bond_atom_site_label_1
_geom_bond_atom_site_label_2
_ccdc_geom_bond_type
S3    O29   S    
C39   C41   S    
O4    V2    S    
S5    O33   D    
O15   C51   A    
C59   H51   S    
C30   N4    S    
O1    C3    A    
S4    O32   S    
C2    C31   S    
O2    C4    A    
C26   H16   S    
C35   H17   S    
C2    O7    A    
O16   V4    S    
N1    H21   S    
S7    O40   D    
C39   H19   S    
O38   H58   S    
O5    C3    A    
C54   H27   S    
C36   H18   S    
S6    O37   D    
C30   C38   S    
O14   C50   A    
S1    O22   D    
C41   S3    S    
C58   H46   S    
C21   N7    S    
C11   S7    S    
S6    O36   D    
S3    O27   D    
C10   H2    S    
O12   C52   A    
C15   C17   A    
C36   C38   S    
O14   V4    S    
C45   C47   T    
C8    C12   A    
C55   H34   S    
C38   C40   S    
C1    C32   S    
C60   H55   S    
C34   C42   S    
C47   C52   S    
O16   C52   A    
S8    O43   D    
O15   V3    S    
C12   S8    S    
C57   H42   S    
O32   H48   S    
N8    C60   S    
H6    C36   S    
N7    C59   S    
C42   S4    S    
S8    O44   S    
C22   N8    S    
C28   H10   S    
O6    V2    S    
O5    V1    S    
C29   H11   S    
O19   V3    S    
C59   H52   S    
C40   H20   S    
C26   C34   S    
C5    C21   A    
C25   H7    S    
O23   H29   S    
C41   N5    S    
C28   C30   S    
C60   H54   S    
S7    O41   S    
N3    C55   S    
C54   H28   S    
C3    C8    S    
C35   C37   S    
C6    C49   S    
C5    C50   S    
O41   H59   S    
S4    O30   D    
C25   C35   S    
O4    C2    A    
N1    C53   S    
S1    O23   S    
C28   C34   S    
C48   C51   S    
C34   C46   S    
C39   H13   S    
C15   C23   A    
C32   C44   T    
C9    C17   A    
C40   C42   S    
O17   V3    S    
C7    C11   A    
O44   H60   S    
C56   H37   S    
C25   H15   S    
C27   C29   S    
C37   C43   S    
C31   C43   T    
N8    H53   S    
O6    C4    A    
O13   V3    S    
C30   H12   S    
C37   C39   S    
C20   N2    S    
N2    C54   S    
O1    V2    S    
N3    H31   S    
O20   V4    S    
O2    V1    S    
C6    C22   A    
C55   H32   S    
C26   H8    S    
O35   H57   S    
C53   H23   S    
O19   V4    S    
C9    C11   A    
N4    H35   S    
C5    C19   A    
C10   C12   A    
C49   O18   A    
C6    C20   A    
C29   N3    S    
C26   C36   S    
C56   H36   S    
O3    C1    A    
N2    H25   S    
C60   H56   S    
O3    V1    S    
S8    O42   D    
C57   H41   S    
O29   H47   S    
C54   H26   S    
S3    O28   D    
O12   V3    S    
C10   C18   A    
O13   C49   A    
N6    C58   S    
C14   C16   A    
S4    O31   D    
N5    C57   S    
C50   O17   A    
S2    O25   D    
C58   H44   S    
O18   V4    S    
S5    O35   S    
C13   C15   A    
N6    H43   S    
C24   S6    S    
C53   H22   S    
C38   C44   S    
C16   C18   A    
O7    V1    S    
C56   H38   S    
C25   C33   S    
C1    O8    A    
C17   C19   A    
S7    O39   D    
O8    V2    S    
O26   H30   S    
C13   H3    S    
C18   C20   A    
C58   H45   S    
C14   H4    S    
C57   H40   S    
C42   N6    S    
C8    C14   A    
C27   H9    S    
C4    C7    S    
C29   C37   S    
C21   C23   A    
C22   C24   A    
S2    O24   D    
C19   N1    S    
H5    C35   S    
O20   V3    S    
C7    C13   A    
C55   H33   S    
S2    O26   S    
C27   C33   S    
C28   S2    S    
O11   C51   A    
C53   H24   S    
C9    H1    S    
C16   C24   A    
S5    O34   D    
O11   V4    S    
O9    V2    S    
C59   H50   S    
N4    C56   S    
C40   H14   S    
O10   V1    S    
C23   S5    S    
C46   C48   T    
C27   S1    S    
C33   C45   S    
N7    H49   S    
S1    O21   D    
N5    H39   S    
C33   C41   S    
S6    O38   S    
