data_mof_unit_64612.cif
_audit_creation_date              2012-12-10T20:50:01-0500
_audit_creation_method            fapswitch 2.2
_symmetry_space_group_name_H-M    P1
_symmetry_Int_Tables_number       1
_space_group_crystal_system       triclinic
_cell_length_a                    19.18243
_cell_length_b                    19.218823
_cell_length_c                    19.191546
_cell_angle_alpha                 94.828568
_cell_angle_beta                  90.044684
_cell_angle_gamma                 85.74164
_cell_volume                      7030.54762331

loop_
_atom_site_label
_atom_site_type_symbol
_atom_type_description
_atom_site_fract_x
_atom_site_fract_y
_atom_site_fract_z
_atom_type_partial_charge
C1    C     C_R   0.492696 0.492547 0.310598 0.807797
C2    C     C_R   0.128391 0.481011 0.567880 -0.193622
C3    C     C_R   0.509018 0.509925 0.766554 -0.151546
C4    C     C_R   0.507215 0.507320 0.689552 0.846530
C5    C     C_R   0.471068 0.463016 0.800776 -0.294569
C6    C     C_R   0.470751 0.464605 0.873305 -0.140810
C7    C     C_R   0.508677 0.513477 0.913647 0.259463
C8    C     C_R   0.546455 0.560310 0.879650 -0.275174
C9    C     C_R   0.547032 0.558733 0.806712 0.618681
C10   C     C_R   0.439207 0.531243 0.126831 -0.043740
C11   C     C_R   0.444574 0.536041 0.200025 -0.252151
C12   C     C_R   0.912945 0.489420 0.485476 0.339364
C13   C     C_R   0.480394 0.477576 0.087383 0.253624
C14   C     C_R   0.488761 0.488016 0.233762 -0.030367
C15   C     C_R   0.528033 0.434591 0.193734 -0.202931
C16   C     C_R   0.492847 0.689864 0.508184 0.796100
C17   C     C_R   0.523485 0.429333 0.121222 -0.195379
C18   C     C_R   0.507442 0.233291 0.487661 -0.143247
C19   C     C_R   0.482161 0.199457 0.543659 0.607287
C20   C     C_R   0.479726 0.127069 0.537960 -0.248562
C21   C     C_R   0.502563 0.086883 0.476230 0.240360
C22   C     C_R   0.527265 0.120668 0.420458 -0.185315
C23   C     C_R   0.877661 0.446247 0.437135 -0.189210
C24   C     C_R   0.530404 0.193260 0.426240 -0.296702
C25   C     C_R   0.466733 0.876220 0.460048 -0.158854
C26   C     C_R   0.464308 0.803628 0.457071 -0.213831
C27   C     C_R   0.495657 0.912472 0.518801 0.316397
C28   C     C_R   0.507148 0.310053 0.492167 0.847213
C29   C     C_R   0.491365 0.766497 0.512166 -0.006622
C30   C     C_R   0.519052 0.802991 0.571003 -0.194914
C31   C     C_R   0.520309 0.875468 0.574487 -0.182402
C32   C     C_R   0.310619 0.507862 0.508011 0.805271
C33   C     C_R   0.689458 0.492263 0.492236 0.800677
C34   C     C_R   0.804837 0.446446 0.439207 -0.206531
C35   C     C_R   0.766221 0.490426 0.489681 -0.009423
C36   C     C_R   0.801505 0.533884 0.538021 -0.214880
C37   C     C_R   0.873932 0.533567 0.536093 -0.137613
C38   C     C_2   0.389335 0.581583 0.093788 0.928600
C39   C     C_2   0.079146 0.603808 0.426167 0.925687
C40   C     C_R   0.119837 0.557814 0.472738 -0.042913
C41   C     C_R   0.193087 0.552347 0.467857 -0.252518
C42   C     C_R   0.087621 0.520489 0.522965 0.254595
C43   C     C_R   0.233838 0.511857 0.512542 -0.032521
C44   C     C_R   0.200865 0.476321 0.562594 -0.195246
F1    F     F_    0.584119 0.605348 0.775926 -0.642827
F2    F     F_    0.460177 0.236070 0.604247 -0.646216
H1    H     H_    0.218609 0.580563 0.429815 0.214428
H2    H     H_    0.549506 0.218190 0.382192 0.192432
H3    H     H_    0.539596 0.775500 0.614480 0.182338
H4    H     H_    0.459324 0.102668 0.581724 0.184346
H5    H     H_    0.541696 0.902922 0.620305 0.155170
H6    H     H_    0.906790 0.412287 0.397750 0.151143
H7    H     H_    0.778836 0.412568 0.401189 0.170722
H8    H     H_    0.231051 0.445127 0.598003 0.179714
H9    H     H_    0.899010 0.568251 0.574060 0.165703
H10   H     H_    0.103629 0.453159 0.606724 0.158724
H11   H     H_    0.773159 0.568454 0.577492 0.183869
H12   H     H_    0.575586 0.598306 0.910000 0.179906
H13   H     H_    0.413444 0.576696 0.230995 0.213245
H14   H     H_    0.329569 0.672901 0.104508 0.355061
H15   H     H_    0.078514 0.656975 0.339757 0.355000
H16   H     H_    0.562115 0.396562 0.218421 0.171793
H17   H     H_    0.440428 0.427743 0.897456 0.179169
H18   H     H_    0.554356 0.387931 0.090986 0.156412
H19   H     H_    0.441278 0.424834 0.771494 0.213236
H20   H     H_    0.442572 0.776464 0.411281 0.172679
H21   H     H_    0.445775 0.903864 0.416875 0.157735
H22   H     H_    0.544522 0.090543 0.372537 0.163878
N1    N     N_2   0.987037 0.487764 0.480853 -0.167043
N2    N     N_2   0.014398 0.522438 0.530008 -0.169608
N3    N     N_2   0.509389 0.517887 0.987984 -0.146866
N4    N     N_2   0.479248 0.470678 0.013706 -0.162456
N5    N     N_2   0.500301 0.012963 0.468278 -0.176933
N6    N     N_2   0.498952 0.986068 0.525128 -0.188723
O1    O     O_3   0.500000 0.500000 0.500000 -0.494856
O2    O     O_R   0.340900 0.545940 0.467290 -0.640883
O3    O     O_R   0.655960 0.450920 0.450930 -0.645369
O4    O     O_R   0.347180 0.467040 0.545670 -0.643298
O5    O     O_R   0.655970 0.536100 0.536110 -0.638257
O6    O     O_2   0.369833 0.569219 0.033638 -0.602010
O7    O     O_R   0.363327 0.643070 0.132291 -0.804851
O8    O     O_2   0.018261 0.623799 0.439605 -0.604873
O9    O     O_R   0.111172 0.625585 0.367086 -0.803047
O10   O     O_R   0.536480 0.656330 0.545680 -0.635885
O11   O     O_R   0.545300 0.340270 0.450920 -0.657219
O12   O     O_R   0.451550 0.536740 0.347440 -0.640477
O13   O     O_R   0.466670 0.466660 0.655960 -0.644836
O14   O     O_R   0.536460 0.451300 0.340640 -0.648952
O15   O     O_R   0.545320 0.545300 0.655970 -0.578554
O16   O     O_R   0.451560 0.656600 0.467300 -0.640326
O17   O     O_R   0.466660 0.346810 0.536100 -0.576868
Zn1   Zn    Zn3+2 0.558430 0.558420 0.558430 1.019861
Zn2   Zn    Zn3+2 0.437090 0.558800 0.446440 0.983478
Zn3   Zn    Zn3+2 0.446060 0.446060 0.558420 1.016048
Zn4   Zn    Zn3+2 0.558420 0.436720 0.436720 0.969088

loop_
_geom_bond_atom_site_label_1
_geom_bond_atom_site_label_2
_ccdc_geom_bond_type
C12   N1    S    
C16   O16   A    
N5    N6    D    
C35   C36   A    
C25   H21   S    
C42   N2    S    
C19   F2    S    
O1    Zn4   S    
C7    C8    A    
C4    O13   A    
C9    F1    S    
C12   C23   A    
C18   C24   A    
C36   C37   A    
C2    C42   A    
C18   C19   A    
C17   H18   S    
C7    N3    S    
C5    C6    A    
C11   C14   A    
O13   Zn3   S    
C21   N5    S    
C16   O10   A    
C34   C35   A    
C12   C37   A    
C20   H4    S    
C8    H12   S    
C15   H16   S    
C19   C20   A    
C2    C44   A    
C8    C9    A    
C27   N6    S    
C1    O14   A    
C40   C42   A    
O14   Zn4   S    
C21   C22   A    
C41   C43   A    
C11   H13   S    
C27   C31   A    
C24   H2    S    
C18   C28   S    
C5    H19   S    
C36   H11   S    
H15   O9    S    
C39   C40   S    
C33   O5    A    
C25   C26   A    
O3    Zn4   S    
C26   H20   S    
C6    H17   S    
C43   C44   A    
C29   C30   A    
C3    C9    A    
O12   Zn2   S    
O2    Zn2   S    
H14   O7    S    
C23   C34   A    
C41   H1    S    
O15   Zn1   S    
C22   H22   S    
O5    Zn1   S    
O1    Zn1   S    
C26   C29   A    
C40   C41   A    
C30   H3    S    
C38   O7    S    
C22   C24   A    
C3    C4    S    
O1    Zn2   S    
O16   Zn2   S    
C4    O15   A    
C1    O12   A    
C15   C17   A    
C39   O8    D    
C31   H5    S    
C3    C5    A    
C10   C13   A    
C32   O2    A    
C6    C7    A    
C13   N4    S    
C25   C27   A    
C13   C17   A    
C10   C38   S    
C16   C29   S    
C39   O9    S    
N3    N4    D    
C2    H10   S    
O17   Zn3   S    
O11   Zn4   S    
C33   O3    A    
C23   H6    S    
C30   C31   A    
C38   O6    D    
O4    Zn3   S    
C33   C35   S    
C32   C43   S    
C28   O17   A    
N1    N2    D    
C10   C11   A    
C32   O4    A    
C37   H9    S    
C44   H8    S    
C20   C21   A    
C34   H7    S    
C28   O11   A    
C14   C15   A    
C1    C14   S    
O10   Zn1   S    
O1    Zn3   S    
