data_mof_unit_40529.cif
_audit_creation_date              2013-03-05T16:00:55-0500
_audit_creation_method            fapswitch 2.2
_symmetry_space_group_name_H-M    P1
_symmetry_Int_Tables_number       1
_space_group_crystal_system       triclinic
_cell_length_a                    21.240972
_cell_length_b                    21.218129
_cell_length_c                    14.003102
_cell_angle_alpha                 89.952083
_cell_angle_beta                  89.985602
_cell_angle_gamma                 90.008727
_cell_volume                      6311.10714783

loop_
_atom_site_label
_atom_site_type_symbol
_atom_site_description
_atom_site_fract_x
_atom_site_fract_y
_atom_site_fract_z
_atom_type_partial_charge
O1    O     O_R   0.066090 0.433930 0.580280 -0.629692
O2    O     O_R   0.933910 0.566070 0.419720 -0.628793
O3    O     O_R   0.933910 0.566070 0.580280 -0.629480
O4    O     O_R   0.066090 0.433930 0.419720 -0.629721
O5    O     O_R   0.933910 0.433930 0.419720 -0.629344
O6    O     O_R   0.066090 0.566070 0.580280 -0.629538
O7    O     O_R   0.066090 0.566070 0.419720 -0.628680
O8    O     O_R   0.933910 0.433930 0.580280 -0.629369
O9    O     O_R   0.566090 0.933930 0.580280 -0.628793
O10   O     O_R   0.433910 0.066070 0.419720 -0.629692
O11   O     O_R   0.433910 0.066070 0.580280 -0.629721
O12   O     O_R   0.566090 0.933930 0.419720 -0.629480
O13   O     O_R   0.433910 0.933930 0.419720 -0.629538
O14   O     O_R   0.566090 0.066070 0.580280 -0.629344
O15   O     O_R   0.566090 0.066070 0.419720 -0.629369
O16   O     O_R   0.433910 0.933930 0.580280 -0.628680
C1    C     C_R   0.086928 0.413442 0.500003 0.897869
C2    C     C_R   0.913067 0.586541 0.499967 0.897119
C3    C     C_R   0.913078 0.413447 0.500021 0.897581
C4    C     C_R   0.086926 0.586544 0.499955 0.897390
C5    C     C_R   0.586933 0.913459 0.500033 0.897119
C6    C     C_R   0.413071 0.086558 0.499997 0.897869
C7    C     C_R   0.413074 0.913455 0.500045 0.897390
C8    C     C_R   0.586922 0.086553 0.499979 0.897581
Zn1   Zn    Zn3+2 0.000000 0.500000 0.607200 0.940786
Zn2   Zn    Zn3+2 0.000000 0.500000 0.392800 0.944020
Zn3   Zn    Zn3+2 0.500000 0.000000 0.607200 0.944020
Zn4   Zn    Zn3+2 0.500000 0.000000 0.392800 0.940786
C9    C     C_R   0.147353 0.667454 0.583399 -0.240613
C10   C     C_R   0.851911 0.333117 0.583948 -0.240658
C11   C     C_R   0.852623 0.667470 0.583408 -0.240564
C12   C     C_R   0.149910 0.334921 0.584764 -0.240679
C13   C     C_R   0.648090 0.166882 0.416051 -0.240658
C14   C     C_R   0.352647 0.832546 0.416601 -0.240612
C15   C     C_R   0.350090 0.165079 0.415236 -0.240679
C16   C     C_R   0.647377 0.832530 0.416592 -0.240564
C17   C     C_R   0.135126 0.634100 0.499823 -0.077868
C18   C     C_R   0.864864 0.365898 0.499975 -0.078065
C19   C     C_R   0.864853 0.634087 0.499851 -0.077828
C20   C     C_R   0.135146 0.365878 0.499917 -0.078687
C21   C     C_R   0.635136 0.134101 0.500025 -0.078066
C22   C     C_R   0.364874 0.865899 0.500177 -0.077869
C23   C     C_R   0.364854 0.134122 0.500083 -0.078687
C24   C     C_R   0.635147 0.865913 0.500149 -0.077828
C25   C     C_R   0.168652 0.646094 0.416044 -0.250942
C26   C     C_R   0.832066 0.353320 0.415770 -0.251494
C27   C     C_R   0.831324 0.646051 0.416088 -0.251013
C28   C     C_R   0.166151 0.351452 0.414819 -0.251781
C29   C     C_R   0.667935 0.146679 0.584230 -0.251494
C30   C     C_R   0.331348 0.853906 0.583956 -0.250941
C31   C     C_R   0.333849 0.148548 0.585181 -0.251781
C32   C     C_R   0.668676 0.853949 0.583912 -0.251013
C33   C     C_R   0.215081 0.692375 0.414369 0.108337
C34   C     C_R   0.785678 0.307031 0.414009 0.107753
C35   C     C_R   0.784904 0.692334 0.414403 0.108359
C36   C     C_R   0.212472 0.305121 0.413053 0.107540
C37   C     C_R   0.714324 0.192967 0.585990 0.107752
C38   C     C_R   0.284919 0.807624 0.585631 0.108337
C39   C     C_R   0.287528 0.194879 0.586947 0.107540
C40   C     C_R   0.715096 0.807666 0.585596 0.108359
C41   C     C_R   0.227059 0.726555 0.499501 0.012659
C42   C     C_R   0.772944 0.273437 0.499537 0.012918
C43   C     C_R   0.772934 0.726550 0.499509 0.012630
C44   C     C_R   0.227051 0.273421 0.499510 0.013219
C45   C     C_R   0.727058 0.226561 0.500462 0.012919
C46   C     C_R   0.272941 0.773445 0.500499 0.012659
C47   C     C_R   0.272949 0.226579 0.500490 0.013219
C48   C     C_R   0.727066 0.773450 0.500491 0.012630
C49   C     C_R   0.193050 0.713779 0.583860 0.080805
C50   C     C_R   0.806211 0.286782 0.584356 0.081339
C51   C     C_R   0.806937 0.713802 0.583855 0.080828
C52   C     C_R   0.195624 0.288627 0.585207 0.081325
C53   C     C_R   0.693791 0.213216 0.415643 0.081340
C54   C     C_R   0.306950 0.786221 0.416140 0.080805
C55   C     C_R   0.304376 0.211373 0.414793 0.081324
C56   C     C_R   0.693063 0.786198 0.416144 0.080828
C57   C     C_R   0.249660 0.705422 0.330222 0.198522
C58   C     C_R   0.751885 0.293419 0.329369 0.197982
C59   C     C_R   0.750329 0.705351 0.330271 0.198518
C60   C     C_R   0.244403 0.289624 0.327503 0.197313
C61   C     C_R   0.748117 0.206578 0.670630 0.197983
C62   C     C_R   0.250340 0.794578 0.669778 0.198522
C63   C     C_R   0.255597 0.210376 0.672497 0.197313
C64   C     C_R   0.749672 0.794649 0.669729 0.198519
C65   C     C_R   0.793849 0.253696 0.668585 -0.218439
C66   C     C_R   0.204655 0.747428 0.667686 -0.218146
C67   C     C_R   0.209826 0.257432 0.670377 -0.218555
C68   C     C_R   0.795339 0.747491 0.667654 -0.218157
C69   C     C_R   0.295345 0.752571 0.332314 -0.218146
C70   C     C_R   0.706154 0.246302 0.331414 -0.218439
C71   C     C_R   0.704661 0.752509 0.332346 -0.218158
C72   C     C_R   0.290174 0.242568 0.329623 -0.218555
H1    H     H_    0.120804 0.657836 0.648004 0.159806
H2    H     H_    0.877875 0.343193 0.648913 0.159165
H3    H     H_    0.879168 0.657876 0.648000 0.159758
H4    H     H_    0.125415 0.346428 0.650484 0.159371
H5    H     H_    0.622126 0.156806 0.351087 0.159165
H6    H     H_    0.379196 0.842164 0.351996 0.159806
H7    H     H_    0.374585 0.153572 0.349515 0.159371
H8    H     H_    0.620832 0.842124 0.352000 0.159758
H9    H     H_    0.158356 0.618810 0.352686 0.170925
H10   H     H_    0.842912 0.380143 0.352085 0.172767
H11   H     H_    0.841614 0.618746 0.352744 0.170849
H12   H     H_    0.153935 0.376812 0.350373 0.173967
H13   H     H_    0.657089 0.119856 0.647915 0.172767
H14   H     H_    0.341644 0.881189 0.647314 0.170925
H15   H     H_    0.346065 0.123188 0.649627 0.173967
H16   H     H_    0.658386 0.881254 0.647256 0.170849
H17   H     H_    0.820088 0.264676 0.732930 0.148437
H18   H     H_    0.177823 0.736896 0.731668 0.148583
H19   H     H_    0.185001 0.269849 0.735406 0.148277
H20   H     H_    0.822165 0.736985 0.731628 0.148586
H21   H     H_    0.322177 0.763104 0.268332 0.148583
H22   H     H_    0.679915 0.235321 0.267069 0.148438
H23   H     H_    0.677836 0.763015 0.268372 0.148587
H24   H     H_    0.314999 0.230151 0.264594 0.148277
C73   C     C_R   0.944330 0.499333 0.797612 -0.047639
C74   C     C_R   0.055670 0.500285 0.202422 -0.042388
C75   C     C_R   0.055668 0.499307 0.797570 -0.047964
C76   C     C_R   0.944330 0.500280 0.202467 -0.041927
C77   C     C_R   0.444330 0.999715 0.797578 -0.042388
C78   C     C_R   0.555670 0.000666 0.202388 -0.047639
C79   C     C_R   0.555670 0.999720 0.797533 -0.041927
C80   C     C_R   0.444332 0.000693 0.202430 -0.047964
N1    N     N_R   1.000000 0.500000 0.750030 -0.114265
N2    N     N_R   1.000000 0.500000 0.249970 -0.111823
N3    N     N_R   0.500000 0.000000 0.750030 -0.111823
N4    N     N_R   0.500000 1.000000 0.249970 -0.114265
C81   C     C_R   0.057681 0.498303 0.898668 -0.021690
C82   C     C_R   0.942305 0.500857 0.101369 -0.020075
C83   C     C_R   0.942315 0.498323 0.898712 -0.021778
C84   C     C_R   0.057692 0.500857 0.101323 -0.020039
C85   C     C_R   0.557694 0.999142 0.898631 -0.020075
C86   C     C_R   0.442319 0.001697 0.101332 -0.021690
C87   C     C_R   0.442308 0.999143 0.898677 -0.020039
C88   C     C_R   0.557685 0.001677 0.101287 -0.021778
C89   C     C_R   0.999998 0.499428 0.949470 -0.016752
C90   C     C_R   0.999998 0.499769 0.050572 -0.019311
C91   C     C_R   0.500002 0.000231 0.949428 -0.019311
C92   C     C_R   0.500002 0.000572 0.050530 -0.016752
C93   C     C_R   0.115583 0.496115 0.949367 0.192674
C94   C     C_R   0.884384 0.502490 0.050675 0.201342
C95   C     C_R   0.884410 0.496144 0.949455 0.192486
C96   C     C_R   0.115612 0.502484 0.050582 0.201236
C97   C     C_R   0.615616 0.997510 0.949325 0.201341
C98   C     C_R   0.384416 0.003885 0.050633 0.192674
C99   C     C_R   0.384388 0.997516 0.949418 0.201235
C100  C     C_R   0.615590 0.003856 0.050545 0.192486
H25   H     H_    0.901814 0.500544 0.755343 0.152086
H26   H     H_    0.098157 0.499039 0.244761 0.144458
H27   H     H_    0.098187 0.500494 0.755271 0.151923
H28   H     H_    0.901844 0.499029 0.244842 0.144212
H29   H     H_    0.401843 0.000960 0.755239 0.144458
H30   H     H_    0.598186 0.999456 0.244656 0.152086
H31   H     H_    0.598156 0.000971 0.755158 0.144212
H32   H     H_    0.401813 0.999506 0.244729 0.151923
C101  C     C_3   0.239079 0.669940 0.238200 -0.939793
H33   H     H_    0.248892 0.619075 0.249385 0.242152
H34   H     H_    0.189700 0.676266 0.214016 0.244646
H35   H     H_    0.270458 0.686870 0.180117 0.246245
C102  C     C_3   0.763477 0.328169 0.236812 -0.935381
H36   H     H_    0.813026 0.321327 0.213700 0.245113
H37   H     H_    0.732472 0.310995 0.178480 0.244923
H38   H     H_    0.753979 0.379217 0.246701 0.238032
C103  C     C_3   0.760895 0.669826 0.238278 -0.939868
H39   H     H_    0.751064 0.618967 0.249525 0.242064
H40   H     H_    0.729521 0.686732 0.180202 0.246263
H41   H     H_    0.810276 0.676138 0.214048 0.244678
C104  C     C_3   0.230768 0.322274 0.233879 -0.934043
H42   H     H_    0.180753 0.314931 0.213698 0.245188
H43   H     H_    0.240441 0.373505 0.240621 0.237773
H44   H     H_    0.260481 0.303784 0.174928 0.244613
C105  C     C_3   0.736527 0.171827 0.763186 -0.935380
H45   H     H_    0.686979 0.178669 0.786301 0.245113
H46   H     H_    0.746024 0.120779 0.753295 0.238032
H47   H     H_    0.767534 0.188999 0.821518 0.244923
C106  C     C_3   0.260921 0.830060 0.761800 -0.939791
H48   H     H_    0.251109 0.880924 0.750615 0.242152
H49   H     H_    0.229542 0.813129 0.819883 0.246245
H50   H     H_    0.310300 0.823734 0.785984 0.244646
C107  C     C_3   0.269232 0.177726 0.766120 -0.934043
H51   H     H_    0.319247 0.185069 0.786302 0.245188
H52   H     H_    0.239519 0.196215 0.825072 0.244613
H53   H     H_    0.259559 0.126494 0.759379 0.237773
C108  C     C_3   0.739105 0.830174 0.761722 -0.939871
H54   H     H_    0.748936 0.881033 0.750475 0.242064
H55   H     H_    0.689724 0.823862 0.785952 0.244678
H56   H     H_    0.770479 0.813268 0.819797 0.246264
C109  C     C_3   0.176365 0.483595 0.895487 -0.932811
H57   H     H_    0.214552 0.465481 0.941812 0.257248
H58   H     H_    0.169232 0.445540 0.842192 0.230975
H59   H     H_    0.192207 0.527191 0.858760 0.242209
C110  C     C_3   0.823493 0.514346 0.104588 -0.948212
H60   H     H_    0.785105 0.532172 0.058393 0.260439
H61   H     H_    0.808107 0.470585 0.141297 0.240959
H62   H     H_    0.830348 0.552395 0.157884 0.231412
C111  C     C_3   0.823621 0.483657 0.895616 -0.932214
H63   H     H_    0.830732 0.445619 0.842283 0.231568
H64   H     H_    0.785426 0.465530 0.941953 0.257274
H65   H     H_    0.807801 0.527269 0.858939 0.242084
C112  C     C_3   0.176505 0.514373 0.104434 -0.947556
H66   H     H_    0.169652 0.552441 0.157703 0.231444
H67   H     H_    0.191889 0.470630 0.141171 0.240285
H68   H     H_    0.214892 0.532188 0.058189 0.260330
C113  C     C_3   0.676507 0.985654 0.895412 -0.948212
H69   H     H_    0.714894 0.967828 0.941607 0.260439
H70   H     H_    0.669652 0.947604 0.842116 0.231412
H71   H     H_    0.691892 0.029415 0.858702 0.240959
C114  C     C_3   0.323635 0.016404 0.104512 -0.932810
H72   H     H_    0.285448 0.034518 0.058188 0.257247
H73   H     H_    0.307794 0.972809 0.141241 0.242209
H74   H     H_    0.330768 0.054460 0.157808 0.230975
C115  C     C_3   0.323495 0.985627 0.895566 -0.947556
H75   H     H_    0.285108 0.967811 0.941811 0.260329
H76   H     H_    0.308111 0.029369 0.858830 0.240286
H77   H     H_    0.330348 0.947558 0.842297 0.231444
C116  C     C_3   0.676379 0.016343 0.104384 -0.932215
H78   H     H_    0.714574 0.034469 0.058047 0.257274
H79   H     H_    0.669268 0.054380 0.157717 0.231568
H80   H     H_    0.692199 0.972731 0.141062 0.242084

loop_
_geom_bond_atom_site_label_1
_geom_bond_atom_site_label_2
_geom_bond_distance
_ccdc_geom_bond_type
C84   C96   1.420971 A    
C63   C67   1.393995 A    
C103  H39   1.110212 S    
O8    Zn1   2.019562 S    
C109  H59   1.110142 S    
C112  H67   1.110050 S    
C112  H66   1.109520 S    
C14   C22   1.392632 A    
C88   C92   1.416837 A    
C23   C31   1.395604 A    
C97   C100  1.423884 A    
C97   C113  1.518564 S    
C102  H36   1.110603 S    
O15   Zn4   2.019558 S    
C47   C55   1.410700 A    
C45   C53   1.411063 A    
C12   C52   1.381335 A    
C79   H31   1.080236 S    
C113  H69   1.107384 S    
O10   C6    1.284207 A    
C116  H80   1.110142 S    
C87   C91   1.416973 A    
C26   H10   1.082255 S    
C15   C55   1.381335 A    
C101  H33   1.110210 S    
C7    C22   1.437382 S    
C77   H29   1.080236 S    
C79   C85   1.416386 A    
C76   C82   1.416386 A    
C54   C69   1.396387 A    
C27   C35   1.391918 A    
C66   H18   1.084833 S    
C39   C63   1.415477 A    
C53   C70   1.396894 A    
C77   N3    1.356913 A    
C65   H17   1.085057 S    
C38   C62   1.415446 A    
Zn2   N2    2.000064 S    
C106  H50   1.110387 S    
C76   N2    1.356910 A    
C108  H55   1.110384 S    
O6    Zn1   2.018989 S    
C67   H19   1.084852 S    
O10   Zn4   2.019725 S    
C28   H12   1.081946 S    
C114  H74   1.110384 S    
C29   C37   1.391356 A    
O13   C7    1.284006 A    
O3    C2    1.284115 A    
C74   H26   1.080236 S    
C104  H42   1.110387 S    
O14   C8    1.283730 A    
C109  H58   1.110383 S    
Zn1   N1    2.000063 S    
C32   C40   1.391918 A    
C39   C47   1.418778 A    
C43   C48   1.392830 A    
Zn3   N3    2.000063 S    
C41   C46   1.392684 A    
C38   C46   1.418938 A    
C11   C19   1.392665 A    
C106  H49   1.110848 S    
C63   C107  1.510407 S    
C35   C43   1.418915 A    
C73   N1    1.357199 A    
C36   C44   1.418778 A    
O13   Zn4   2.018992 S    
C4    C17   1.437382 S    
O14   Zn3   2.018989 S    
C15   C23   1.392973 A    
C100  C116  1.518739 S    
C59   C71   1.394027 A    
C110  H60   1.107383 S    
C80   N4    1.357188 A    
C24   C32   1.395504 A    
O16   Zn3   2.019562 S    
C70   H22   1.085055 S    
C25   C33   1.391804 A    
C101  H34   1.110387 S    
C105  H45   1.110604 S    
O1    Zn1   2.019725 S    
C8    C21   1.437486 S    
C78   H30   1.080197 S    
C42   C50   1.411062 A    
C64   C108  1.509797 S    
C109  H57   1.107423 S    
C33   C41   1.418938 A    
C60   C104  1.510407 S    
C15   H7    1.085089 S    
C21   C29   1.395642 A    
C102  H38   1.110570 S    
C10   C50   1.381524 A    
C31   C39   1.391187 A    
C9    C49   1.381328 A    
C107  H52   1.110876 S    
C75   H27   1.080203 S    
C86   C98   1.420994 A    
C69   H21   1.084832 S    
C76   H28   1.080236 S    
O8    C3    1.284053 A    
C27   H11   1.082137 S    
C30   C38   1.391804 A    
C44   C47   1.392385 A    
O3    Zn1   2.019419 S    
C93   C109  1.518742 S    
O2    Zn2   2.019725 S    
C93   C96   1.423866 A    
C9    H1    1.085110 S    
C108  H56   1.110844 S    
C102  H37   1.111051 S    
C34   C42   1.419151 A    
C110  H61   1.110051 S    
C116  H78   1.107420 S    
C107  H51   1.110386 S    
O12   C5    1.284115 A    
C77   C87   1.416381 A    
O5    Zn2   2.018992 S    
C1    C20   1.437978 S    
C61   C105  1.510725 S    
C60   C72   1.393995 A    
C111  H65   1.110141 S    
C33   C57   1.415445 A    
C2    C19   1.437658 S    
C83   C89   1.416837 A    
C3    C18   1.437486 S    
C5    C24   1.437658 S    
C35   C59   1.415471 A    
C79   N3    1.356908 A    
C6    C23   1.437978 S    
O11   Zn3   2.019419 S    
C95   C111  1.518739 S    
C57   C69   1.393963 A    
C26   C34   1.391356 A    
C114  H72   1.107424 S    
C16   H8    1.085104 S    
C48   C56   1.410605 A    
C59   C103  1.509799 S    
C98   C114  1.518742 S    
C72   H24   1.084852 S    
C78   C88   1.416501 A    
C88   C100  1.421018 A    
C105  H46   1.110571 S    
C25   H9    1.082140 S    
C55   C72   1.396567 A    
C22   C30   1.395428 A    
O4    C1    1.283840 A    
C75   N1    1.357186 A    
C13   C53   1.381524 A    
O15   C8    1.284053 A    
C12   H4    1.085089 S    
C14   C54   1.381326 A    
C106  H48   1.110213 S    
O16   C7    1.283722 A    
C87   C99   1.420971 A    
C12   C20   1.392973 A    
C80   H32   1.080203 S    
C104  H44   1.110875 S    
C37   C61   1.415744 A    
C16   C24   1.392663 A    
C85   C97   1.420978 A    
C17   C25   1.395430 A    
C82   C90   1.416977 A    
C52   C67   1.396567 A    
C83   C95   1.421018 A    
O9    Zn3   2.019725 S    
C19   C27   1.395504 A    
C98   C99   1.423866 A    
C104  H43   1.110350 S    
C113  H71   1.110051 S    
C41   C49   1.410584 A    
C28   C36   1.391185 A    
C115  H77   1.109521 S    
C20   C28   1.395605 A    
C114  H73   1.110142 S    
C107  H53   1.110350 S    
C42   C45   1.392525 A    
C29   H13   1.082254 S    
C64   C68   1.394027 A    
C37   C45   1.419150 A    
O2    C2    1.283755 A    
C99   C115  1.518544 S    
C103  H40   1.110846 S    
O4    Zn2   2.019419 S    
C91   C92   1.415761 A    
C105  H47   1.111054 S    
C85   C91   1.416975 A    
C103  H41   1.110386 S    
O5    C3    1.283730 A    
C112  H68   1.107390 S    
C116  H79   1.110369 S    
O6    C4    1.284006 A    
C89   C90   1.415761 A    
O11   C6    1.283840 A    
O1    C1    1.284207 A    
C36   C60   1.415476 A    
C80   C86   1.416484 A    
C40   C48   1.418915 A    
C13   C21   1.393061 A    
C14   H6    1.085112 S    
C111  H64   1.107421 S    
C115  H76   1.110048 S    
C10   H2    1.085340 S    
C62   C66   1.393962 A    
C110  H62   1.109510 S    
C86   C92   1.416847 A    
C101  H35   1.110846 S    
C40   C64   1.415470 A    
O9    C5    1.283755 A    
C108  H54   1.110209 S    
C73   C83   1.416500 A    
O7    Zn2   2.019558 S    
C58   C70   1.394110 A    
C115  H75   1.107391 S    
C62   C106  1.509807 S    
C11   C51   1.381485 A    
C75   C81   1.416484 A    
C94   C110  1.518563 S    
C71   H23   1.084828 S    
C113  H70   1.109510 S    
C13   H5    1.085339 S    
C44   C52   1.410700 A    
C78   N4    1.357197 A    
C111  H63   1.110369 S    
C82   C94   1.420977 A    
C18   C26   1.395643 A    
C74   C84   1.416381 A    
C11   H3    1.085103 S    
C56   C71   1.396403 A    
C51   C68   1.396401 A    
C68   H20   1.084829 S    
C16   C56   1.381484 A    
C81   C89   1.416847 A    
O12   Zn4   2.019419 S    
C58   C102  1.510723 S    
C31   H15   1.081945 S    
O7    C4    1.283722 A    
C9    C17   1.392631 A    
C30   H14   1.082142 S    
C94   C95   1.423884 A    
C32   H16   1.082138 S    
C73   H25   1.080197 S    
C81   C93   1.420994 A    
C74   N2    1.356911 A    
C10   C18   1.393060 A    
C50   C65   1.396896 A    
C84   C90   1.416973 A    
C43   C51   1.410605 A    
C61   C65   1.394109 A    
C49   C66   1.396389 A    
Zn4   N4    2.000064 S    
C57   C101  1.509807 S    
C96   C112  1.518544 S    
C34   C58   1.415742 A    
C46   C54   1.410584 A    
