data_mof_unit_45814.cif
_audit_creation_date              2012-10-26T17:11:24-0400
_audit_creation_method            fapswitch 2.2
_symmetry_space_group_name_H-M    P1
_symmetry_Int_Tables_number       1
_space_group_crystal_system       triclinic
_cell_length_a                    27.928349
_cell_length_b                    18.919422
_cell_length_c                    16.82858
_cell_angle_alpha                 90.284692
_cell_angle_beta                  62.531557
_cell_angle_gamma                 90.113889
_cell_volume                      7889.4834765

loop_
_atom_site_label
_atom_site_type_symbol
_atom_type_description
_atom_site_fract_x
_atom_site_fract_y
_atom_site_fract_z
_atom_type_partial_charge
C1    C     C_R   0.295960 0.730089 0.329118 0.573792
C2    C     C_R   0.604667 0.000529 0.486358 -0.017454
C3    C     C_R   0.690678 0.712972 0.903774 -0.008122
C4    C     C_R   0.926319 0.903445 0.066719 0.556876
C5    C     C_R   0.073574 0.096646 0.933352 0.553952
C6    C     C_R   0.073651 0.903479 0.933191 0.554949
C7    C     C_R   0.926732 0.097124 0.066541 0.556156
C8    C     C_R   0.426446 0.403317 0.066637 0.558778
C9    C     C_R   0.573615 0.596639 0.933340 0.553130
C10   C     C_R   0.573684 0.403529 0.933175 0.554978
C11   C     C_R   0.426744 0.597151 0.066525 0.557639
C12   C     C_R   0.071007 0.623200 0.435670 -0.006027
C13   C     C_R   0.905526 0.500763 0.476827 -0.025115
C14   C     C_R   0.944244 0.376846 0.520396 0.004799
C15   C     C_R   0.972242 0.622473 0.422481 -0.001761
C16   C     C_R   0.052252 0.372847 0.491452 -0.001799
C17   C     C_R   0.569016 0.124335 0.437434 -0.004305
C18   C     C_R   0.442328 0.877642 0.525433 0.005384
C19   C     C_R   0.470727 0.122364 0.423853 -0.000532
C20   C     C_R   0.550372 0.873551 0.496046 -0.003886
C21   C     C_R   0.053955 0.683063 0.406379 -0.124549
C22   C     C_R   0.968434 0.312424 0.523995 -0.097976
C23   C     C_R   0.006246 0.682353 0.398567 -0.127770
C24   C     C_R   0.104724 0.499801 0.487847 -0.017625
C25   C     C_R   0.022309 0.310210 0.507084 -0.103773
C26   C     C_R   0.551457 0.184105 0.408825 -0.127253
C27   C     C_R   0.466130 0.813445 0.530725 -0.098994
C28   C     C_R   0.503980 0.182767 0.400725 -0.127577
C29   C     C_R   0.519931 0.811175 0.513882 -0.107006
C30   C     C_R   0.987828 0.562956 0.455373 0.015915
C31   C     C_R   0.027703 0.437405 0.490903 0.012244
C32   C     C_R   0.037410 0.563101 0.460286 0.014644
C33   C     C_R   0.975866 0.438568 0.496352 0.012809
C34   C     C_R   0.486360 0.063215 0.457425 0.016264
C35   C     C_R   0.605712 0.873293 0.472533 0.059308
C36   C     C_R   0.526154 0.938164 0.494537 0.011293
C37   C     C_R   0.535909 0.063788 0.462225 0.015818
C38   C     C_R   0.474218 0.939202 0.500336 0.012352
C39   C     C_R   0.454555 0.001475 0.480300 -0.004173
C40   C     C_R   0.555385 0.001114 0.481521 -0.004681
C41   C     C_R   0.955929 0.501254 0.477667 -0.004185
C42   C     C_R   0.056506 0.500357 0.479763 -0.006290
C43   C     C_R   0.372145 0.938738 0.505163 -0.043116
C44   C     C_R   0.632892 0.064068 0.477406 -0.031033
C45   C     C_R   0.628251 0.935408 0.490311 -0.035652
C46   C     C_R   0.423464 0.118261 0.411962 0.064081
C47   C     C_R   0.386347 0.061490 0.451893 -0.042495
C48   C     C_R   0.873390 0.438676 0.502607 -0.044806
C49   C     C_R   0.132661 0.562947 0.480966 -0.024042
C50   C     C_R   0.128133 0.435068 0.492373 -0.034668
C51   C     C_R   0.887239 0.562032 0.450764 -0.040934
C52   C     C_R   0.324501 0.936536 0.494487 0.020354
C53   C     C_R   0.678160 0.064469 0.495622 0.019663
C54   C     C_R   0.676397 0.935306 0.500908 0.008894
C55   C     C_R   0.331138 0.063764 0.468844 0.013066
C56   C     C_R   0.825576 0.436489 0.492314 0.026313
C57   C     C_R   0.387675 0.882522 0.544434 0.052393
C58   C     C_R   0.173284 0.564168 0.511081 0.007775
C59   C     C_R   0.171788 0.435173 0.515263 0.025636
C60   C     C_R   0.831944 0.563941 0.467021 0.005625
C61   C     C_R   0.300508 0.000751 0.491572 0.097481
C62   C     C_R   0.702052 0.000008 0.498816 0.098126
C63   C     C_R   0.801804 0.500381 0.488117 0.097795
C64   C     C_R   0.188667 0.500069 0.536199 0.096198
C65   C     C_3   0.208360 0.994075 0.616509 -0.254768
C66   C     C_3   0.799937 0.996375 0.398725 -0.240808
C67   C     C_3   0.707903 0.502779 0.608544 -0.252412
C68   C     C_R   0.620441 0.121365 0.435557 0.064534
C69   C     C_3   0.270949 0.499210 0.558732 -0.216500
C70   C     C_2   0.641334 0.827025 0.395351 0.609541
C71   C     C_2   0.419183 0.161364 0.341401 0.584190
C72   C     C_2   0.345727 0.846135 0.626034 0.600890
C73   C     C_2   0.666903 0.153668 0.357883 0.593487
C74   C     C_2   0.144386 0.329577 0.391656 0.616964
C75   C     C_2   0.919715 0.663867 0.342827 0.585745
C76   C     C_2   0.847948 0.345078 0.622141 0.601371
C77   C     C_2   0.169908 0.649314 0.357823 0.601368
C78   C     C_R   0.107310 0.373253 0.470341 0.054118
C79   C     C_R   0.924455 0.619125 0.411645 0.064114
C80   C     C_R   0.889421 0.381920 0.540493 0.051713
C81   C     C_R   0.704694 0.271208 0.670546 0.573821
C82   C     C_R   0.122098 0.619607 0.435725 0.062820
C83   C     C_R   0.221356 0.769308 0.953398 0.030591
C84   C     C_R   0.783230 0.238514 0.043047 0.035813
C85   C     C_R   0.779330 0.766622 0.046934 0.027064
C86   C     C_R   0.220991 0.231308 0.953523 0.032240
C87   C     C_R   0.722050 0.270527 0.952888 0.030401
C88   C     C_R   0.282468 0.737279 0.043650 0.039412
C89   C     C_R   0.280183 0.266437 0.045620 0.034407
C90   C     C_R   0.721132 0.732157 0.952972 0.029371
C91   C     C_R   0.241905 0.700957 0.949059 -0.110056
C92   C     C_R   0.705037 0.728112 0.670336 0.546282
C93   C     C_R   0.762536 0.306839 0.047637 -0.096725
C94   C     C_R   0.722691 0.770529 0.089605 -0.107844
C95   C     C_R   0.241032 0.300055 0.948858 -0.107513
C96   C     C_R   0.742713 0.202229 0.948377 -0.108905
C97   C     C_R   0.261899 0.805647 0.048032 -0.096897
C98   C     C_R   0.260093 0.197695 0.050367 -0.110598
C99   C     C_R   0.777767 0.728202 0.910351 -0.108567
C100  C     C_R   0.271991 0.685076 0.993845 -0.100640
C101  C     C_R   0.732348 0.322705 0.002926 -0.097791
C102  C     C_R   0.693857 0.753366 0.043070 -0.110434
C103  C     C_R   0.295119 0.271575 0.329532 0.588592
C104  C     C_R   0.270277 0.317494 0.994596 -0.100376
C105  C     C_R   0.772817 0.186357 0.993115 -0.101449
C106  C     C_R   0.231756 0.821520 0.003275 -0.098438
C107  C     C_R   0.230819 0.180260 0.004645 -0.106511
C108  C     C_R   0.806601 0.745378 0.956877 -0.110226
C109  C     C_R   0.144880 0.830953 0.943780 -0.113083
C110  C     C_R   0.858442 0.174628 0.053899 -0.116780
C111  C     C_R   0.855448 0.829464 0.056097 -0.114247
C112  C     C_R   0.144736 0.169588 0.943793 -0.115481
C113  C     C_R   0.645303 0.331691 0.943510 -0.112731
C114  C     C_R   0.795894 0.229944 0.329152 0.563191
C115  C     C_R   0.357927 0.673827 0.054257 -0.119190
C116  C     C_R   0.356036 0.329027 0.055651 -0.116333
C117  C     C_R   0.644791 0.669975 0.943774 -0.116253
C118  C     C_R   0.117998 0.852522 0.895002 -0.011831
C119  C     C_R   0.883594 0.150017 0.104029 -0.011592
C120  C     C_R   0.881944 0.852425 0.105076 -0.009366
C121  C     C_R   0.118017 0.147446 0.894943 -0.013039
C122  C     C_R   0.618183 0.352811 0.894918 -0.011641
C123  C     C_R   0.383540 0.649977 0.104022 -0.012052
C124  C     C_R   0.382229 0.352153 0.104915 -0.008306
C125  C     C_R   0.204590 0.771004 0.670595 0.571222
C126  C     C_R   0.618008 0.647621 0.895007 -0.012143
C127  C     C_R   0.136372 0.829660 0.806975 -0.143302
C128  C     C_R   0.864622 0.171924 0.192603 -0.135949
C129  C     C_R   0.863061 0.830907 0.193642 -0.140238
C130  C     C_R   0.136661 0.169627 0.806670 -0.142124
C131  C     C_R   0.636477 0.329792 0.806975 -0.141107
C132  C     C_R   0.364932 0.672509 0.192304 -0.132589
C133  C     C_R   0.363288 0.330532 0.193449 -0.132557
C134  C     C_R   0.636655 0.669626 0.806656 -0.142917
C135  C     C_R   0.181592 0.786258 0.766663 0.009720
C136  C     C_R   0.205078 0.228044 0.670358 0.547548
C137  C     C_R   0.820352 0.217108 0.232214 -0.013018
C138  C     C_R   0.817678 0.787687 0.234112 0.015267
C139  C     C_R   0.182543 0.211980 0.765964 -0.012689
C140  C     C_R   0.681889 0.286752 0.766509 0.010018
C141  C     C_R   0.320379 0.717234 0.232153 -0.018058
C142  C     C_R   0.317961 0.287172 0.233740 0.016801
C143  C     C_R   0.682489 0.712038 0.765864 -0.014499
C144  C     C_R   0.207443 0.763054 0.816458 -0.090621
C145  C     C_R   0.796419 0.243627 0.180853 -0.124074
C146  C     C_R   0.791545 0.764561 0.184766 -0.076606
C147  C     C_R   0.795050 0.771720 0.329634 0.584532
C148  C     C_R   0.209195 0.233931 0.815107 -0.116127
C149  C     C_R   0.708081 0.264155 0.816030 -0.087964
C150  C     C_R   0.295882 0.742801 0.181191 -0.120624
C151  C     C_R   0.292028 0.263914 0.184006 -0.075447
C152  C     C_R   0.709051 0.734334 0.814906 -0.116128
C153  C     C_R   0.199501 0.631176 0.516976 0.568232
C154  C     C_R   0.799388 0.368942 0.486725 0.593895
C155  C     C_R   0.802628 0.631499 0.474854 0.581621
C156  C     C_R   0.198699 0.368679 0.519679 0.590346
C157  C     C_R   0.701794 0.131359 0.509671 0.575697
C158  C     C_R   0.404377 0.000642 0.478950 -0.025170
C159  C     C_R   0.299006 0.868941 0.487593 0.590250
C160  C     C_R   0.302397 0.131463 0.475492 0.587002
C161  C     C_R   0.700717 0.868740 0.513054 0.576115
C162  C     C_R   0.190185 0.786783 0.904574 -0.004285
C163  C     C_R   0.814084 0.220518 0.092293 -0.019145
C164  C     C_R   0.809786 0.786045 0.096009 -0.004250
C165  C     C_R   0.190682 0.212402 0.904005 -0.007979
C166  C     C_R   0.690807 0.287880 0.904145 -0.004370
C167  C     C_R   0.313412 0.719439 0.092780 -0.017008
C168  C     C_R   0.310448 0.285529 0.095164 -0.002650
Cu1   Cu    Cu3+1 0.209920 0.785290 0.495070 0.962167
Cu2   Cu    Cu3+1 0.504760 0.500000 0.075850 0.936242
Cu3   Cu    Cu3+1 0.995240 0.000000 0.924150 0.922357
Cu4   Cu    Cu3+1 0.004760 0.000000 0.075850 0.925762
Cu5   Cu    Cu3+1 0.790080 0.214710 0.504930 0.960047
Cu6   Cu    Cu3+1 0.790080 0.785290 0.504930 0.965129
Cu7   Cu    Cu3+1 0.209920 0.214710 0.495070 0.979089
Cu8   Cu    Cu3+1 0.709920 0.285290 0.495070 0.981774
Cu9   Cu    Cu3+1 0.290080 0.714710 0.504930 0.942500
Cu10  Cu    Cu3+1 0.290080 0.285290 0.504930 0.965114
Cu11  Cu    Cu3+1 0.709920 0.714710 0.495070 0.968996
Cu12  Cu    Cu3+1 0.495240 0.500000 0.924150 0.920397
H1    H     H_    0.536924 0.760803 0.517945 0.163781
H2    H     H_    0.787103 0.132744 0.989981 0.111701
H3    H     H_    0.850190 0.741213 0.922817 0.109714
H4    H     H_    0.216611 0.126508 0.008072 0.107398
H5    H     H_    0.717784 0.376196 0.006319 0.111350
H6    H     H_    0.286238 0.631454 0.990813 0.108338
H7    H     H_    0.284399 0.371283 0.991250 0.110857
H8    H     H_    0.650271 0.757582 0.077136 0.115087
H9    H     H_    0.234036 0.659466 0.912068 0.103394
H10   H     H_    0.770236 0.348224 0.084949 0.109791
H11   H     H_    0.700732 0.788034 0.158564 0.139533
H12   H     H_    0.493613 0.230765 0.378307 0.177450
H13   H     H_    0.233458 0.340545 0.910770 0.106420
H14   H     H_    0.734895 0.160748 0.911314 0.107245
H15   H     H_    0.269696 0.847078 0.085179 0.106936
H16   H     H_    0.267636 0.157218 0.088501 0.106740
H17   H     H_    0.799737 0.710727 0.841385 0.110480
H18   H     H_    0.131119 0.849292 0.011929 0.133117
H19   H     H_    0.872553 0.156882 0.985436 0.133980
H20   H     H_    0.868855 0.847691 0.988196 0.130923
H21   H     H_    0.130431 0.152606 0.012403 0.133285
H22   H     H_    0.631564 0.350085 0.011631 0.133697
H23   H     H_    0.444556 0.763963 0.542438 0.165879
H24   H     H_    0.371843 0.655758 0.985966 0.133211
H25   H     H_    0.370425 0.345840 0.986959 0.129190
H26   H     H_    0.631412 0.651591 0.011605 0.131671
H27   H     H_    0.116619 0.847939 0.768561 0.145369
H28   H     H_    0.882855 0.151085 0.232151 0.150753
H29   H     H_    0.882511 0.850118 0.232282 0.137876
H30   H     H_    0.116599 0.151656 0.768419 0.150032
H31   H     H_    0.616494 0.347662 0.768743 0.146937
H32   H     H_    0.383609 0.652391 0.231527 0.156986
H33   H     H_    0.382619 0.349847 0.232225 0.145737
H34   H     H_    0.573703 0.233114 0.393252 0.165828
H35   H     H_    0.616642 0.651477 0.768401 0.149119
H36   H     H_    0.242466 0.729152 0.785396 0.117937
H37   H     H_    0.761326 0.277557 0.211862 0.166268
H38   H     H_    0.756278 0.730961 0.215800 0.128604
H39   H     H_    0.245654 0.265302 0.783257 0.129961
H40   H     H_    0.743337 0.230674 0.784803 0.120199
H41   H     H_    0.260671 0.776510 0.212276 0.168529
H42   H     H_    0.256057 0.231656 0.215465 0.127262
H43   H     H_    0.744635 0.767369 0.783628 0.130815
H44   H     H_    0.229082 0.992459 0.476843 0.274079
H45   H     H_    0.039682 0.259754 0.509762 0.160928
H46   H     H_    0.186776 0.942898 0.627973 0.164611
H47   H     H_    0.178202 0.037443 0.640769 0.147890
H48   H     H_    0.231170 0.995274 0.655962 0.167518
H49   H     H_    0.762284 0.991599 0.543053 0.269560
H50   H     H_    0.822803 0.946703 0.390722 0.155512
H51   H     H_    0.827481 0.041853 0.387231 0.150935
H52   H     H_    0.785403 0.997542 0.347322 0.174657
H53   H     H_    0.732135 0.509774 0.467063 0.274836
H54   H     H_    0.684126 0.552432 0.624526 0.153739
H55   H     H_    0.729141 0.500207 0.650431 0.162260
H56   H     H_    0.996361 0.730420 0.375570 0.176210
H57   H     H_    0.679856 0.457221 0.625527 0.158062
H58   H     H_    0.193768 0.534180 0.650188 0.244463
H59   H     H_    0.285679 0.546993 0.579274 0.135480
H60   H     H_    0.291103 0.495398 0.484374 0.172133
H61   H     H_    0.283022 0.453759 0.586904 0.152304
H62   H     H_    0.652528 0.734271 0.329304 0.323394
H63   H     H_    0.422994 0.256660 0.285837 0.336054
H64   H     H_    0.328551 0.773811 0.723487 0.333484
H65   H     H_    0.735360 0.132748 0.244597 0.337153
H66   H     H_    0.156828 0.240244 0.318603 0.329676
H67   H     H_    0.947036 0.262878 0.534716 0.166680
H68   H     H_    0.922813 0.760524 0.290886 0.336391
H69   H     H_    0.831185 0.270435 0.716845 0.333411
H70   H     H_    0.241119 0.625127 0.251419 0.337365
H71   H     H_    0.076600 0.731778 0.390656 0.165505
H72   H     H_    0.217322 0.875062 0.006480 0.108257
N1    N     N_2   0.243711 0.003350 0.521735 -0.486768
N2    N     N_2   0.755606 0.000714 0.488605 -0.485050
N3    N     N_2   0.745496 0.500570 0.513891 -0.485766
N4    N     N_2   0.212454 0.500735 0.595843 -0.504871
O1    O     O_R   0.255040 0.869590 0.478480 -0.513956
O2    O     O_R   0.817950 0.203450 0.375560 -0.528653
O3    O     O_R   0.817950 0.796550 0.375560 -0.512979
O4    O     O_R   0.182050 0.203450 0.624440 -0.520960
O5    O     O_R   0.682050 0.296550 0.624440 -0.527103
O6    O     O_R   0.317950 0.703450 0.375560 -0.517753
O7    O     O_R   0.317950 0.296550 0.375560 -0.504354
O8    O     O_R   0.682050 0.703450 0.624440 -0.524288
O9    O     O_R   0.250530 0.763330 0.367210 -0.473629
O10   O     O_R   0.749470 0.236670 0.632790 -0.494962
O11   O     O_R   0.749470 0.763330 0.632790 -0.516634
O12   O     O_R   0.744960 0.130410 0.521520 -0.492741
O13   O     O_R   0.250530 0.236670 0.367210 -0.495622
O14   O     O_R   0.750530 0.263330 0.367210 -0.473372
O15   O     O_R   0.249470 0.736670 0.632790 -0.498191
O16   O     O_R   0.249470 0.263330 0.632790 -0.520645
O17   O     O_R   0.750530 0.736670 0.367210 -0.493499
O18   O     O_R   0.177260 0.690030 0.513710 -0.508671
O19   O     O_R   0.822740 0.309970 0.486290 -0.511587
O20   O     O_R   0.822740 0.690030 0.486290 -0.486575
O21   O     O_R   0.177260 0.309970 0.513710 -0.510182
O22   O     O_R   0.677260 0.190030 0.513710 -0.511909
O23   O     O_R   0.744960 0.869590 0.521520 -0.510475
O24   O     O_R   0.322740 0.809970 0.486290 -0.507474
O25   O     O_R   0.322740 0.190030 0.486290 -0.492548
O26   O     O_R   0.677260 0.809970 0.513710 -0.502140
O27   O     O_R   0.051640 0.926880 0.885090 -0.516301
O28   O     O_R   0.948360 0.073120 0.114910 -0.514877
O29   O     O_R   0.948360 0.926880 0.114910 -0.514342
O30   O     O_R   0.051640 0.073120 0.885090 -0.515786
O31   O     O_R   0.551640 0.426880 0.885090 -0.516153
O32   O     O_R   0.448360 0.573120 0.114910 -0.511265
O33   O     O_R   0.448360 0.426880 0.114910 -0.510185
O34   O     O_R   0.255040 0.130410 0.478480 -0.487860
O35   O     O_R   0.551640 0.573120 0.885090 -0.516163
O36   O     O_R   0.940620 0.926560 0.986760 -0.512885
O37   O     O_R   0.059380 0.073440 0.013240 -0.513254
O38   O     O_R   0.059380 0.926560 0.013240 -0.512810
O39   O     O_R   0.940620 0.073440 0.986760 -0.512272
O40   O     O_R   0.440620 0.426560 0.986760 -0.514484
O41   O     O_R   0.559380 0.573440 0.013240 -0.513909
O42   O     O_R   0.559380 0.426560 0.013240 -0.512917
O43   O     O_R   0.440620 0.573440 0.986760 -0.514106
O44   O     O_2   0.685138 0.849241 0.339516 -0.530341
O45   O     O_R   0.755040 0.369590 0.478480 -0.492358
O46   O     O_R   0.624743 0.759427 0.384720 -0.726827
O47   O     O_2   0.409301 0.131821 0.285798 -0.527431
O48   O     O_R   0.424822 0.234809 0.339212 -0.707944
O49   O     O_2   0.299657 0.869319 0.663472 -0.539271
O50   O     O_R   0.359409 0.789627 0.664821 -0.725962
O51   O     O_2   0.666753 0.215851 0.338898 -0.540231
O52   O     O_R   0.710010 0.109913 0.303152 -0.706995
O53   O     O_2   0.188907 0.352640 0.339924 -0.513768
O54   O     O_R   0.128225 0.263624 0.374737 -0.722632
O55   O     O_2   0.910092 0.635721 0.286149 -0.525548
O56   O     O_R   0.244960 0.630410 0.521520 -0.512879
O57   O     O_R   0.924660 0.737334 0.343538 -0.708045
O58   O     O_2   0.802122 0.368882 0.661547 -0.536571
O59   O     O_R   0.861795 0.286991 0.658322 -0.724483
O60   O     O_2   0.169609 0.709105 0.331072 -0.544543
O61   O     O_R   0.214620 0.605408 0.311413 -0.695799
O62   O     O_R   0.244960 0.369590 0.521520 -0.501789
O63   O     O_R   0.755040 0.630410 0.478480 -0.507789
O64   O     O_R   0.182050 0.796550 0.624440 -0.531532

loop_
_geom_bond_atom_site_label_1
_geom_bond_atom_site_label_2
_ccdc_geom_bond_type
C31   C42   A    
Cu9   O56   S    
C43   C158  A    
C14   C33   A    
C19   C46   A    
C93   H10   S    
C16   C31   A    
C124  C133  A    
C125  O15   A    
C50   C59   A    
C52   C61   A    
C5    O30   A    
C114  C137  S    
C106  H72   S    
C127  H27   S    
C131  C140  A    
C134  C143  A    
C13   C51   A    
C44   C53   A    
Cu6   O20   S    
C113  C122  A    
C65   N1    S    
C136  O4    A    
C91   C100  A    
C117  C126  A    
Cu7   O13   S    
C88   C97   A    
H65   O52   S    
C72   O50   S    
C119  C128  A    
C125  C135  S    
C58   C64   A    
C148  C165  A    
C86   C165  S    
Cu5   O10   S    
C109  C118  A    
Cu4   O37   S    
Cu2   O32   S    
C115  C123  A    
C7    C119  S    
C71   O48   S    
C56   C154  S    
C117  H26   S    
C93   C101  A    
C113  C166  A    
C9    O35   A    
C161  O26   A    
C134  H35   S    
C120  C129  A    
C49   C82   A    
C58   C153  S    
H69   O59   S    
H68   O57   S    
C84   C105  A    
C136  O16   A    
C69   H59   S    
C92   O8    A    
C55   C160  S    
Cu3   O39   S    
C150  H41   S    
C129  H29   S    
C35   C45   A    
C15   C30   A    
C16   C25   A    
C61   N1    S    
Cu7   O34   S    
Cu1   O18   S    
C127  C135  A    
C155  O20   A    
C10   C122  S    
C160  O34   A    
C11   O43   A    
C83   C91   A    
C4    O29   A    
C151  H42   S    
C97   H15   S    
C18   C38   A    
C60   C155  S    
C76   O59   S    
C77   C82   S    
C112  C165  A    
C25   H45   S    
C84   C93   A    
C148  H39   S    
C86   C95   A    
C146  H38   S    
C2    C40   A    
H62   O46   S    
C126  C134  A    
C152  H43   S    
H58   N4    S    
C85   C164  S    
C116  C168  A    
C128  H28   S    
C75   C79   S    
Cu5   O12   S    
Cu6   O11   S    
C81   C140  S    
Cu11  O26   S    
C81   O5    A    
C123  C132  A    
C27   C29   A    
C121  C130  A    
Cu3   O30   S    
Cu2   O33   S    
C99   C108  A    
C91   H9    S    
C133  C142  A    
C3    C90   S    
C27   H23   S    
C37   C40   A    
C38   C39   A    
C43   C52   A    
Cu11  O17   S    
C65   H47   S    
C85   C94   A    
C90   C102  A    
Cu2   O42   S    
C87   C101  A    
C20   C35   A    
C15   C79   A    
C2    C44   A    
C22   C25   A    
C156  O62   A    
C30   C41   A    
C75   O55   D    
Cu6   O23   S    
C159  O1    A    
Cu5   O19   S    
C101  H5    S    
Cu1   Cu9   S    
C141  C150  A    
C8    O33   A    
H66   O54   S    
C2    C45   A    
C24   C50   A    
C139  C148  A    
C34   C39   A    
C144  H36   S    
C145  C163  A    
C154  O45   A    
C146  C164  A    
C66   H51   S    
Cu8   O22   S    
C111  H20   S    
C98   H16   S    
C147  O17   A    
C19   C28   A    
C94   C102  A    
C75   O57   S    
C84   C163  S    
C83   C162  S    
C39   C158  A    
C131  H31   S    
C105  H2    S    
C118  C127  A    
C73   O51   D    
C90   C99   A    
C132  C141  A    
C157  O12   A    
C32   C42   A    
C111  C164  A    
C76   C80   S    
C110  C119  A    
C59   C156  S    
Cu1   O9    S    
C107  H4    S    
C14   C22   A    
Cu12  O31   S    
C112  C121  A    
C74   O53   D    
C69   H61   S    
C155  O63   A    
C138  C146  A    
C55   C61   A    
Cu12  O43   S    
C54   C161  S    
C147  O3    A    
C51   C79   A    
C130  H30   S    
C43   C57   A    
C1    O6    A    
C76   O58   D    
C51   C60   A    
C140  C149  A    
C69   N4    S    
C96   C105  A    
C67   H54   S    
C34   C37   A    
C24   C42   A    
C122  C131  A    
C6    O27   A    
C13   C41   A    
H49   N2    S    
Cu4   O38   S    
C3    C152  A    
C103  O13   A    
C137  C145  A    
C71   O47   D    
C109  C162  A    
H70   O61   S    
Cu9   O15   S    
C62   N2    S    
C92   C143  S    
C94   H11   S    
C3    C117  A    
Cu9   O24   S    
C66   N2    S    
C85   C108  A    
C9    O41   A    
Cu7   O4    S    
Cu3   O36   S    
C96   H14   S    
Cu12  O40   S    
C70   O46   S    
C109  H18   S    
C112  H21   S    
C136  C139  S    
C130  C139  A    
C50   C78   A    
Cu10  O16   S    
H44   N1    S    
Cu7   Cu10  S    
C149  C166  A    
C160  O25   A    
C114  O14   A    
C161  O23   A    
C8    C124  S    
C8    O40   A    
C67   H57   S    
C98   C107  A    
Cu9   O6    S    
C4    O36   A    
C89   C168  S    
C5    O37   A    
Cu11  O8    S    
C18   C57   A    
C88   C167  S    
C77   O61   S    
C115  H24   S    
C113  H22   S    
C46   C71   S    
C88   C100  A    
C72   O49   D    
C97   C106  A    
C143  C152  A    
C21   C23   A    
Cu11  O63   S    
C77   O60   D    
C46   C47   A    
C17   C68   A    
C116  C124  A    
C108  H3    S    
C26   C28   A    
C11   C123  S    
Cu7   O21   S    
C110  C163  A    
C67   N3    S    
C125  O64   A    
C54   C62   A    
C89   C98   A    
C83   C106  A    
C26   H34   S    
C33   C41   A    
C36   C38   A    
Cu5   O2    S    
Cu4   O29   S    
C150  C167  A    
C65   H46   S    
C57   C72   S    
C69   H60   S    
C1    C141  S    
C20   C36   A    
Cu8   O5    S    
C145  H37   S    
C74   C78   S    
C70   O44   D    
C7    O28   A    
C142  C151  A    
Cu3   Cu4   S    
H63   O48   S    
C5    C121  S    
C86   C107  A    
C132  H32   S    
Cu8   O14   S    
C67   H55   S    
C59   C64   A    
C29   H1    S    
C60   C63   A    
C17   C26   A    
C11   O32   A    
Cu10  O7    S    
C22   H67   S    
C87   C166  S    
Cu10  O25   S    
C151  C168  A    
C66   H52   S    
Cu8   O45   S    
Cu1   O64   S    
C157  O22   A    
C92   O11   A    
C63   N3    S    
C129  C138  A    
C35   C70   S    
C31   C33   A    
C153  O18   A    
C14   C80   A    
C116  H25   S    
C153  O56   A    
C52   C159  S    
C15   C23   A    
C95   H13   S    
C12   C32   A    
Cu1   O1    S    
C159  O24   A    
Cu3   O27   S    
C28   H12   S    
C20   C29   A    
Cu12  O35   S    
C36   C40   A    
Cu6   O3    S    
C7    O39   A    
C68   C73   S    
C12   C21   A    
C102  H8    S    
C49   C58   A    
C65   H48   S    
Cu2   Cu12  S    
C111  C120  A    
C149  H40   S    
C100  H6    S    
C128  C137  A    
C74   O54   S    
Cu2   O41   S    
H64   O50   S    
C10   O42   A    
C53   C62   A    
C138  C147  S    
C87   C96   A    
C99   H17   S    
C56   C63   A    
C12   C82   A    
C17   C37   A    
C114  O2    A    
C23   H56   S    
C135  C144  A    
C45   C54   A    
C89   C104  A    
C81   O10   A    
C44   C68   A    
C115  C167  A    
C103  C142  S    
C95   C104  A    
C47   C55   A    
Cu5   Cu8   S    
C24   C49   A    
C48   C56   A    
C104  H7    S    
C144  C162  A    
C110  H19   S    
C10   O31   A    
C18   C27   A    
C19   C34   A    
C21   H71   S    
C13   C48   A    
C6    O38   A    
C66   H50   S    
C53   C157  S    
C9    C126  S    
C133  H33   S    
C48   C80   A    
C156  O21   A    
C30   C32   A    
C16   C78   A    
C154  O19   A    
Cu10  O62   S    
H53   N3    S    
Cu4   O28   S    
C1    O9    A    
C103  O7    A    
C4    C120  S    
C73   O52   S    
Cu6   Cu11  S    
C6    C118  S    
C64   N4    S    
C47   C158  A    
