data_mof_unit_15803.cif
_audit_creation_date              2012-10-26T20:40:15-0400
_audit_creation_method            fapswitch 2.2
_symmetry_space_group_name_H-M    P1
_symmetry_Int_Tables_number       1
_space_group_crystal_system       triclinic
_cell_length_a                    15.029236
_cell_length_b                    10.833549
_cell_length_c                    9.617455
_cell_angle_alpha                 91.927234
_cell_angle_beta                  89.793802
_cell_angle_gamma                 93.086938
_cell_volume                      1562.75450861

loop_
_atom_site_label
_atom_site_type_symbol
_atom_type_description
_atom_site_fract_x
_atom_site_fract_y
_atom_site_fract_z
_atom_type_partial_charge
Br1   Br    Br    0.678778 0.177625 0.971066 -0.373169
Br2   Br    Br    0.543341 0.934894 0.065005 -0.443364
Br3   Br    Br    0.735963 0.263152 0.340614 -0.427451
C1    C     C_R   0.502809 0.262514 0.497593 0.582333
C2    C     C_R   0.183116 0.395613 0.424324 0.230733
C3    C     C_R   0.232434 0.490176 0.500286 0.002672
C4    C     C_R   0.329103 0.497093 0.500126 0.520415
C5    C     C_R   0.189325 0.582285 0.574833 -0.159903
C6    C     C_R   0.596122 0.130218 0.707210 -0.100284
C7    C     C_R   0.605723 0.083472 0.838699 0.172914
C8    C     C_R   0.555229 0.976830 0.874286 0.262858
C9    C     C_R   0.506268 0.907181 0.771800 0.248927
C10   C     C_R   0.509709 0.945555 0.631299 -0.048932
C11   C     C_R   0.538860 0.068381 0.608934 -0.084103
C12   C     C_R   0.910236 0.591077 0.567153 0.008630
C13   C     C_R   0.505323 0.127759 0.493384 0.074352
C14   C     C_R   0.460331 0.057615 0.386669 0.262748
C15   C     C_R   0.454923 0.928716 0.393434 -0.111662
C16   C     C_R   0.493297 0.737202 0.503427 0.535870
C17   C     C_R   0.482577 0.871286 0.512654 -0.048321
C18   C     C_R   0.626628 0.653553 0.148084 -0.074492
C19   C     C_R   0.691816 0.722908 0.078127 -0.107440
C20   C     C_R   0.690005 0.726643 0.933773 0.229924
C21   C     C_R   0.623993 0.656864 0.860941 0.009135
C22   C     C_R   0.561515 0.576380 0.927688 0.150464
C23   C     C_R   0.946187 0.305578 0.348952 -0.111114
C24   C     C_R   0.562053 0.575626 0.076945 0.169157
C25   C     C_R   0.441628 0.426835 0.071404 0.047134
C26   C     C_R   0.441770 0.426693 0.923614 0.032703
C27   C     C_R   0.670782 0.498262 0.499660 0.555635
C28   C     C_R   0.817059 0.587500 0.570131 -0.161558
C29   C     C_R   0.767097 0.493916 0.498273 0.002338
C30   C     C_R   0.808493 0.398410 0.425019 0.147534
C31   C     C_R   0.902040 0.398850 0.421938 0.033289
C32   C     C_R   0.952842 0.494548 0.494405 0.002063
C33   C     C_R   0.038603 0.305342 0.348554 -0.095975
C34   C     C_R   0.089750 0.397734 0.421963 0.071943
C35   C     C_R   0.046516 0.492691 0.495645 0.006627
C36   C     C_R   0.096884 0.584931 0.572065 -0.043652
C37   C     C_R   0.054581 0.680171 0.642747 -0.050755
C38   C     C_R   0.962350 0.686788 0.637584 0.255748
Cu1   Cu    Cu3+1 0.499990 0.499990 0.640660 0.962770
Cu2   Cu    Cu3+1 0.500010 0.500010 0.359340 1.023967
H1    H     H_    0.781698 0.656655 0.628277 0.159331
H2    H     H_    0.069704 0.231530 0.290971 0.184244
H3    H     H_    0.228387 0.654083 0.632235 0.120920
H4    H     H_    0.093612 0.752369 0.699316 0.147338
H5    H     H_    0.396147 0.807517 0.747997 0.328857
H6    H     H_    0.790324 0.847262 0.927623 0.365906
H7    H     H_    0.284838 0.293369 0.387719 0.347319
H8    H     H_    0.875539 0.812209 0.646596 0.345780
H9    H     H_    0.389210 0.053623 0.217324 0.346214
H10   H     H_    0.631252 0.217028 0.684047 0.186172
H11   H     H_    0.427152 0.873065 0.306793 0.164908
H12   H     H_    0.393768 0.366756 0.124435 0.157663
H13   H     H_    0.628466 0.667955 0.257765 0.186246
H14   H     H_    0.740603 0.779758 0.137513 0.137583
H15   H     H_    0.623111 0.671575 0.752351 0.193084
H16   H     H_    0.394019 0.366454 0.866589 0.126529
H17   H     H_    0.910204 0.231773 0.291022 0.184465
N1    N     N_R   0.500860 0.501210 0.147910 -0.236045
N2    N     N_R   0.500890 0.501290 0.852040 -0.237704
O1    O     O_R   0.499990 0.319640 0.618810 -0.532255
O2    O     O_3   0.748907 0.802382 0.861000 -0.692200
O3    O     O_3   0.223241 0.299679 0.353905 -0.706388
O4    O     O_3   0.926457 0.788033 0.702649 -0.668192
O5    O     O_3   0.422425 0.116060 0.277715 -0.657872
O6    O     O_R   0.500000 0.319660 0.381240 -0.413167
O7    O     O_R   0.370250 0.499960 0.618800 -0.506266
O8    O     O_R   0.370260 0.499980 0.381230 -0.500441
O9    O     O_R   0.500000 0.680340 0.618760 -0.498557
O10   O     O_R   0.500010 0.680360 0.381190 -0.518518
O11   O     O_R   0.629740 0.500020 0.618770 -0.531251
O12   O     O_R   0.629750 0.500040 0.381200 -0.492217
O13   O     O_3   0.445446 0.816942 0.816472 -0.652193

loop_
_geom_bond_atom_site_label_1
_geom_bond_atom_site_label_2
_ccdc_geom_bond_type
C37   H4    S    
C37   C38   A    
Cu2   O10   S    
C2    C34   A    
C16   O9    A    
C16   C17   S    
C4    O8    A    
C1    O1    A    
C33   C34   A    
C2    C3    A    
C27   O12   A    
Br3   C30   S    
C31   C32   A    
C24   N1    A    
C23   C31   A    
C26   H16   S    
C13   C14   A    
C20   C21   A    
C5    C36   A    
C6    C7    A    
Cu1   N2    S    
C25   N1    A    
Cu2   O12   S    
C18   C24   A    
H6    O2    S    
C10   C11   A    
H5    O13   S    
C16   O10   A    
C19   H14   S    
Br2   C8    S    
C12   C32   A    
C25   H12   S    
C14   C15   A    
C14   O5    S    
C28   H1    S    
C32   C35   A    
C21   C22   A    
C12   C38   A    
C2    O3    S    
C36   C37   A    
C1    O6    A    
C27   O11   A    
Cu2   O6    S    
C3    C5    A    
Cu1   O7    S    
H8    O4    S    
C1    C13   S    
C6    C11   A    
C34   C35   A    
C28   C29   A    
C30   C31   A    
C33   H2    S    
C38   O4    S    
H9    O5    S    
C23   C33   A    
C20   O2    S    
Cu2   O8    S    
C11   C13   A    
C6    H10   S    
Cu1   Cu2   S    
Cu2   N1    S    
C26   N2    A    
C25   C26   A    
Cu1   O11   S    
C10   C17   A    
Br1   C7    S    
C4    O7    A    
C18   H13   S    
C8    C9    A    
C12   C28   A    
C3    C4    S    
C22   C24   A    
C29   C30   A    
C27   C29   S    
C35   C36   A    
Cu1   O9    S    
C15   C17   A    
C22   N2    A    
H7    O3    S    
C5    H3    S    
C7    C8    A    
C15   H11   S    
C9    C10   A    
C21   H15   S    
C9    O13   S    
C19   C20   A    
C18   C19   A    
C23   H17   S    
Cu1   O1    S    
