data_mof_unit_24735.cif
_audit_creation_date              2012-12-11T16:29:32-0500
_audit_creation_method            fapswitch 2.2
_symmetry_space_group_name_H-M    P1
_symmetry_Int_Tables_number       1
_space_group_crystal_system       triclinic
_cell_length_a                    6.955015
_cell_length_b                    17.355221
_cell_length_c                    18.726371
_cell_angle_alpha                 106.348007
_cell_angle_beta                  89.620328
_cell_angle_gamma                 90.44898
_cell_volume                      2168.90467864

loop_
_atom_site_label
_atom_site_type_symbol
_atom_type_description
_atom_site_fract_x
_atom_site_fract_y
_atom_site_fract_z
_atom_type_partial_charge
O1    O     O_R   0.494360 0.415680 0.413760 -0.539603
O2    O     O_R   0.818810 0.432910 0.557230 -0.526313
O3    O     O_R   0.994290 0.584320 0.586240 -0.536145
C1    C     C_R   0.649766 0.416004 0.580647 0.752267
O4    O     O_R   0.823740 0.406440 0.412520 -0.541185
O5    O     O_R   0.999250 0.557660 0.440500 -0.531629
C2    C     C_R   0.655657 0.385768 0.383279 0.699404
O6    O     O_R   0.489400 0.442340 0.559500 -0.491241
O7    O     O_3   0.662500 0.549650 0.509350 -0.368267
V1    V     V_3+5 0.935340 0.490790 0.498270 1.457216
O8    O     O_R   0.329270 0.567090 0.442770 -0.535793
C3    C     C_R   0.161199 0.583961 0.419324 0.681250
O9    O     O_R   0.324340 0.593560 0.587480 -0.515087
C4    C     C_R   0.155268 0.615832 0.615482 0.834541
V2    V     V_3+5 0.435970 0.509210 0.501730 1.480888
O10   O     O_3   0.158940 0.450350 0.490650 -0.352802
H1    H     H_    0.889136 0.851305 0.557775 0.113942
C5    C     C_R   0.274884 0.599028 0.760852 0.588456
C6    C     C_R   0.336095 0.591468 0.829272 -0.165005
C7    C     C_R   0.328018 0.656358 0.892487 -0.225659
C8    C     C_R   0.257384 0.729608 0.888194 -0.137756
C9    C     C_R   0.195764 0.740081 0.819656 0.012540
C10   C     C_R   0.206203 0.673803 0.754083 -0.047585
C11   C     C_R   0.120447 0.814758 0.816411 -0.153081
C12   C     C_R   0.056346 0.823765 0.747566 0.077771
C13   C     C_R   0.069421 0.758448 0.681721 0.054526
C14   C     C_R   0.144570 0.683571 0.684730 -0.196553
C15   C     C_R   0.982179 0.897835 0.742574 -0.146842
C16   C     C_R   0.921560 0.907150 0.674775 -0.120611
C17   C     C_R   0.935098 0.843602 0.610446 -0.112546
C18   C     C_R   0.008834 0.770199 0.613469 -0.140278
H2    H     H_    0.388511 0.534307 0.833417 0.147308
H3    H     H_    0.374568 0.649630 0.945449 0.145208
H4    H     H_    0.250305 0.777581 0.939527 0.118996
H5    H     H_    0.971105 0.949565 0.790741 0.105664
H6    H     H_    0.864982 0.964201 0.672093 0.116987
H7    H     H_    0.018589 0.723180 0.561546 0.090537
C19   C     C_1   0.111660 0.863795 0.132521 -0.217533
C20   C     C_1   0.119098 0.821146 0.176028 -0.002994
C21   C     C_1   0.128455 0.770855 0.227867 -0.005913
C22   C     C_1   0.136475 0.728533 0.271649 -0.007246
C23   C     C_1   0.145893 0.678332 0.323558 -0.002868
C24   C     C_1   0.153411 0.635832 0.367182 -0.209335
C25   C     C_1   0.641069 0.364087 0.632690 -0.163903
C26   C     C_1   0.636918 0.321507 0.676276 0.012587
C27   C     C_1   0.633693 0.271266 0.728174 0.000180
C28   C     C_1   0.631340 0.228930 0.771988 -0.001656
C29   C     C_1   0.628128 0.178664 0.823865 -0.003031
C30   C     C_1   0.623998 0.136042 0.867415 -0.218503
H8    H     H_    0.712897 0.134356 0.447358 0.114575
C31   C     C_R   0.628790 0.412214 0.230030 0.143434
C32   C     C_R   0.592796 0.420494 0.158847 -0.096380
C33   C     C_R   0.563267 0.354244 0.098524 -0.165443
C34   C     C_R   0.572545 0.277805 0.107097 -0.134868
C35   C     C_R   0.605382 0.265404 0.177424 0.042109
C36   C     C_R   0.626811 0.333369 0.241680 0.048491
C37   C     C_R   0.619937 0.185909 0.183220 -0.171786
C38   C     C_R   0.647813 0.172774 0.253501 0.063833
C39   C     C_R   0.659131 0.238997 0.318500 0.064203
C40   C     C_R   0.647804 0.319031 0.313220 -0.171247
C41   C     C_R   0.661649 0.093870 0.260541 -0.140456
C42   C     C_R   0.685456 0.080512 0.329848 -0.117072
C43   C     C_R   0.695124 0.144989 0.393530 -0.120085
C44   C     C_R   0.681903 0.223267 0.388307 -0.126900
H9    H     H_    0.590329 0.479205 0.149251 0.118219
H10   H     H_    0.537186 0.362157 0.044086 0.127273
H11   H     H_    0.553468 0.228400 0.057412 0.104115
H12   H     H_    0.653332 0.041600 0.212708 0.098578
H13   H     H_    0.695662 0.019770 0.334162 0.116855
H14   H     H_    0.690009 0.271036 0.439765 0.087377
O11   O     O_R   0.775690 0.057750 0.940570 -0.523541
O12   O     O_R   0.441200 0.093570 0.087490 -0.534810
O13   O     O_R   0.265840 0.942320 0.059480 -0.524709
C45   C     C_R   0.609804 0.116233 0.115285 0.699203
O14   O     O_R   0.446270 0.067110 0.942790 -0.526095
O15   O     O_R   0.270950 0.915660 0.913750 -0.533012
C46   C     C_R   0.615315 0.084055 0.919396 0.711219
O16   O     O_R   0.770580 0.084400 0.086300 -0.532034
O17   O     O_3   0.602640 0.950400 0.990690 -0.359697
V3    V     V_3+5 0.329740 0.009200 0.001730 1.420267
O18   O     O_R   0.940900 0.906360 0.912450 -0.535482
C47   C     C_R   0.110029 0.883653 0.884849 0.692280
O19   O     O_R   0.935830 0.932820 0.057160 -0.525192
C48   C     C_R   0.103904 0.915882 0.080551 0.711926
V4    V     V_3+5 0.829130 0.990680 0.998180 1.420094
O20   O     O_3   0.106100 0.049590 0.009310 -0.358172
C49   C     C_3   0.679571 0.489085 0.288638 -0.768170
H15   H     H_    0.821340 0.483064 0.313057 0.209469
H16   H     H_    0.693439 0.541056 0.265262 0.193077
H17   H     H_    0.565353 0.505112 0.331481 0.214075
F1    F     F_    0.279835 0.531645 0.702654 -0.708820

loop_
_geom_bond_atom_site_label_1
_geom_bond_atom_site_label_2
_ccdc_geom_bond_type
C35   C36   A    
H8    C43   S    
C22   C23   S    
C6    C7    A    
O11   C46   A    
C1    O6    A    
O18   C47   A    
C33   C34   A    
C25   C26   T    
C12   C15   A    
C16   H6    S    
C39   C44   A    
C16   C17   A    
C5    F1    S    
C15   C16   A    
C5    C6    A    
C3    C24   S    
O5    C3    A    
C17   C18   A    
V2    O10   S    
C31   C36   A    
C11   C47   S    
V3    O20   S    
C27   C28   T    
O8    V2    S    
O19   C48   A    
C15   H5    S    
O1    V2    S    
C44   H14   S    
C4    C14   S    
O7    V1    S    
O13   C48   A    
C38   C41   A    
C39   C40   A    
O11   V4    S    
O9    C4    A    
H1    C17   S    
C6    H2    S    
C5    C10   A    
C11   C12   A    
O12   C45   A    
O15   C47   A    
C20   C21   S    
O4    C2    A    
C8    H4    S    
C1    C25   S    
C38   C39   A    
V4    O20   S    
C31   C32   A    
C42   H13   S    
C18   H7    S    
C37   C45   S    
O2    C1    A    
C42   C43   A    
C28   C29   S    
C13   C14   A    
C33   H10   S    
O14   C46   A    
O3    C4    A    
C7    H3    S    
O16   V4    S    
C29   C30   T    
O19   V4    S    
O6    V2    S    
C10   C14   A    
C35   C37   A    
C9    C11   A    
O17   V3    S    
C23   C24   T    
C31   C49   S    
O2    V1    S    
C2    C40   S    
O17   V4    S    
C32   C33   A    
O14   V3    S    
C34   C35   A    
C21   C22   T    
C19   C48   S    
O1    C2    A    
O15   V3    S    
O5    V1    S    
O8    C3    A    
C34   H11   S    
O9    V2    S    
C12   C13   A    
O4    V1    S    
O12   V3    S    
O3    V1    S    
V1    O10   S    
C41   H12   S    
C37   C38   A    
C19   C20   T    
O13   V3    S    
C30   C46   S    
O7    V2    S    
C41   C42   A    
C43   C44   A    
C26   C27   S    
C13   C18   A    
C36   C40   A    
C7    C8    A    
C49   H15   S    
C45   O16   A    
C49   H17   S    
C49   H16   S    
C9    C10   A    
C8    C9    A    
O18   V4    S    
C32   H9    S    
