data_mof_unit_65267.cif
_audit_creation_date              2012-12-10T18:22:27-0500
_audit_creation_method            fapswitch 2.2
_symmetry_space_group_name_H-M    P1
_symmetry_Int_Tables_number       1
_space_group_crystal_system       triclinic
_cell_length_a                    47.90621
_cell_length_b                    35.628226
_cell_length_c                    32.022022
_cell_angle_alpha                 90.000024
_cell_angle_beta                  131.924048
_cell_angle_gamma                 89.999967
_cell_volume                      40665.4797183

loop_
_atom_site_label
_atom_site_type_symbol
_atom_type_description
_atom_site_fract_x
_atom_site_fract_y
_atom_site_fract_z
_atom_type_partial_charge
C1    C     C_R   0.072400 0.000017 0.572398 0.786172
C2    C     C_R   0.927599 0.000017 0.427602 0.786625
C3    C     C_R   0.572400 0.500017 0.572398 0.786370
C4    C     C_R   0.427599 0.500017 0.427601 0.786593
C5    C     C_3   0.959430 0.003033 0.185129 -0.369149
C6    C     C_3   0.040662 0.001309 0.814960 -0.369163
C7    C     C_3   0.459587 0.504686 0.185284 -0.369166
C8    C     C_3   0.540505 0.503811 0.814806 -0.369157
C9    C     C_3   0.959394 0.003305 0.233565 -0.352368
C10   C     C_3   0.040706 0.001578 0.766533 -0.352377
C11   C     C_3   0.459560 0.504959 0.233729 -0.352356
C12   C     C_3   0.540536 0.504084 0.766365 -0.352364
C13   C     C_1   0.000002 0.999783 0.162618 -0.088753
C14   C     C_1   0.999992 0.999783 0.837376 -0.088753
C15   C     C_1   0.499997 0.499782 0.162612 -0.088752
C16   C     C_1   0.500001 0.499782 0.837385 -0.088751
C17   C     C_1   0.999982 0.999765 0.337373 -0.047221
C18   C     C_1   0.000002 0.999765 0.662611 -0.047225
C19   C     C_1   0.499968 0.499766 0.337359 -0.047216
C20   C     C_1   0.500024 0.499766 0.662633 -0.047219
C21   C     C_1   0.000005 0.999968 0.375083 -0.140001
C22   C     C_1   0.999989 0.999968 0.624911 -0.139996
C23   C     C_1   0.500000 0.499968 0.375078 -0.140012
C24   C     C_1   0.499997 0.499968 0.624919 -0.140010
C25   C     C_R   0.326864 0.000540 0.864646 -0.151352
C26   C     C_R   0.673136 0.000547 0.135354 -0.151277
C27   C     C_R   0.826864 0.500547 0.864647 -0.151227
C28   C     C_R   0.173135 0.500538 0.135353 -0.151205
C29   C     C_R   0.366072 0.000631 0.903914 -0.183610
C30   C     C_R   0.633928 0.000637 0.096087 -0.183588
C31   C     C_R   0.866072 0.500637 0.903914 -0.183597
C32   C     C_R   0.133928 0.500629 0.096086 -0.183594
C33   C     C_R   0.386124 0.999860 0.886123 -0.031841
C34   C     C_R   0.613876 0.999860 0.113877 -0.031867
C35   C     C_R   0.886123 0.499860 0.886123 -0.031858
C36   C     C_R   0.113876 0.499860 0.113877 -0.031859
C37   C     C_R   0.366122 0.998870 0.828266 -0.161177
C38   C     C_R   0.633878 0.998864 0.171734 -0.161162
C39   C     C_R   0.866122 0.498865 0.828266 -0.161142
C40   C     C_R   0.133878 0.498873 0.171734 -0.161156
C41   C     C_R   0.326916 0.998765 0.789090 -0.148022
C42   C     C_R   0.673084 0.998759 0.210910 -0.147971
C43   C     C_R   0.826915 0.498759 0.789090 -0.148067
C44   C     C_R   0.173084 0.498767 0.210910 -0.148063
C45   C     C_R   0.000018 0.000012 0.419945 0.827813
C46   C     C_R   0.999982 0.000012 0.580055 0.827758
C47   C     C_R   0.500018 0.500012 0.419945 0.827893
C48   C     C_R   0.499982 0.500012 0.580055 0.827852
C49   C     C_R   0.307236 0.999646 0.807207 0.141019
C50   C     C_R   0.692764 0.999645 0.192794 0.140969
C51   C     C_R   0.807236 0.499646 0.807207 0.140988
C52   C     C_R   0.192764 0.499646 0.192793 0.140973
C53   C     C_1   0.266914 0.999711 0.766870 -0.056435
C54   C     C_1   0.733086 0.999711 0.233131 -0.056317
C55   C     C_1   0.766914 0.499711 0.766870 -0.056370
C56   C     C_1   0.233086 0.499711 0.233130 -0.056334
C57   C     C_1   0.233121 0.999791 0.733075 -0.058529
C58   C     C_1   0.766879 0.999791 0.266926 -0.058336
C59   C     C_1   0.733121 0.499791 0.733076 -0.058437
C60   C     C_1   0.266879 0.499791 0.266924 -0.058360
C61   C     C_R   0.173095 0.965915 0.673057 -0.151176
C62   C     C_R   0.826905 0.965915 0.326958 -0.150847
C63   C     C_R   0.673095 0.465915 0.673047 -0.151044
C64   C     C_R   0.326905 0.465915 0.326943 -0.150886
C65   C     C_R   0.133890 0.965933 0.633866 -0.181704
C66   C     C_R   0.866110 0.965933 0.366148 -0.181054
C67   C     C_R   0.633890 0.465933 0.633856 -0.181479
C68   C     C_R   0.366110 0.465933 0.366135 -0.181157
C69   C     C_R   0.113898 0.999990 0.613885 -0.037380
C70   C     C_R   0.886102 0.999990 0.386115 -0.037459
C71   C     C_R   0.613898 0.499990 0.613886 -0.037389
C72   C     C_R   0.386102 0.499990 0.386113 -0.037420
C73   C     C_R   0.133979 0.033991 0.633965 -0.190343
C74   C     C_R   0.866021 0.033991 0.366022 -0.190245
C75   C     C_R   0.633979 0.533991 0.633977 -0.190270
C76   C     C_R   0.366021 0.533991 0.366032 -0.190232
C77   C     C_R   0.173192 0.033891 0.673165 -0.157371
C78   C     C_R   0.826808 0.033891 0.326823 -0.157276
C79   C     C_R   0.673192 0.533891 0.673177 -0.157298
C80   C     C_R   0.326807 0.533891 0.326832 -0.157273
C81   C     C_R   0.192797 0.999871 0.692758 0.142113
C82   C     C_R   0.807202 0.999871 0.307243 0.142005
C83   C     C_R   0.692798 0.499871 0.692759 0.142076
C84   C     C_R   0.307202 0.499871 0.307241 0.142034
C85   C     C_R   0.000000 0.072328 1.000000 0.786820
C86   C     C_R   0.500000 0.572328 1.000000 0.786818
C87   C     C_3   0.023255 0.032812 0.297582 -0.447478
C88   C     C_3   0.978155 0.033770 0.703829 -0.447367
C89   C     C_3   0.524571 0.531836 0.298898 -0.447589
C90   C     C_3   0.476121 0.532359 0.701794 -0.447534
C91   C     C_R   0.000014 0.999927 0.080089 0.833796
C92   C     C_R   0.999986 0.999927 0.919911 0.833802
C93   C     C_R   0.500014 0.499927 0.080089 0.833782
C94   C     C_R   0.499986 0.499927 0.919911 0.833786
C95   C     C_R   1.000000 0.927519 0.000000 0.790479
C96   C     C_R   0.500000 0.427519 1.000000 0.790453
C97   C     C_R   0.500000 0.927809 0.000000 0.870479
C98   C     C_R   1.000000 0.427809 0.000000 0.870480
C99   C     C_R   0.427604 0.000061 0.927605 0.809840
C100  C     C_R   0.572396 0.000061 0.072395 0.809844
C101  C     C_R   0.927604 0.500061 0.927605 0.809847
C102  C     C_R   0.072396 0.500061 0.072394 0.809838
C103  C     C_R   0.500000 0.072533 0.000000 0.785340
C104  C     C_R   1.000000 0.572533 0.000000 0.785341
C105  C     C_R   0.470883 0.827226 0.951475 -0.161806
C106  C     C_R   0.529116 0.827226 0.048524 -0.161783
C107  C     C_R   0.970883 0.327226 0.951475 -0.161790
C108  C     C_R   0.029116 0.327226 0.048524 -0.161785
C109  C     C_R   0.470675 0.866499 0.951117 0.111136
C110  C     C_R   0.529324 0.866499 0.048883 0.111133
C111  C     C_R   0.970675 0.366499 0.951117 0.111144
C112  C     C_R   0.029324 0.366499 0.048883 0.111142
C113  C     C_R   0.500000 0.886511 1.000000 -0.120924
C114  C     C_R   0.000000 0.386511 1.000000 -0.120909
C115  C     C_R   0.500000 0.807574 1.000000 0.060951
C116  C     C_R   1.000000 0.307574 1.000000 0.060960
C117  C     C_1   0.500000 0.767169 1.000000 -0.022277
C118  C     C_1   1.000000 0.267169 1.000000 -0.022276
C119  C     C_3   0.017717 0.962464 0.291760 0.131404
C120  C     C_3   0.980703 0.963251 0.706662 0.131330
C121  C     C_3   0.516170 0.461773 0.290215 0.131470
C122  C     C_3   0.483007 0.462131 0.708963 0.131436
C123  C     C_1   1.000000 0.233326 1.000000 -0.059128
C124  C     C_1   0.500000 0.733326 1.000000 -0.059124
C125  C     C_R   0.966035 0.173225 0.965930 -0.153699
C126  C     C_R   0.033965 0.173225 0.034070 -0.153701
C127  C     C_R   0.466035 0.673225 0.965936 -0.153709
C128  C     C_R   0.533964 0.673225 0.034064 -0.153682
C129  C     C_R   0.965995 0.133974 0.965891 -0.189207
C130  C     C_R   0.034005 0.133974 0.034108 -0.189225
C131  C     C_R   0.465995 0.633974 0.965897 -0.189208
C132  C     C_R   0.534005 0.633974 0.034102 -0.189205
C133  C     C_R   1.000000 0.113898 1.000000 -0.038020
C134  C     C_R   0.500000 0.613898 1.000000 -0.038026
C135  C     C_R   1.000000 0.192925 1.000000 0.141243
C136  C     C_R   0.500000 0.692925 1.000000 0.141237
C137  C     C_R   0.500010 0.173215 0.037834 -0.154585
C138  C     C_R   0.499990 0.173215 0.962166 -0.154573
C139  C     C_R   0.000017 0.673215 0.037841 -0.154561
C140  C     C_R   0.999983 0.673215 0.962159 -0.154547
C141  C     C_R   0.500010 0.134010 0.037881 -0.189513
C142  C     C_R   0.499990 0.134010 0.962119 -0.189509
C143  C     C_R   0.000017 0.634010 0.037888 -0.189497
C144  C     C_R   0.999983 0.634010 0.962112 -0.189491
C145  C     C_R   0.500000 0.113995 1.000000 -0.036560
C146  C     C_R   1.000000 0.613995 1.000000 -0.036572
C147  C     C_R   0.500000 0.192844 1.000000 0.143352
C148  C     C_R   1.000000 0.692844 1.000000 0.143328
C149  C     C_1   0.500000 0.233132 1.000000 -0.059630
C150  C     C_1   1.000000 0.733132 1.000000 -0.059592
C151  C     C_3   0.017167 0.962548 0.242601 -0.385037
C152  C     C_3   0.981260 0.963311 0.755827 -0.384939
C153  C     C_3   0.515626 0.461879 0.241063 -0.385107
C154  C     C_3   0.483555 0.462225 0.758120 -0.385067
C155  C     C_1   1.000000 0.766907 1.000000 -0.058641
C156  C     C_1   0.500000 0.266907 1.000000 -0.058686
C157  C     C_R   0.966020 0.826824 0.966029 -0.153092
C158  C     C_R   0.033980 0.826824 0.033970 -0.153222
C159  C     C_R   0.466020 0.326824 0.966017 -0.153173
C160  C     C_R   0.533980 0.326824 0.033982 -0.153229
C161  C     C_R   0.965977 0.866029 0.965987 -0.186866
C162  C     C_R   0.034022 0.866029 0.034013 -0.187004
C163  C     C_R   0.465977 0.366029 0.965975 -0.186931
C164  C     C_R   0.534023 0.366029 0.034025 -0.186996
C165  C     C_R   1.000000 0.886049 0.000000 -0.036603
C166  C     C_R   0.500000 0.386049 1.000000 -0.036609
C167  C     C_R   1.000000 0.807195 1.000000 0.144433
C168  C     C_R   0.500000 0.307195 1.000000 0.144432
C169  C     C_1   0.000003 0.999875 0.124930 -0.169161
C170  C     C_1   0.999996 0.999876 0.875068 -0.169164
C171  C     C_1   0.500001 0.499875 0.124929 -0.169155
C172  C     C_1   0.499998 0.499875 0.875070 -0.169158
C173  C     C_3   0.999941 0.999326 0.291225 0.248777
C174  C     C_3   0.000026 0.999324 0.708742 0.248768
C175  C     C_3   0.499910 0.499329 0.291194 0.248786
C176  C     C_3   0.500073 0.499327 0.708789 0.248781
C177  C     C_3   0.023378 0.032888 0.249220 -0.379312
C178  C     C_3   0.978038 0.033851 0.752197 -0.379404
C179  C     C_3   0.524699 0.531907 0.250541 -0.379206
C180  C     C_3   0.475996 0.532433 0.750154 -0.379263
C181  C     C_3   0.000011 0.999590 0.208699 0.265913
C182  C     C_3   0.999973 0.999591 0.791285 0.265905
C183  C     C_3   0.499995 0.499589 0.208683 0.265913
C184  C     C_3   0.499997 0.499589 0.791309 0.265910
Cu1   Cu    Cu3+1 1.000000 0.037300 0.500000 0.947348
Cu2   Cu    Cu3+1 0.500000 0.537300 0.500000 0.947418
Cu3   Cu    Cu3+1 0.000000 0.962740 0.500000 0.996699
Cu4   Cu    Cu3+1 0.500000 0.462740 0.500000 0.996404
Cu5   Cu    Cu3+1 0.037280 0.999890 0.037280 0.952653
Cu6   Cu    Cu3+1 0.962720 0.999890 0.962720 0.952884
Cu7   Cu    Cu3+1 0.537280 0.499890 0.037280 0.952762
Cu8   Cu    Cu3+1 0.462720 0.499890 0.962720 0.952844
Cu9   Cu    Cu3+1 0.500020 0.000110 0.958700 0.978897
Cu10  Cu    Cu3+1 0.499980 0.000110 0.041300 0.978870
Cu11  Cu    Cu3+1 0.000020 0.500110 0.958700 0.978928
Cu12  Cu    Cu3+1 0.999980 0.500110 0.041300 0.978912
H1    H     H_    0.052778 0.030946 0.267098 0.170485
H2    H     H_    0.948582 0.033159 0.734266 0.170467
H3    H     H_    0.553996 0.528768 0.268317 0.170517
H4    H     H_    0.446638 0.529927 0.732319 0.170499
H5    H     H_    0.011345 0.059754 0.297258 0.183355
H6    H     H_    0.991197 0.060182 0.705285 0.183345
H7    H     H_    0.513768 0.559242 0.299680 0.183361
H8    H     H_    0.487512 0.559525 0.701600 0.183359
H9    H     H_    0.011608 0.059889 0.225882 0.175082
H10   H     H_    0.990944 0.060329 0.776669 0.175086
H11   H     H_    0.514039 0.559366 0.228313 0.175080
H12   H     H_    0.487246 0.559655 0.772972 0.175080
H13   H     H_    0.942131 0.979141 0.156403 0.181001
H14   H     H_    0.056932 0.976703 0.842657 0.180937
H15   H     H_    0.441330 0.481518 0.155599 0.181049
H16   H     H_    0.558258 0.480255 0.843986 0.181024
H17   H     H_    0.311868 0.001208 0.879080 0.135699
H18   H     H_    0.688132 0.001219 0.120921 0.135777
H19   H     H_    0.811868 0.501219 0.879080 0.135813
H20   H     H_    0.188132 0.501204 0.120919 0.135845
H21   H     H_    0.380644 0.001370 0.948140 0.155782
H22   H     H_    0.619356 0.001381 0.051861 0.155806
H23   H     H_    0.880645 0.501381 0.948140 0.155816
H24   H     H_    0.119356 0.501366 0.051860 0.155825
H25   H     H_    0.380735 0.998168 0.813236 0.163188
H26   H     H_    0.619265 0.998157 0.186764 0.163204
H27   H     H_    0.880734 0.498157 0.813236 0.163192
H28   H     H_    0.119265 0.498172 0.186764 0.163183
H29   H     H_    0.311961 0.998034 0.744694 0.136947
H30   H     H_    0.688039 0.998022 0.255306 0.137004
H31   H     H_    0.811960 0.498023 0.744695 0.136912
H32   H     H_    0.188039 0.498038 0.255306 0.136924
H33   H     H_    0.188031 0.939427 0.687985 0.139459
H34   H     H_    0.811969 0.939427 0.312040 0.139608
H35   H     H_    0.688031 0.439427 0.687967 0.139494
H36   H     H_    0.311969 0.439427 0.312016 0.139563
H37   H     H_    0.119274 0.939289 0.619251 0.160862
H38   H     H_    0.880726 0.939289 0.380773 0.161082
H39   H     H_    0.619274 0.439289 0.619233 0.160895
H40   H     H_    0.380726 0.439289 0.380750 0.161000
H41   H     H_    0.119428 0.060671 0.619423 0.155003
H42   H     H_    0.880571 0.060671 0.380553 0.155015
H43   H     H_    0.619429 0.560671 0.619444 0.155013
H44   H     H_    0.380571 0.560671 0.380573 0.155010
H45   H     H_    0.052618 0.031034 0.338600 0.167922
H46   H     H_    0.948743 0.033241 0.662764 0.167958
H47   H     H_    0.553836 0.528862 0.339820 0.167900
H48   H     H_    0.446797 0.530019 0.660816 0.167906
H49   H     H_    0.188210 0.060333 0.688182 0.134279
H50   H     H_    0.811790 0.060333 0.311795 0.134290
H51   H     H_    0.688210 0.560333 0.688203 0.134300
H52   H     H_    0.311790 0.560333 0.311814 0.134285
H53   H     H_    0.448184 0.812040 0.913919 0.162170
H54   H     H_    0.551816 0.812039 0.086080 0.162190
H55   H     H_    0.948184 0.312039 0.913919 0.162169
H56   H     H_    0.051816 0.312039 0.086080 0.162174
H57   H     H_    0.939578 0.188200 0.939388 0.135788
H58   H     H_    0.060422 0.188200 0.060612 0.135789
H59   H     H_    0.439578 0.688200 0.939399 0.135781
H60   H     H_    0.560422 0.688200 0.060601 0.135807
H61   H     H_    0.939344 0.119387 0.939157 0.155417
H62   H     H_    0.060656 0.119387 0.060842 0.155403
H63   H     H_    0.439344 0.619387 0.939168 0.155414
H64   H     H_    0.560656 0.619387 0.060831 0.155422
H65   H     H_    0.500018 0.188206 0.067283 0.136620
H66   H     H_    0.499982 0.188206 0.932716 0.136635
H67   H     H_    0.000030 0.688206 0.067296 0.136649
H68   H     H_    0.999969 0.688206 0.932704 0.136668
H69   H     H_    0.500018 0.119414 0.067550 0.155487
H70   H     H_    0.499982 0.119414 0.932450 0.155493
H71   H     H_    0.000030 0.619414 0.067562 0.155501
H72   H     H_    0.999969 0.619414 0.932437 0.155509
H73   H     H_    0.939570 0.811832 0.939587 0.135451
H74   H     H_    0.060430 0.811832 0.060413 0.135379
H75   H     H_    0.439570 0.311832 0.939565 0.135425
H76   H     H_    0.560430 0.311832 0.060434 0.135396
H77   H     H_    0.939327 0.880618 0.939344 0.156053
H78   H     H_    0.060673 0.880618 0.060656 0.155984
H79   H     H_    0.439327 0.380618 0.939322 0.156039
H80   H     H_    0.560673 0.380618 0.060678 0.156010
H81   H     H_    0.047405 0.960844 0.332076 0.125908
H82   H     H_    0.950972 0.962893 0.666306 0.125861
H83   H     H_    0.545767 0.458943 0.330441 0.125968
H84   H     H_    0.453356 0.459941 0.668684 0.125937
H85   H     H_    0.046319 0.959272 0.259822 0.149457
H86   H     H_    0.951996 0.961275 0.738498 0.149524
H87   H     H_    0.544622 0.457416 0.258128 0.149405
H88   H     H_    0.454470 0.458390 0.740967 0.149436
H89   H     H_    0.000744 0.938322 0.214101 0.205337
H90   H     H_    0.996641 0.938409 0.783285 0.205312
H91   H     H_    0.498231 0.438342 0.211589 0.205360
H92   H     H_    0.500439 0.438318 0.787081 0.205345
H93   H     H_    0.946805 0.030028 0.232291 0.159397
H94   H     H_    0.054418 0.027742 0.768926 0.159330
H95   H     H_    0.448070 0.532173 0.233553 0.159459
H96   H     H_    0.552610 0.531043 0.767125 0.159434
H97   H     H_    0.941352 0.980166 0.227340 0.207349
H98   H     H_    0.057749 0.977693 0.771757 0.207393
H99   H     H_    0.440589 0.482575 0.226575 0.207301
H100  H     H_    0.559018 0.481296 0.773030 0.207327
H101  H     H_    0.946256 0.029304 0.160181 0.166390
H102  H     H_    0.054939 0.026997 0.841009 0.166432
H103  H     H_    0.447495 0.531472 0.161417 0.166344
H104  H     H_    0.553172 0.530331 0.839247 0.166375
O1    O     O_R   0.054380 0.031500 0.554380 -0.590232
O2    O     O_R   0.945620 0.031500 0.445620 -0.590245
O3    O     O_R   0.554380 0.531500 0.554380 -0.590222
O4    O     O_R   0.445620 0.531500 0.445620 -0.590233
O5    O     O_R   0.445640 0.000120 0.910750 -0.576477
O6    O     O_R   0.554360 0.000120 0.089250 -0.576481
O7    O     O_R   0.945640 0.500120 0.910750 -0.576478
O8    O     O_R   0.054360 0.500120 0.089250 -0.576483
O9    O     O_R   0.445650 0.000140 0.980530 -0.589365
O10   O     O_R   0.554350 0.000140 0.019470 -0.589354
O11   O     O_R   0.945650 0.500140 0.980530 -0.589350
O12   O     O_R   0.054350 0.500140 0.019470 -0.589350
O13   O     O_R   0.499990 0.054510 0.965080 -0.590416
O14   O     O_R   0.500010 0.054510 0.034920 -0.590418
O15   O     O_R   0.999990 0.554510 0.965080 -0.590409
O16   O     O_R   0.000010 0.554510 0.034920 -0.590415
O17   O     O_R   0.054410 0.968530 0.554410 -0.583416
O18   O     O_R   0.945590 0.968530 0.445590 -0.583083
O19   O     O_R   0.554410 0.468530 0.554410 -0.583351
O20   O     O_R   0.445590 0.468530 0.445590 -0.583187
O21   O     O_R   1.000000 0.031500 0.439720 -0.587134
O22   O     O_R   0.000000 0.031500 0.560280 -0.587170
O23   O     O_R   0.500000 0.531500 0.439720 -0.587085
O24   O     O_R   0.500000 0.531500 0.560280 -0.587113
O25   O     O_R   0.000030 0.968530 0.439750 -0.559920
O26   O     O_R   0.999970 0.968530 0.560250 -0.559816
O27   O     O_R   0.500030 0.468530 0.439750 -0.560075
O28   O     O_R   0.499970 0.468530 0.560250 -0.559993
O29   O     O_R   0.031480 0.054290 0.031480 -0.587835
O30   O     O_R   0.968520 0.054290 0.968520 -0.587817
O31   O     O_R   0.531480 0.554290 0.031480 -0.587821
O32   O     O_R   0.468520 0.554290 0.968520 -0.587822
O33   O     O_R   0.031490 0.999900 0.091770 -0.578703
O34   O     O_R   0.968510 0.999900 0.908230 -0.578617
O35   O     O_R   0.531490 0.499900 0.091770 -0.578761
O36   O     O_R   0.468510 0.499900 0.908230 -0.578727
O37   O     O_R   0.968550 0.999920 0.028830 -0.578334
O38   O     O_R   0.031450 0.999920 0.971170 -0.578427
O39   O     O_R   0.468550 0.499920 0.028830 -0.578260
O40   O     O_R   0.531450 0.499920 0.971170 -0.578298
O41   O     O_R   0.031500 0.945500 0.031490 -0.587662
O42   O     O_R   0.968500 0.945500 0.968510 -0.587593
O43   O     O_R   0.531500 0.445500 0.031490 -0.587641
O44   O     O_R   0.468500 0.445500 0.968510 -0.587611
O45   O     O_R   0.500040 0.945720 0.965170 -0.558567
O46   O     O_R   0.499960 0.945720 0.034830 -0.558585
O47   O     O_R   0.000040 0.445720 0.965170 -0.558569
O48   O     O_R   0.999960 0.445720 0.034830 -0.558575
I1    I     I_    0.424177 0.893680 0.876220 -0.377769
I2    I     I_    0.575823 0.893680 0.123780 -0.377596
I3    I     I_    0.924177 0.393680 0.876220 -0.377775
I4    I     I_    0.075823 0.393680 0.123780 -0.377697
Br1   Br    Br    0.993215 0.917378 0.288919 -0.536630
Br2   Br    Br    0.003267 0.917164 0.707563 -0.536571
Br3   Br    Br    0.489849 0.417723 0.285555 -0.536762
Br4   Br    Br    0.508370 0.417523 0.712665 -0.536714

loop_
_geom_bond_atom_site_label_1
_geom_bond_atom_site_label_2
_ccdc_geom_bond_type
C10   C174  S    
Cu12  O11   S    
C28   H20   S    
C55   C59   T    
C153  H87   S    
C154  H88   S    
C121  Br3   S    
Cu7   O40   S    
Cu4   O20   S    
C98   O47   A    
C103  O14   A    
C66   H38   S    
Cu1   O1    S    
C91   O33   A    
C26   C50   A    
C152  H90   S    
C87   H45   S    
C29   C33   A    
C26   H18   S    
C97   O46   A    
C64   C84   A    
C94   C172  S    
C86   C134  S    
C155  C167  S    
C1    O17   A    
C70   C74   A    
C89   H47   S    
C3    O19   A    
C179  C183  S    
C141  C145  A    
C125  C135  A    
Cu9   O45   S    
Cu6   O42   S    
C41   C49   A    
C14   C182  S    
C17   C173  S    
C158  C167  A    
C90   H8    S    
C25   C29   A    
C95   O41   A    
C179  H11   S    
C160  H76   S    
C120  C152  S    
C27   C31   A    
Cu7   Cu8   S    
C86   O32   A    
C28   C32   A    
C127  C136  A    
C119  Br1   S    
C62   C66   A    
Cu12  O8    S    
C17   C21   T    
Cu5   O33   S    
C19   C23   T    
C87   C177  S    
C162  C165  A    
C100  O10   A    
C78   C82   A    
C101  O11   A    
C68   C72   A    
C102  O12   A    
C2    O2    A    
C178  C182  S    
C161  H77   S    
C129  C133  A    
C46   O22   A    
C104  O16   A    
Cu10  O9    S    
Cu2   O4    S    
C121  H83   S    
C122  H84   S    
C119  H81   S    
C16   C184  S    
C7    C183  S    
C106  C115  A    
C122  Br4   S    
C106  H54   S    
C58   C82   S    
C37   H25   S    
C38   H26   S    
C66   C70   A    
Cu3   O25   S    
C122  C176  S    
C178  H10   S    
C25   H17   S    
C27   C51   A    
C116  C118  S    
C99   O5    A    
C51   C55   S    
Cu9   O10   S    
C160  C168  A    
C127  C131  A    
C98   C114  S    
Cu11  O12   S    
Cu11  Cu12  S    
C110  I2    S    
C61   C65   A    
C159  H75   S    
C132  C134  A    
Cu9   Cu10  S    
C73   C77   A    
C88   H6    S    
C75   C79   A    
Cu6   O34   S    
C161  C165  A    
C180  C184  S    
C139  H67   S    
C30   C34   A    
C9    H97   S    
C132  H64   S    
C121  C175  S    
C48   O24   A    
C11   H99   S    
Cu7   O31   S    
C6    C182  S    
C127  H59   S    
C64   C68   A    
Cu12  O48   S    
C148  C150  S    
C129  H61   S    
C49   C53   S    
Cu1   Cu3   S    
C92   O34   A    
C156  C168  S    
Cu2   O23   S    
C88   C174  S    
C143  H71   S    
C139  C143  A    
C8    H104  S    
C62   H34   S    
C153  H91   S    
C9    C173  S    
C4    O20   A    
Cu1   O22   S    
C12   C176  S    
C44   C52   A    
C13   C169  T    
C177  H1    S    
Cu9   O5    S    
C85   O30   A    
C151  H89   S    
C90   C176  S    
C130  H62   S    
C152  H86   S    
C21   C45   S    
C42   H30   S    
C90   C180  S    
C139  C148  A    
C23   C47   S    
C91   C169  S    
C24   C48   S    
C104  C146  S    
C92   C170  S    
C2    O18   A    
C123  C135  S    
C33   C99   S    
C79   H51   S    
C74   H42   S    
C125  H57   S    
C5    C9    S    
C180  H4    S    
C125  C129  A    
C34   C100  S    
C8    C12   S    
C157  H73   S    
C126  H58   S    
C32   H24   S    
C42   C50   A    
C18   C174  S    
C120  C174  S    
C26   C30   A    
C13   C181  S    
C150  C155  T    
Cu3   O17   S    
C103  C145  S    
C63   H35   S    
C105  C109  A    
Cu4   O27   S    
Cu5   O29   S    
C18   C22   T    
C107  C111  A    
C105  C115  A    
C142  H70   S    
C7    H15   S    
C32   C36   A    
C94   O40   A    
C101  O7    A    
C98   O48   A    
C12   H96   S    
C102  O8    A    
C103  O13   A    
C61   C81   A    
C162  H78   S    
C20   C176  S    
Cu6   O37   S    
C177  C181  S    
C47   O23   A    
C128  H60   S    
C57   C81   S    
C37   C41   A    
C97   O45   A    
C107  C116  A    
C45   O25   A    
C93   O35   A    
C40   C44   A    
C140  H68   S    
C85   C133  S    
C10   H94   S    
C8    H16   S    
C137  H65   S    
C143  C146  A    
C75   H43   S    
C80   C84   A    
C131  C134  A    
C157  C167  A    
C163  H79   S    
C50   C54   S    
C121  C153  S    
C160  C164  A    
C65   H37   S    
C147  C149  S    
C117  C124  T    
C59   C83   S    
C90   H48   S    
C128  C136  A    
C88   H46   S    
C126  C130  A    
C4    O4    A    
C5    H101  S    
Cu6   O30   S    
C138  H66   S    
C115  C117  S    
C15   C183  S    
C61   H33   S    
C80   H52   S    
C69   C73   A    
C159  C163  A    
C10   H98   S    
C11   H95   S    
C62   C82   A    
Cu10  O46   S    
Cu7   O35   S    
C27   H19   S    
C142  C145  A    
C39   H27   S    
C144  H72   S    
C96   O43   A    
Cu4   O19   S    
C95   C165  S    
C5    C181  S    
C151  C181  S    
C31   H23   S    
C87   C173  S    
C41   H29   S    
C124  C136  S    
Cu1   O2    S    
C120  Br2   S    
C163  C166  A    
C144  C146  A    
C138  C142  A    
C64   H36   S    
C53   C57   T    
C1    C69   S    
C108  C112  A    
C63   C83   A    
C96   O44   A    
C93   O39   A    
C35   C39   A    
C77   C81   A    
C47   O27   A    
C15   C171  T    
C88   C178  S    
Cu8   O36   S    
C131  H63   S    
C22   C46   S    
C108  H56   S    
C126  C135  A    
C31   C35   A    
C130  C133  A    
C89   C175  S    
C152  C182  S    
C157  C161  A    
C4    C72   S    
C5    H13   S    
C33   C37   A    
C95   O42   A    
C137  C141  A    
C93   C171  S    
C86   O31   A    
C137  C147  A    
C140  C144  A    
C35   C101  S    
C6    C10   S    
Cu8   O39   S    
C11   C175  S    
C158  H74   S    
C107  H55   S    
C76   H44   S    
C108  C116  A    
Cu11  O47   S    
C105  H53   S    
C119  C173  S    
C79   C83   A    
C43   C51   A    
C179  H3    S    
C14   C170  T    
C65   C69   A    
Cu2   O24   S    
C177  H9    S    
C111  C114  A    
C67   C71   A    
C118  C123  T    
Cu5   Cu6   S    
C25   C49   A    
C56   C60   T    
C109  I1    S    
Cu12  O16   S    
C74   C78   A    
C104  O15   A    
Cu7   O43   S    
C2    C70   S    
C87   H5    S    
Cu1   O21   S    
C12   H100  S    
C9    H93   S    
C60   C84   S    
C3    C71   S    
Cu2   O3    S    
C85   O29   A    
C72   C76   A    
C140  C148  A    
C151  H85   S    
C94   O36   A    
C7    C11   S    
C67   H39   S    
C40   H28   S    
C149  C156  T    
C38   C42   A    
C45   O21   A    
Cu3   O26   S    
C159  C168  A    
C36   C102  S    
C68   H40   S    
C78   H50   S    
Cu8   O44   S    
C20   C24   T    
C154  C184  S    
C164  H80   S    
C92   O38   A    
C109  C113  A    
C100  O6    A    
C8    C184  S    
C29   H21   S    
C178  H2    S    
C111  I3    S    
C122  C154  S    
C1    O1    A    
C128  C132  A    
C3    O3    A    
C43   H31   S    
C19   C175  S    
Cu5   O38   S    
C119  C151  S    
C63   C67   A    
C46   O26   A    
Cu4   O28   S    
C153  C183  S    
C36   C40   A    
C6    H102  S    
C39   C43   A    
Cu11  O15   S    
C141  H69   S    
C73   H41   S    
Cu10  O6    S    
C16   C172  T    
C120  H82   S    
C138  C147  A    
C44   H32   S    
C154  H92   S    
C112  I4    S    
C110  C113  A    
C112  C114  A    
C89   H7    S    
C96   C166  S    
C99   O9    A    
C76   C80   A    
C97   C113  S    
Cu10  O14   S    
C54   C58   T    
C34   C38   A    
C6    H14   S    
C7    H103  S    
C30   H22   S    
C91   O37   A    
C164  C166  A    
Cu8   O32   S    
Cu11  O7    S    
C71   C75   A    
C28   C52   A    
Cu5   O41   S    
C48   O28   A    
Cu9   O13   S    
C77   H49   S    
C89   C179  S    
C158  C162  A    
C106  C110  A    
Cu3   O18   S    
C180  H12   S    
Cu2   Cu4   S    
C52   C56   S    
