data_mof_unit_34065.cif
_audit_creation_date              2012-12-11T17:36:16-0500
_audit_creation_method            fapswitch 2.2
_symmetry_space_group_name_H-M    P1
_symmetry_Int_Tables_number       1
_space_group_crystal_system       triclinic
_cell_length_a                    25.660127
_cell_length_b                    6.908311
_cell_length_c                    21.685779
_cell_angle_alpha                 89.988703
_cell_angle_beta                  96.722379
_cell_angle_gamma                 89.990981
_cell_volume                      3817.76867408

loop_
_atom_site_label
_atom_site_type_symbol
_atom_type_description
_atom_site_fract_x
_atom_site_fract_y
_atom_site_fract_z
_atom_type_partial_charge
O1    O     O_R   0.208650 0.594520 0.175450 -0.524938
O2    O     O_R   0.791350 0.405480 0.824550 -0.536793
O3    O     O_R   0.291350 0.094520 0.324550 -0.525138
O4    O     O_R   0.708650 0.905480 0.675450 -0.536818
O5    O     O_R   0.192980 0.260780 0.300160 -0.532491
O6    O     O_R   0.807020 0.739220 0.699840 -0.544898
O7    O     O_R   0.307020 0.760780 0.199840 -0.532187
O8    O     O_R   0.692980 0.239220 0.800160 -0.544835
C1    C     C_R   0.178856 0.432610 0.318440 0.713761
C2    C     C_R   0.821459 0.567319 0.681949 0.715334
C3    C     C_R   0.321142 0.932612 0.181557 0.714128
C4    C     C_R   0.678551 0.067324 0.818065 0.714830
O9    O     O_R   0.202550 0.264660 0.174420 -0.538203
O10   O     O_R   0.797450 0.735340 0.825580 -0.522789
O11   O     O_R   0.297450 0.764660 0.325580 -0.538225
O12   O     O_R   0.702550 0.235340 0.674420 -0.522438
O13   O     O_R   0.300990 0.096480 0.197920 -0.539829
O14   O     O_R   0.699010 0.903520 0.802080 -0.528373
O15   O     O_R   0.199010 0.596480 0.302080 -0.539779
O16   O     O_R   0.800990 0.403520 0.697920 -0.528001
C5    C     C_R   0.190813 0.433453 0.150862 0.756155
C6    C     C_R   0.809375 0.565943 0.849036 0.756340
C7    C     C_R   0.309194 0.933392 0.349136 0.756100
C8    C     C_R   0.690629 0.066009 0.650955 0.756499
O17   O     O_3   0.282290 0.427760 0.257860 -0.365597
O18   O     O_3   0.717710 0.572240 0.742140 -0.364870
O19   O     O_3   0.217710 0.927760 0.242140 -0.365668
O20   O     O_3   0.782290 0.072240 0.757860 -0.364798
V1    V     V_3+5 0.244010 0.152080 0.248540 1.516374
V2    V     V_3+5 0.755990 0.847920 0.751460 1.523790
V3    V     V_3+5 0.255990 0.652080 0.251460 1.516889
V4    V     V_3+5 0.744010 0.347920 0.748540 1.524361
C9    C     C_R   0.658634 0.052639 0.589451 -0.118295
C10   C     C_R   0.341445 0.937959 0.410530 -0.122758
C11   C     C_R   0.841370 0.552235 0.910530 -0.118343
C12   C     C_R   0.158599 0.438327 0.089451 -0.122851
C13   C     C_R   0.651522 0.995666 0.478545 -0.144217
C14   C     C_R   0.351655 0.877232 0.521288 -0.145845
C15   C     C_R   0.848466 0.491455 0.021234 -0.144171
C16   C     C_R   0.148574 0.380872 0.978525 -0.145697
C17   C     C_R   0.682738 0.036000 0.534470 -0.030016
C18   C     C_R   0.318789 0.899925 0.465431 -0.026933
C19   C     C_R   0.817241 0.532959 0.965406 -0.029868
C20   C     C_R   0.181365 0.402385 0.034489 -0.027059
C21   C     C_R   0.603970 0.028349 0.586647 -0.155819
C22   C     C_R   0.396251 0.955659 0.413357 -0.165025
C23   C     C_R   0.896079 0.529374 0.913334 -0.156636
C24   C     C_R   0.103764 0.454931 0.086598 -0.164438
C25   C     C_R   0.572758 0.967794 0.531285 0.113024
C26   C     C_R   0.430228 0.914952 0.468636 0.114235
C27   C     C_R   0.927335 0.467506 0.968520 0.112888
C28   C     C_R   0.069893 0.415356 0.031160 0.114395
C29   C     C_R   0.596928 0.961944 0.475797 0.030173
C30   C     C_R   0.407004 0.884909 0.524037 0.029622
C31   C     C_R   0.903117 0.458996 0.023944 0.030345
C32   C     C_R   0.093212 0.387682 0.975711 0.029474
C33   C     C_R   0.518107 0.917731 0.529308 -0.008652
C34   C     C_R   0.486473 0.908187 0.470578 -0.007798
C35   C     C_R   0.982057 0.418556 0.970393 -0.008776
C36   C     C_R   0.013653 0.407524 0.029121 -0.007652
C37   C     C_R   0.512393 0.879749 0.416509 -0.080821
C38   C     C_R   0.494478 0.864202 0.583257 -0.079219
C39   C     C_R   0.987723 0.376564 0.083052 -0.080844
C40   C     C_R   0.005808 0.367505 0.916301 -0.079231
C41   C     C_R   0.567044 0.912016 0.418996 -0.081294
C42   C     C_R   0.439187 0.853084 0.580725 -0.082093
C43   C     C_R   0.933022 0.407649 0.080602 -0.081315
C44   C     C_R   0.061117 0.357338 0.918878 -0.082154
H1    H     H_    0.411590 0.001777 0.371493 0.118070
H2    H     H_    0.586534 0.057552 0.628611 0.118424
H3    H     H_    0.088315 0.499455 0.128559 0.117864
H4    H     H_    0.913503 0.560495 0.871493 0.118745
H5    H     H_    0.670794 0.987533 0.436880 0.176526
H6    H     H_    0.333255 0.851177 0.562889 0.175245
H7    H     H_    0.829155 0.481308 0.062829 0.176383
H8    H     H_    0.167046 0.356480 0.936880 0.175263
C45   C     C_R   0.432145 0.789532 0.086763 0.388305
C46   C     C_R   0.568158 0.211939 0.913771 0.389849
C47   C     C_R   0.067888 0.289500 0.413285 0.388571
C48   C     C_R   0.931870 0.711899 0.586263 0.390241
C49   C     C_R   0.392561 0.779305 0.126508 -0.130146
C50   C     C_R   0.608237 0.222458 0.874668 -0.139663
C51   C     C_R   0.107464 0.279280 0.373530 -0.129804
C52   C     C_R   0.891781 0.722432 0.625353 -0.139406
H9    H     H_    0.385017 0.641440 0.147568 0.150937
H10   H     H_    0.617540 0.362043 0.855990 0.143471
H11   H     H_    0.115027 0.141408 0.352496 0.150481
H12   H     H_    0.882458 0.862024 0.644001 0.143506
C53   C     C_R   0.363312 0.943845 0.139512 -0.125834
C54   C     C_R   0.635704 0.056007 0.859257 -0.129871
C55   C     C_R   0.136684 0.443836 0.360484 -0.125531
C56   C     C_R   0.864327 0.555987 0.640784 -0.130206
C57   C     C_R   0.374463 0.120441 0.111471 -0.150178
C58   C     C_R   0.621933 0.877206 0.883903 -0.125218
C59   C     C_R   0.125502 0.620443 0.388484 -0.150565
C60   C     C_R   0.878134 0.377170 0.616188 -0.125476
H13   H     H_    0.352971 0.250420 0.120217 0.172839
H14   H     H_    0.641296 0.745109 0.872497 0.174819
H15   H     H_    0.146960 0.750446 0.379692 0.173062
H16   H     H_    0.858796 0.245061 0.627627 0.174883
C61   C     C_R   0.413159 0.132112 0.071200 -0.147796
C62   C     C_R   0.583199 0.865670 0.924097 -0.152037
C63   C     C_R   0.086820 0.632099 0.428772 -0.148195
C64   C     C_R   0.916870 0.365629 0.575999 -0.152807
H17   H     H_    0.420191 0.269758 0.049772 0.176133
H18   H     H_    0.574589 0.726736 0.943481 0.182436
H19   H     H_    0.079773 0.769746 0.450177 0.176458
H20   H     H_    0.925498 0.226693 0.556641 0.182540
C65   C     C_R   0.442466 0.968887 0.058401 0.027669
C66   C     C_R   0.555837 0.030731 0.939473 0.026487
C67   C     C_R   0.057548 0.468857 0.441619 0.027655
C68   C     C_R   0.944210 0.530688 0.560590 0.026563
C69   C     C_1   0.482473 0.990350 0.016405 -0.026646
C70   C     C_1   0.515768 0.009226 0.981396 -0.025568
C71   C     C_1   0.017555 0.490309 0.483634 -0.026663
C72   C     C_1   0.984270 0.509183 0.518656 -0.025539
C73   C     C_2   0.593243 0.887483 0.361942 0.834160
O21   O     O_2   0.598144 0.725825 0.340396 -0.521112
O22   O     O_R   0.612186 0.049858 0.333222 -0.632530
H21   H     H_    0.629247 0.015110 0.294833 0.322112
C74   C     C_2   0.415082 0.801823 0.637566 0.833369
O23   O     O_2   0.419480 0.637425 0.658438 -0.523691
O24   O     O_R   0.387491 0.942286 0.666905 -0.635451
H22   H     H_    0.372866 0.890368 0.705087 0.320095
C75   C     C_2   0.906797 0.380292 0.137517 0.834056
O25   O     O_2   0.902131 0.217707 0.158487 -0.521236
O26   O     O_R   0.887562 0.541079 0.166768 -0.632579
H23   H     H_    0.870511 0.504439 0.204998 0.322009
C76   C     C_2   0.085343 0.308743 0.861900 0.833490
O27   O     O_2   0.081146 0.145087 0.840422 -0.523440
O28   O     O_R   0.112816 0.450860 0.833126 -0.635414
H24   H     H_    0.127537 0.400717 0.794783 0.320146
C77   C     C_2   0.260958 0.884744 0.466513 0.737018
O29   O     O_2   0.230655 0.966394 0.427164 -0.576465
O30   O     O_R   0.241056 0.779730 0.513712 -0.649889
H25   H     H_    0.201282 0.780314 0.509645 0.306883
C78   C     C_2   0.740374 0.059201 0.533350 0.740579
O31   O     O_2   0.766744 0.149494 0.574208 -0.577950
O32   O     O_R   0.764556 0.979842 0.484590 -0.649336
H26   H     H_    0.803742 0.005218 0.488949 0.309113
C79   C     C_2   0.239223 0.388168 0.033442 0.736706
O33   O     O_2   0.269424 0.468812 0.073111 -0.576446
O34   O     O_R   0.259269 0.285199 0.985918 -0.649819
H27   H     H_    0.299045 0.286230 0.990050 0.306814
C80   C     C_2   0.759559 0.554538 0.966487 0.740846
O35   O     O_2   0.733123 0.646270 0.926019 -0.578003
O36   O     O_R   0.735406 0.471963 0.014766 -0.649403
H28   H     H_    0.696177 0.496450 0.010417 0.309067
C81   C     C_2   0.485018 0.784278 0.360161 0.788330
O37   O     O_2   0.460000 0.635696 0.365480 -0.543278
O38   O     O_R   0.487523 0.864928 0.301404 -0.647266
H29   H     H_    0.466958 0.787433 0.267053 0.303087
C82   C     C_2   0.526779 0.786926 0.639464 0.780504
O39   O     O_2   0.559667 0.661857 0.633929 -0.548327
O40   O     O_R   0.519839 0.858003 0.698349 -0.647075
H30   H     H_    0.544421 0.795108 0.732592 0.301697
C83   C     C_2   0.015190 0.279738 0.139114 0.788072
O41   O     O_2   0.040424 0.131919 0.133344 -0.543429
O42   O     O_R   0.012518 0.358253 0.198119 -0.647351
H31   H     H_    0.033166 0.280024 0.232239 0.303100
C84   C     C_2   0.973654 0.291725 0.859782 0.780775
O43   O     O_2   0.940921 0.165739 0.864816 -0.548275
O44   O     O_R   0.980556 0.365241 0.801176 -0.647009
H32   H     H_    0.956082 0.303166 0.766678 0.301781
O45   O     O_3   0.459350 0.621443 0.077484 -0.651215
H33   H     H_    0.485781 0.646017 0.048685 0.297122
O46   O     O_3   0.542404 0.381532 0.925046 -0.657153
H34   H     H_    0.515147 0.356213 0.952713 0.296535
O47   O     O_3   0.040707 0.121406 0.422600 -0.651342
H35   H     H_    0.014274 0.145982 0.451396 0.297090
O48   O     O_3   0.957612 0.881482 0.574967 -0.657124
H36   H     H_    0.984887 0.856141 0.547327 0.296543

loop_
_geom_bond_atom_site_label_1
_geom_bond_atom_site_label_2
_ccdc_geom_bond_type
O17   V3    S    
C51   H11   S    
O48   H36   S    
O1    C5    A    
C83   O41   D    
O19   V1    S    
C9    C21   A    
O47   H35   S    
O3    C7    A    
O44   H32   S    
C10   C18   A    
C56   C60   A    
C48   C52   A    
C11   C23   A    
C1    C55   S    
C73   O22   S    
C84   O43   D    
C25   C33   A    
O30   H25   S    
C5    C12   S    
O7    C3    A    
C6    C11   S    
C78   O32   S    
C46   O46   S    
O45   H33   S    
C36   C39   A    
C40   C44   A    
O9    V1    S    
C14   C18   A    
C81   O38   S    
C80   O35   D    
O4    C8    A    
C59   H15   S    
C68   C72   S    
C58   H14   S    
C45   O45   S    
O34   H27   S    
O1    V3    S    
O13   V1    S    
O2    V4    S    
O3    V1    S    
C46   C50   A    
C22   H1    S    
C28   C36   A    
C84   O44   S    
C28   C32   A    
C1    O15   A    
C15   C31   A    
O36   H28   S    
C2    O16   A    
C20   C79   S    
C16   C32   A    
O2    C6    A    
O38   H29   S    
C12   C24   A    
C10   C22   A    
C15   H7    S    
C82   O40   S    
C11   C19   A    
C66   C70   S    
C16   C20   A    
C17   C78   S    
C65   C69   S    
C13   C29   A    
C34   C37   A    
O11   C7    A    
O15   V3    S    
C35   C36   A    
O12   C8    A    
C61   H17   S    
O10   V2    S    
C80   O36   S    
C59   C63   A    
C54   C58   A    
O5    V1    S    
O17   V1    S    
C39   C43   A    
O7    V3    S    
C38   C42   A    
O19   V3    S    
O8    V4    S    
O24   H22   S    
C57   C61   A    
O46   H34   S    
C64   C68   A    
O18   V4    S    
C23   C27   A    
C33   C38   A    
C50   H10   S    
C55   C59   A    
C53   C57   A    
C16   H8    S    
C79   O34   S    
C26   C34   A    
O5    C1    A    
C19   C80   S    
C67   C71   S    
C3    C53   S    
O42   H31   S    
C14   C30   A    
O20   V4    S    
O8    C4    A    
C7    C10   S    
C48   C68   A    
C21   C25   A    
C35   C40   A    
C42   C74   S    
O9    C5    A    
C46   C66   A    
C26   C30   A    
O22   H21   S    
C45   C65   A    
C74   O23   D    
O14   V2    S    
O6    V2    S    
O18   V2    S    
C18   C77   S    
C77   O29   D    
C12   C20   A    
C27   C35   A    
C39   C83   S    
C24   H3    S    
O26   H23   S    
C57   H13   S    
C64   H20   S    
C29   C41   A    
C77   O30   S    
C69   C70   T    
O16   V4    S    
C4    C54   S    
C60   C64   A    
C13   H5    S    
C3    O13   A    
C21   H2    S    
C52   H12   S    
C40   C84   S    
O6    C2    A    
C31   C43   A    
O32   H26   S    
O11   V3    S    
C30   C42   A    
C63   C67   A    
O12   V4    S    
C51   C55   A    
C78   O31   D    
C22   C26   A    
C73   O21   D    
C8    C9    S    
C50   C54   A    
C38   C82   S    
C47   C67   A    
C9    C17   A    
C47   O47   S    
C43   C75   S    
C76   O27   D    
C49   C53   A    
C32   C44   A    
C79   O33   D    
C47   C51   A    
O10   C6    A    
C33   C34   A    
C75   O25   D    
C37   C81   S    
C25   C29   A    
C60   H16   S    
O20   V2    S    
C14   H6    S    
C62   H18   S    
C27   C31   A    
C13   C17   A    
C44   C76   S    
O4    V2    S    
C23   H4    S    
C74   O24   S    
C62   C66   A    
C2    C56   S    
C37   C41   A    
C24   C28   A    
C58   C62   A    
C83   O42   S    
C45   C49   A    
C15   C19   A    
C4    O14   A    
O40   H30   S    
C75   O26   S    
C41   C73   S    
C63   H19   S    
C52   C56   A    
C48   O48   S    
C71   C72   T    
C82   O39   D    
C81   O37   D    
C61   C65   A    
C49   H9    S    
O28   H24   S    
C76   O28   S    
