data_mof_unit_67658.cif
_audit_creation_date              2013-03-05T16:47:32-0500
_audit_creation_method            fapswitch 2.2
_symmetry_space_group_name_H-M    P1
_symmetry_Int_Tables_number       1
_space_group_crystal_system       triclinic
_cell_length_a                    10.939773
_cell_length_b                    10.93802
_cell_length_c                    9.798261
_cell_angle_alpha                 99.091436
_cell_angle_beta                  97.919603
_cell_angle_gamma                 93.29957
_cell_volume                      1142.9053981

loop_
_atom_site_label
_atom_site_type_symbol
_atom_site_description
_atom_site_fract_x
_atom_site_fract_y
_atom_site_fract_z
_atom_type_partial_charge
O1    O     O_R   0.517830 0.337490 0.617920 -0.608411
O2    O     O_R   0.482170 0.662510 0.382080 -0.604699
O3    O     O_R   0.482150 0.301790 0.382070 -0.573945
O4    O     O_R   0.517850 0.698210 0.617930 -0.578719
C1    C     C_R   0.495416 0.261898 0.499628 0.783961
C2    C     C_R   0.505727 0.738357 0.500795 0.762927
O5    O     O_R   0.337480 0.517860 0.617920 -0.497667
O6    O     O_R   0.662520 0.482140 0.382080 -0.494566
O7    O     O_R   0.301810 0.482160 0.382070 -0.594676
O8    O     O_R   0.698190 0.517840 0.617930 -0.597877
C3    C     C_R   0.262027 0.503690 0.499186 0.873962
C4    C     C_R   0.737990 0.496060 0.500839 0.855348
Cu1   Cu    Cu3+1 0.521120 0.521140 0.639640 0.970927
Cu2   Cu    Cu3+1 0.478880 0.478860 0.360360 0.978372
C5    C     C_R   0.160714 0.501645 0.034826 0.467544
C6    C     C_R   0.834294 0.498772 0.962712 0.449713
C7    C     C_R   0.129435 0.521457 0.172037 -0.327832
C8    C     C_R   0.871244 0.477642 0.828134 -0.307968
H1    H     H_    0.148468 0.611177 0.238034 0.129079
H2    H     H_    0.857101 0.386809 0.764069 0.147779
C9    C     C_R   0.077753 0.424239 0.229432 0.193762
C10   C     C_R   0.922262 0.575014 0.770611 0.202079
C11   C     C_R   0.052680 0.306803 0.145724 -0.107648
C12   C     C_R   0.944290 0.693179 0.853349 -0.141479
H3    H     H_    0.014356 0.229357 0.186530 0.169637
H4    H     H_    0.984944 0.769879 0.813883 0.157070
C13   C     C_R   0.075692 0.287674 0.007444 -0.374291
C14   C     C_R   0.913454 0.714193 0.988428 -0.364573
H5    H     H_    0.050410 0.196488 0.946345 0.164742
H6    H     H_    0.931446 0.806818 0.047470 0.157032
C15   C     C_R   0.130930 0.384420 0.950577 0.481890
C16   C     C_R   0.856709 0.617739 0.043727 0.490237
C17   C     C_R   0.917510 0.431582 0.387027 0.503063
C18   C     C_R   0.082451 0.567805 0.612787 0.527365
C19   C     C_R   0.872798 0.489936 0.506501 -0.317549
C20   C     C_R   0.127259 0.509176 0.493583 -0.314136
C21   C     C_R   0.957446 0.548450 0.626403 -0.140174
C22   C     C_R   0.042750 0.450524 0.373734 -0.137399
H7    H     H_    0.203295 0.042703 0.876031 0.129859
H8    H     H_    0.753057 0.938327 0.146277 0.145398
C23   C     C_R   0.191445 0.038877 0.092052 -0.244482
C24   C     C_R   0.785189 0.981957 0.947390 -0.257708
H9    H     H_    0.091985 0.020036 0.073478 0.121853
H10   H     H_    0.876586 0.026616 0.987750 0.130447
C25   C     C_R   0.257245 0.049328 0.227391 0.539175
C26   C     C_R   0.734806 0.979301 0.807104 0.519840
C27   C     C_R   0.386883 0.069994 0.247615 0.043767
C28   C     C_R   0.610660 0.932388 0.760353 0.022942
C29   C     C_R   0.448120 0.092625 0.136507 -0.191737
C30   C     C_R   0.542532 0.880625 0.851666 -0.178671
H11   H     H_    0.547809 0.109744 0.151997 0.154293
H12   H     H_    0.446334 0.847566 0.818761 0.162526
C31   C     C_R   0.381076 0.087471 0.003512 -0.160630
C32   C     C_R   0.596252 0.877276 0.988484 -0.150126
H13   H     H_    0.428316 0.104109 0.917373 0.144696
H14   H     H_    0.542874 0.838528 0.058848 0.138734
C33   C     C_R   0.253966 0.054505 0.980283 -0.210326
C34   C     C_R   0.715647 0.931853 0.037458 -0.205724
C35   C     C_R   0.468652 0.915062 0.379185 -0.253420
C36   C     C_R   0.536010 0.086424 0.622540 -0.188912
H15   H     H_    0.439739 0.849636 0.283949 0.132709
H16   H     H_    0.562450 0.152088 0.717875 0.133856
C37   C     C_R   0.509526 0.872976 0.503547 -0.085455
C38   C     C_R   0.494270 0.127971 0.498379 -0.066196
C39   C     C_R   0.547429 0.961048 0.626917 0.052274
C40   C     C_R   0.457205 0.040495 0.375780 0.050357
H17   H     H_    0.421487 0.415966 0.865383 0.187937
H18   H     H_    0.571431 0.589878 0.134270 0.196354
N1    N     N_2   0.447120 0.447110 0.150550 -0.295571
N2    N     N_2   0.552880 0.552890 0.849450 -0.298790
C41   C     C_2   0.507012 0.513594 0.078679 0.013549
C42   C     C_2   0.489312 0.489497 0.921094 0.004644
H19   H     H_    0.615528 0.623026 0.904824 0.207364
H20   H     H_    0.387407 0.374261 0.095204 0.200620
O9    O     O_3   0.163090 0.371653 0.816012 -0.547159
C43   C     C_3   0.104893 0.266224 0.723028 -0.327208
H21   H     H_    0.004148 0.253410 0.726703 0.166623
H22   H     H_    0.151520 0.182326 0.742340 0.161961
H23   H     H_    0.115195 0.278833 0.614993 0.196400
O10   O     O_3   0.806737 0.636564 0.168120 -0.549397
C44   C     C_3   0.880851 0.720718 0.275346 -0.339067
H24   H     H_    0.868215 0.817706 0.261889 0.145625
H25   H     H_    0.979620 0.702200 0.284195 0.144827
H26   H     H_    0.850094 0.709804 0.376209 0.179947
O11   O     O_3   0.218124 0.591885 0.973499 -0.498221
C45   C     C_3   0.257747 0.704236 0.064268 -0.295577
H27   H     H_    0.319820 0.687592 0.157676 0.158918
H28   H     H_    0.177222 0.754463 0.092588 0.154731
H29   H     H_    0.311736 0.764265 0.009007 0.191988
O12   O     O_3   0.777566 0.408383 0.024140 -0.506355
C46   C     C_3   0.733821 0.298479 0.931258 -0.267643
H30   H     H_    0.812356 0.245072 0.902935 0.190370
H31   H     H_    0.674880 0.319116 0.837698 0.169534
H32   H     H_    0.675611 0.240275 0.984325 0.181907
O13   O     O_3   0.837783 0.357622 0.280052 -0.493402
C47   C     C_3   0.810738 0.241878 0.320917 -0.298387
H33   H     H_    0.768007 0.175439 0.226844 0.176925
H34   H     H_    0.743233 0.249537 0.396112 0.158597
H35   H     H_    0.895321 0.201833 0.366726 0.131103
O14   O     O_3   0.161591 0.644058 0.718245 -0.486205
C48   C     C_3   0.185740 0.759145 0.674664 -0.340037
H36   H     H_    0.100083 0.796234 0.627259 0.105498
H37   H     H_    0.253656 0.751841 0.599950 0.154282
H38   H     H_    0.226435 0.827787 0.767552 0.182976
O15   O     O_3   0.196529 0.049938 0.342527 -0.589443
C49   C     C_3   0.140370 0.930641 0.340603 -0.429975
H39   H     H_    0.209843 0.860473 0.343974 0.164085
H40   H     H_    0.068016 0.903239 0.248301 0.152453
H41   H     H_    0.094622 0.932473 0.434994 0.186508
O16   O     O_3   0.798405 0.040015 0.721202 -0.608227
C50   C     C_3   0.897966 0.971931 0.685288 -0.417059
H42   H     H_    0.866690 0.873308 0.640073 0.164941
H43   H     H_    0.971871 0.978282 0.776644 0.154553
H44   H     H_    0.938756 0.013291 0.603820 0.190284

loop_
_geom_bond_atom_site_label_1
_geom_bond_atom_site_label_2
_geom_bond_distance
_ccdc_geom_bond_type
C37   C39   1.417421 A    
C6    O12   1.394711 S    
C48   H36   1.114349 S    
C13   H5    1.078711 S    
C18   C21   1.399510 A    
C31   H13   1.081881 S    
O13   C47   1.414336 S    
C43   H23   1.108824 S    
O9    C43   1.410264 S    
C24   C34   1.395639 A    
C44   H24   1.103617 S    
C27   C29   1.400829 A    
O11   C45   1.405746 S    
O5    C3    1.312440 A    
C30   C32   1.394549 A    
O1    C1    1.297174 A    
C3    C20   1.472813 S    
C19   C21   1.428897 A    
C43   H22   1.104664 S    
C35   C40   1.390045 A    
C45   H28   1.108935 S    
C16   O10   1.394306 S    
C49   H39   1.111762 S    
H7    C33   1.077705 S    
C47   H35   1.115292 S    
C36   H16   1.077826 S    
H17   C42   1.084597 S    
C24   C26   1.403864 A    
O4    Cu1   1.983376 S    
N1    C41   1.299296 D    
O16   C50   1.407443 S    
C17   C19   1.405220 A    
C9    C22   1.503940 S    
C50   H42   1.114324 S    
C29   H11   1.081372 S    
C47   H34   1.110311 S    
C30   H12   1.080777 S    
C11   C13   1.397630 A    
C28   C39   1.480350 S    
C27   C40   1.470840 S    
C18   C20   1.404627 A    
C5    O11   1.396380 S    
C28   C30   1.404208 A    
C48   H37   1.110217 S    
Cu1   Cu2   2.672568 S    
C23   H9    1.080401 S    
O2    C2    1.302129 A    
C24   H10   1.080966 S    
C17   O13   1.383009 S    
C44   H25   1.104981 S    
C25   O15   1.385121 S    
C26   C28   1.411282 A    
C25   C27   1.404692 A    
C32   H14   1.082011 S    
C35   H15   1.079125 S    
H8    C34   1.077924 S    
C13   C15   1.414553 A    
C14   C16   1.410658 A    
C43   H21   1.109215 S    
O4    C2    1.285187 A    
C46   H30   1.108448 S    
C31   C33   1.394480 A    
C45   H27   1.107939 S    
C10   C21   1.504027 S    
C45   H29   1.108598 S    
C7    C9    1.405024 A    
C1    C38   1.462328 S    
C38   C40   1.407410 A    
C2    C37   1.466526 S    
O7    Cu2   1.979421 S    
C46   H31   1.107415 S    
C15   O9    1.398936 S    
O6    C4    1.312887 A    
C47   H33   1.107579 S    
N2    H19   1.028628 S    
N1    H20   1.030359 S    
C50   H43   1.110954 S    
C4    C19   1.473937 S    
O7    C3    1.275043 A    
O3    Cu2   1.983376 S    
O8    C4    1.275079 A    
C36   C39   1.391013 A    
C48   H38   1.106431 S    
C9    C11   1.400872 A    
Cu2   N1    2.007782 S    
C10   C12   1.401786 A    
O1    Cu1   1.983987 S    
C44   H26   1.108358 S    
C32   C34   1.392721 A    
C5    C7    1.419429 A    
O6    Cu2   1.988479 S    
C8    C10   1.404097 A    
C12   C14   1.397921 A    
C12   H4    1.076165 S    
O10   C44   1.407905 S    
O3    C1    1.287754 A    
O8    Cu1   1.979421 S    
C5    C15   1.405333 A    
C6    C16   1.402408 A    
O15   C49   1.406151 S    
C35   C37   1.395527 A    
C17   C22   1.400746 A    
C36   C38   1.393046 A    
C20   C22   1.428209 A    
C23   C33   1.395882 A    
C41   C42   1.508051 S    
C26   O16   1.385053 S    
C46   H32   1.109219 S    
O12   C46   1.403717 S    
C49   H40   1.106370 S    
H18   C41   1.082797 S    
C29   C31   1.395668 A    
C14   H6    1.077172 S    
O14   C48   1.414015 S    
C7    H1    1.078612 S    
C50   H44   1.109066 S    
C8    H2    1.078671 S    
C11   H3    1.079617 S    
O2    Cu2   1.983987 S    
O5    Cu1   1.988480 S    
C6    C8    1.420191 A    
Cu1   N2    2.007782 S    
C23   C25   1.403315 A    
N2    C42   1.300008 D    
C18   O14   1.382372 S    
C49   H41   1.108650 S    
