data_mof_unit_63173.cif
_audit_creation_date              2012-12-10T17:04:19-0500
_audit_creation_method            fapswitch 2.2
_symmetry_space_group_name_H-M    P1
_symmetry_Int_Tables_number       1
_space_group_crystal_system       triclinic
_cell_length_a                    15.16148
_cell_length_b                    15.107675
_cell_length_c                    16.038721
_cell_angle_alpha                 89.635628
_cell_angle_beta                  90.368942
_cell_angle_gamma                 90.26959
_cell_volume                      3673.55421072

loop_
_atom_site_label
_atom_site_type_symbol
_atom_type_description
_atom_site_fract_x
_atom_site_fract_y
_atom_site_fract_z
_atom_type_partial_charge
C1    C     C_R   0.259849 0.484633 0.488643 0.867321
C2    C     C_R   0.979138 0.453088 0.487685 0.069460
C3    C     C_R   0.018783 0.533467 0.514408 0.126322
C4    C     C_R   0.739576 0.514504 0.512085 0.794844
C5    C     C_R   0.110402 0.542870 0.514538 -0.313109
C6    C     C_R   0.125045 0.394155 0.460631 0.636726
C7    C     C_R   0.033913 0.383851 0.461235 -0.276545
C8    C     C_R   0.524186 0.163719 0.512496 -0.253592
C9    C     C_R   0.478984 0.835344 0.480853 -0.168186
C10   C     C_R   0.388385 0.965932 0.465966 -0.197055
C11   C     C_R   0.396790 0.874304 0.464747 0.630179
C12   C     C_1   0.477239 0.520504 0.886233 0.120958
C13   C     C_R   0.552763 0.887872 0.498567 -0.244509
C14   C     C_R   0.544233 0.979834 0.502990 -0.060909
C15   C     C_R   0.461363 0.019014 0.485789 -0.002522
C16   C     C_R   0.513869 0.259805 0.512491 0.893254
C17   C     C_R   0.452349 0.110638 0.489579 -0.289780
C18   C     C_R   0.606094 0.124805 0.531235 0.545293
C19   C     C_R   0.616264 0.033305 0.525790 0.568575
C20   C     C_R   0.486203 0.739668 0.486023 0.871286
C21   C     C_R   0.512815 0.488369 0.277375 0.831758
C22   C     C_R   0.487310 0.511275 0.722604 0.806227
C23   C     C_1   0.521284 0.479952 0.113621 -0.054607
C24   C     C_1   0.517661 0.483540 0.188456 -0.120314
C25   C     C_2   0.524702 0.476573 0.023898 0.647460
C26   C     C_2   0.471009 0.526289 0.975711 0.028165
C27   C     C_3   0.404137 0.588357 0.012241 -0.937280
C28   C     C_3   0.842555 0.360094 0.456270 -0.805519
C29   C     C_1   0.482159 0.515974 0.811516 -0.111297
C30   C     C_R   0.163832 0.473839 0.487319 -0.170636
C31   C     C_R   0.835244 0.517384 0.513708 0.008358
C32   C     C_R   0.966630 0.604086 0.540018 -0.148657
C33   C     C_R   0.875552 0.596199 0.539095 -0.229839
C34   C     C_R   0.886110 0.444591 0.487306 0.122830
F1    F     F_    0.677034 0.175508 0.551920 -0.605416
F2    F     F_    0.696266 0.997151 0.542941 -0.617114
F3    F     F_    0.324870 0.823508 0.447660 -0.654677
F4    F     F_    0.584226 0.421349 0.988513 -0.636900
F5    F     F_    0.175090 0.325022 0.435616 -0.637508
H1    H     H_    0.324596 0.995227 0.452989 0.180772
H2    H     H_    0.438024 0.638884 0.051104 0.256460
H3    H     H_    0.769614 0.362272 0.455158 0.243763
H4    H     H_    0.863453 0.347092 0.391281 0.232527
H5    H     H_    0.862120 0.303688 0.496957 0.273776
H6    H     H_    0.615496 0.856602 0.512237 0.214363
H7    H     H_    0.140162 0.604523 0.535003 0.202811
H8    H     H_    0.996333 0.665794 0.560224 0.165668
H9    H     H_    0.007362 0.321025 0.440812 0.193926
H10   H     H_    0.836043 0.651921 0.558524 0.161207
H11   H     H_    0.389088 0.140740 0.475576 0.213172
H12   H     H_    0.366461 0.623125 0.962323 0.269148
H13   H     H_    0.356721 0.550584 0.051357 0.256619
O1    O     O_3   0.500000 0.500000 0.500000 -0.518824
O2    O     O_R   0.461330 0.435620 0.316920 -0.627644
O3    O     O_R   0.434750 0.558200 0.677930 -0.639942
O4    O     O_R   0.559650 0.545720 0.316320 -0.628977
O5    O     O_R   0.544270 0.460460 0.688830 -0.615463
O6    O     O_R   0.559890 0.307360 0.561630 -0.584059
O7    O     O_R   0.434610 0.697530 0.534530 -0.602486
O8    O     O_R   0.307380 0.433810 0.444990 -0.580500
O9    O     O_R   0.698130 0.561300 0.458860 -0.636455
O10   O     O_R   0.296270 0.542620 0.535390 -0.641068
O11   O     O_R   0.698230 0.462280 0.560770 -0.617772
O12   O     O_R   0.461480 0.296280 0.460320 -0.639182
O13   O     O_R   0.544020 0.698820 0.443520 -0.642916
Zn1   Zn    Zn3+2 0.574310 0.433680 0.576480 1.035195
Zn2   Zn    Zn3+2 0.433700 0.417860 0.431740 1.033200
Zn3   Zn    Zn3+2 0.574160 0.575160 0.430870 0.996878
Zn4   Zn    Zn3+2 0.417840 0.573310 0.560900 1.012756

loop_
_geom_bond_atom_site_label_1
_geom_bond_atom_site_label_2
_ccdc_geom_bond_type
C17   H11   S    
C21   O4    A    
O4    Zn3   S    
C23   C24   T    
C31   C33   A    
C15   C17   A    
C22   O3    A    
O2    Zn2   S    
C22   C29   S    
C25   F4    S    
C16   O12   A    
C18   F1    S    
C27   H2    S    
C28   H4    S    
C8    C17   A    
O9    Zn3   S    
O5    Zn1   S    
C19   F2    S    
O13   Zn3   S    
O1    Zn4   S    
C1    O10   A    
C2    C34   A    
C22   O5    A    
C2    C3    A    
O11   Zn1   S    
C28   C34   S    
C8    C16   S    
C16   O6    A    
C13   C14   A    
C7    H9    S    
C20   O7    A    
C13   H6    S    
O1    Zn1   S    
C9    C11   A    
C4    O11   A    
C26   C27   S    
O3    Zn4   S    
O7    Zn4   S    
C4    O9    A    
C1    O8    A    
C28   H3    S    
C1    C30   S    
C6    C30   A    
C27   H12   S    
C18   C19   A    
C6    C7    A    
C10   C15   A    
C23   C25   S    
C3    C32   A    
O1    Zn2   S    
C32   H8    S    
C31   C34   A    
C4    C31   S    
C10   C11   A    
C33   H10   S    
O12   Zn2   S    
C20   O13   A    
C27   H13   S    
O10   Zn4   S    
C28   H5    S    
C21   O2    A    
C5    C30   A    
C5    H7    S    
C21   C24   S    
C11   F3    S    
O1    Zn3   S    
C9    C13   A    
C6    F5    S    
C10   H1    S    
C32   C33   A    
C9    C20   S    
C25   C26   D    
C14   C15   A    
C14   C19   A    
O6    Zn1   S    
C8    C18   A    
C2    C7    A    
O8    Zn2   S    
C12   C26   S    
C3    C5    A    
C12   C29   T    
