data_mof_unit_30087.cif
_audit_creation_date              2012-12-10T20:48:47-0500
_audit_creation_method            fapswitch 2.2
_symmetry_space_group_name_H-M    P1
_symmetry_Int_Tables_number       1
_space_group_crystal_system       triclinic
_cell_length_a                    15.779257
_cell_length_b                    8.930001
_cell_length_c                    8.108736
_cell_angle_alpha                 89.992878
_cell_angle_beta                  90.118445
_cell_angle_gamma                 89.997319
_cell_volume                      1142.58965195

loop_
_atom_site_label
_atom_site_type_symbol
_atom_type_description
_atom_site_fract_x
_atom_site_fract_y
_atom_site_fract_z
_atom_type_partial_charge
C1    C     C_R   0.499998 0.217990 0.500007 0.933423
C2    C     C_3   0.048466 0.371893 0.360235 0.056843
C3    C     C_3   0.951627 0.444958 0.684382 0.056709
C4    C     C_3   0.949632 0.359324 0.374846 0.044129
C5    C     C_1   0.750705 0.492978 0.501087 -0.189807
C6    C     C_1   0.249300 0.492728 0.499588 -0.189642
C7    C     C_3   0.082975 0.475153 0.502126 0.264318
C8    C     C_3   0.917041 0.475866 0.505754 0.264098
C9    C     C_3   0.951207 0.632323 0.453700 -0.556069
C10   C     C_3   0.048655 0.635470 0.467362 -0.557693
C11   C     C_3   0.903502 0.325683 0.786249 -0.906310
C12   C     C_1   0.825690 0.485126 0.503112 -0.074340
C13   C     C_3   0.915408 0.198459 0.397289 -0.885540
C14   C     C_3   0.084877 0.276287 0.741363 -0.885965
C15   C     C_3   0.096772 0.223320 0.331940 -0.907309
C16   C     C_1   0.174321 0.484602 0.500149 -0.074324
C17   C     C_R   0.337856 0.499926 0.499838 0.902576
C18   C     C_R   0.662143 0.499933 0.500205 0.902824
C19   C     C_1   0.499998 0.934793 0.499991 -0.193455
C20   C     C_1   0.499998 0.065188 0.500009 -0.193725
C21   C     C_R   0.499999 0.781987 0.499993 0.932423
C22   C     C_3   0.050449 0.427813 0.677931 0.045081
H1    H     H_    0.067799 0.713279 0.568131 0.193578
H2    H     H_    0.930002 0.320558 0.913126 0.233400
H3    H     H_    0.835754 0.356953 0.798992 0.247453
H4    H     H_    0.950426 0.135302 0.492418 0.248704
H5    H     H_    0.847091 0.198845 0.429257 0.244898
H6    H     H_    0.921701 0.135787 0.279647 0.233942
H7    H     H_    0.050012 0.179920 0.689908 0.247723
H8    H     H_    0.153220 0.263167 0.713053 0.247631
H9    H     H_    0.078561 0.271039 0.877665 0.232667
H10   H     H_    0.093881 0.146318 0.437983 0.258173
H11   H     H_    0.070376 0.164859 0.222432 0.236706
H12   H     H_    0.075651 0.681226 0.350937 0.200173
H13   H     H_    0.164503 0.245680 0.304691 0.244275
H14   H     H_    0.924150 0.722284 0.532906 0.198837
H15   H     H_    0.932010 0.658122 0.324514 0.195406
H16   H     H_    0.060489 0.433750 0.242935 0.127941
H17   H     H_    0.076880 0.511332 0.766576 0.124198
H18   H     H_    0.923102 0.395323 0.253441 0.124443
H19   H     H_    0.939504 0.549485 0.756042 0.127099
H20   H     H_    0.906432 0.212572 0.732272 0.257646
N1    N     N_1   0.500000 0.500030 0.073640 -0.032605
N2    N     N_1   0.500000 0.500030 0.926360 -0.032674
O1    O     O_R   0.500000 0.285340 0.636850 -0.615567
O2    O     O_R   0.500000 0.285340 0.363150 -0.615553
O3    O     O_R   0.377140 0.500000 0.636930 -0.615460
O4    O     O_R   0.377140 0.500000 0.363070 -0.616250
O5    O     O_R   0.622860 0.500000 0.636930 -0.617066
O6    O     O_R   0.622860 0.500000 0.363070 -0.615209
O7    O     O_R   0.500000 0.714650 0.636900 -0.615753
O8    O     O_R   0.500000 0.714650 0.363100 -0.615680
Zn1   Zn    Zn3+2 0.500000 0.499990 0.682780 0.989078
Zn2   Zn    Zn3+2 0.500000 0.499990 0.317220 0.989604

loop_
_geom_bond_atom_site_label_1
_geom_bond_atom_site_label_2
_ccdc_geom_bond_type
C7    C10   S    
C2    C4    S    
N1    N2    T    
C13   H6    S    
C5    C18   S    
C8    C12   S    
C9    H14   S    
C7    C22   S    
C9    C10   S    
C2    H16   S    
N1    Zn2   S    
C19   C20   T    
C17   O4    A    
C4    C8    S    
C14   H9    S    
O3    Zn1   S    
C14   C22   S    
C9    H15   S    
O1    Zn1   S    
C15   H10   S    
C10   H12   S    
O4    Zn2   S    
C2    C15   S    
C1    O1    A    
C1    O2    A    
O6    Zn2   S    
C14   H8    S    
O5    Zn1   S    
C22   H17   S    
C15   H13   S    
C7    C16   S    
C19   C21   S    
O2    Zn2   S    
O8    Zn2   S    
C10   H1    S    
C13   H4    S    
C3    C11   S    
C11   H3    S    
C14   H7    S    
C6    C16   T    
C4    H18   S    
C11   H2    S    
C21   O7    A    
C18   O6    A    
C5    C12   T    
C3    C8    S    
C4    C13   S    
C6    C17   S    
C3    H19   S    
C1    C20   S    
C11   H20   S    
C2    C7    S    
O7    Zn1   S    
N2    Zn1   S    
C15   H11   S    
C21   O8    A    
C13   H5    S    
C17   O3    A    
C18   O5    A    
C8    C9    S    
C3    C22   S    
