data_mof_unit_34339.cif
_audit_creation_date              2012-12-10T18:09:05-0500
_audit_creation_method            fapswitch 2.2
_symmetry_space_group_name_H-M    P1
_symmetry_Int_Tables_number       1
_space_group_crystal_system       triclinic
_cell_length_a                    12.678376
_cell_length_b                    13.088407
_cell_length_c                    13.665832
_cell_angle_alpha                 89.654639
_cell_angle_beta                  96.348018
_cell_angle_gamma                 97.763111
_cell_volume                      2233.05315839

loop_
_atom_site_label
_atom_site_type_symbol
_atom_type_description
_atom_site_fract_x
_atom_site_fract_y
_atom_site_fract_z
_atom_type_partial_charge
C1    C     C_R   0.559149 0.691318 0.516313 0.844136
C2    C     C_1   0.531317 0.507622 0.218469 -0.202661
C3    C     C_R   0.278836 0.058196 0.505710 -0.234378
C4    C     C_R   0.407181 0.199134 0.464437 -0.121253
C5    C     C_R   0.704064 0.839888 0.525671 -0.191706
C6    C     C_R   0.736435 0.945711 0.525881 -0.171425
C7    C     C_R   0.660196 0.013145 0.524002 -0.141954
C8    C     C_R   0.550526 0.974778 0.525288 0.074628
C9    C     C_R   0.522909 0.870418 0.547111 0.049169
C10   C     C_R   0.467247 0.036169 0.505828 0.009826
C11   C     C_R   0.362420 0.998876 0.530601 0.102096
C12   C     C_R   0.517123 0.498314 0.318540 0.887296
C13   C     C_R   0.343934 0.902810 0.577372 0.077540
C14   C     C_R   0.423604 0.838514 0.582673 -0.232746
C15   C     C_R   0.483723 0.132624 0.459426 0.170092
C16   C     C_R   0.301548 0.157536 0.470935 -0.239253
C17   C     C_R   0.596363 0.801348 0.533507 -0.106443
C18   C     C_R   0.907022 0.418270 0.680250 -0.296946
C19   C     C_R   0.210283 0.606982 0.365944 0.000548
C20   C     C_R   0.108624 0.629804 0.332582 -0.265506
C21   C     C_R   0.023547 0.597791 0.386441 -0.185693
C22   C     C_R   0.040654 0.544348 0.475274 -0.007244
C23   C     C_R   0.441634 0.309190 0.480870 0.850449
C24   C     C_R   0.146113 0.522212 0.507022 0.172807
C25   C     C_R   0.956741 0.507101 0.532107 -0.017194
C26   C     C_R   0.984045 0.471515 0.628096 0.123128
C27   C     C_R   0.090008 0.473547 0.665605 -0.334562
C28   C     C_R   0.163914 0.471674 0.598505 0.220909
C29   C     C_R   0.847257 0.498216 0.496908 -0.080833
C30   C     C_R   0.801559 0.401228 0.638643 0.256577
C31   C     C_R   0.483532 0.503529 0.681558 0.879138
C32   C     C_1   0.473597 0.505708 0.782640 -0.218907
C33   C     C_2   0.465094 0.508034 0.971679 -0.200978
C34   C     C_2   0.555433 0.528942 0.032593 0.130409
C35   C     C_1   0.544596 0.517656 0.134160 -0.044454
C36   C     C_1   0.466756 0.507162 0.868511 -0.008040
H1    H     H_    0.408396 0.764113 0.617236 0.171170
H2    H     H_    0.108822 0.443034 0.738598 0.151064
H3    H     H_    0.930485 0.383414 0.750066 0.136736
H4    H     H_    0.819063 0.531582 0.428244 0.134271
H5    H     H_    0.276211 0.631845 0.323749 0.148510
H6    H     H_    0.946110 0.618279 0.359018 0.136829
H7    H     H_    0.095842 0.672256 0.265050 0.150819
H8    H     H_    0.388284 0.486619 0.999912 0.141108
H9    H     H_    0.237993 0.203888 0.454484 0.184876
H10   H     H_    0.196619 0.030718 0.516116 0.155584
H11   H     H_    0.762937 0.788498 0.518172 0.159293
H12   H     H_    0.688187 0.094831 0.522949 0.159011
H13   H     H_    0.819944 0.975419 0.522858 0.141299
N1    N     N_R   0.773270 0.445590 0.549770 -0.120737
N2    N     N_R   0.227520 0.553880 0.450750 -0.129632
O1    O     O_R   0.631100 0.627590 0.523760 -0.610506
O2    O     O_R   0.455900 0.662370 0.491970 -0.615674
O3    O     O_R   0.600200 0.480080 0.377830 -0.618284
O4    O     O_R   0.425000 0.514870 0.346040 -0.618635
O5    O     O_R   0.544100 0.337630 0.508030 -0.650185
O6    O     O_R   0.368900 0.372410 0.476240 -0.571489
O7    O     O_R   0.575000 0.485130 0.653960 -0.609017
O8    O     O_R   0.399800 0.519920 0.622170 -0.618137
Zn1   Zn    Zn3+2 0.616980 0.476780 0.521230 0.920801
Zn2   Zn    Zn3+2 0.383020 0.523220 0.478770 0.943226
C37   C     C_3   0.666354 0.558757 0.000724 -0.386281
C38   C     C_3   0.714164 0.667496 0.037298 -0.338508
C39   C     C_3   0.825298 0.697977 0.004596 -0.898645
H14   H     H_    0.880462 0.643529 0.034756 0.260457
H15   H     H_    0.820863 0.697664 0.922946 0.264375
H16   H     H_    0.857969 0.776789 0.032237 0.250946
H17   H     H_    0.660930 0.723897 0.007489 0.226059
H18   H     H_    0.720830 0.670847 0.119064 0.224079
H19   H     H_    0.718868 0.502129 0.031433 0.193585
H20   H     H_    0.665240 0.556542 0.919598 0.208192
C40   C     C_3   0.724129 0.328858 0.692104 -0.390838
C41   C     C_3   0.717018 0.364927 0.797857 -0.356621
C42   C     C_3   0.626864 0.299071 0.843876 -0.872078
H21   H     H_    0.548657 0.303185 0.799637 0.263336
H22   H     H_    0.641946 0.217426 0.848020 0.257941
H23   H     H_    0.622769 0.327619 0.919527 0.252424
H24   H     H_    0.793140 0.359066 0.844867 0.205556
H25   H     H_    0.703345 0.446756 0.797967 0.242261
H26   H     H_    0.643903 0.317492 0.652121 0.259241
H27   H     H_    0.751766 0.251677 0.695215 0.163777
N3    N     N_2   0.227750 0.390252 0.611134 -0.226296
H28   H     H_    0.272602 0.395127 0.679080 0.229779
C43   C     C_3   0.165219 0.288596 0.603203 -0.830149
H29   H     H_    0.219099 0.229119 0.617997 0.241273
H30   H     H_    0.118767 0.277394 0.529377 0.245771
H31   H     H_    0.108332 0.277467 0.659875 0.228312
C44   C     C_3   0.242416 0.867937 0.624399 -0.439144
C45   C     C_3   0.155467 0.810106 0.550557 -0.317657
C46   C     C_3   0.050714 0.782821 0.596120 -0.880211
H32   H     H_    0.061898 0.729472 0.658805 0.268176
H33   H     H_    0.022795 0.853649 0.622355 0.253691
H34   H     H_    0.987976 0.744552 0.540136 0.252103
H35   H     H_    0.140391 0.857174 0.483894 0.219049
H36   H     H_    0.183366 0.738336 0.527452 0.239749
H37   H     H_    0.260073 0.816245 0.687305 0.200569
H38   H     H_    0.213098 0.935189 0.656540 0.199105
N4    N     N_2   0.566315 0.156654 0.396088 -0.318533
H39   H     H_    0.584398 0.233392 0.379430 0.248949
C47   C     C_3   0.552898 0.093688 0.307619 -0.797682
H40   H     H_    0.622552 0.114419 0.265357 0.237625
H41   H     H_    0.478802 0.107227 0.260698 0.238866
H42   H     H_    0.548363 0.010526 0.325672 0.258521

loop_
_geom_bond_atom_site_label_1
_geom_bond_atom_site_label_2
_ccdc_geom_bond_type
C2    C35   T    
C44   H37   S    
C45   H36   S    
C41   C42   S    
C19   C20   A    
N2    Zn2   S    
C43   H31   S    
C9    C14   A    
C2    C12   S    
C7    C8    A    
O3    Zn1   S    
C5    H11   S    
C26   C27   A    
C42   H22   S    
C32   C36   T    
C31   O7    A    
C43   H30   S    
C10   C15   A    
C5    C6    A    
C5    C17   A    
C27   H2    S    
O7    Zn1   S    
C34   C37   S    
C33   C36   S    
C37   H19   S    
C34   C35   S    
C31   O8    A    
C45   H35   S    
C1    O2    A    
O1    Zn1   S    
O2    Zn2   S    
C38   H18   S    
C8    C9    A    
C42   H23   S    
C18   C26   A    
C41   H24   S    
C18   C30   A    
C44   H38   S    
C24   N2    A    
C30   N1    A    
C21   C22   A    
C1    O1    A    
C29   N1    A    
C25   C29   A    
O8    Zn2   S    
C42   H21   S    
C28   N3    S    
C39   H16   S    
C24   C28   A    
C23   O5    A    
C43   H29   S    
C4    C23   S    
C25   C26   A    
C22   C25   A    
C47   H42   S    
C21   H6    S    
C39   H15   S    
C4    C16   A    
C18   H3    S    
C37   C38   S    
C46   H33   S    
C31   C32   S    
C47   H41   S    
C33   C34   D    
C41   H25   S    
C20   C21   A    
C9    C17   A    
N4    H39   S    
N3    C43   S    
C22   C24   A    
C15   N4    S    
C20   H7    S    
C46   H34   S    
C23   O6    A    
C38   H17   S    
C33   H8    S    
C40   H27   S    
C40   C41   S    
C16   H9    S    
C30   C40   S    
O6    Zn2   S    
C6    C7    A    
C3    H10   S    
C1    C17   S    
N1    Zn1   S    
C39   H14   S    
C4    C15   A    
C40   H26   S    
C7    H12   S    
C14   H1    S    
C11   C13   A    
C46   H32   S    
O4    Zn2   S    
C13   C44   S    
C47   H40   S    
C37   H20   S    
C6    H13   S    
N4    C47   S    
C12   O4    A    
C3    C11   A    
C10   C11   A    
C38   C39   S    
C19   N2    A    
O5    Zn1   S    
C44   C45   S    
C8    C10   A    
N3    H28   S    
C27   C28   A    
C29   H4    S    
C45   C46   S    
C13   C14   A    
C12   O3    A    
C3    C16   A    
C19   H5    S    
