data_mof_unit_10948.cif
_audit_creation_date              2012-12-10T17:50:30-0500
_audit_creation_method            fapswitch 2.2
_symmetry_space_group_name_H-M    P1
_symmetry_Int_Tables_number       1
_space_group_crystal_system       triclinic
_cell_length_a                    15.713976
_cell_length_b                    10.71928
_cell_length_c                    9.886674
_cell_angle_alpha                 88.649361
_cell_angle_beta                  89.823837
_cell_angle_gamma                 91.743598
_cell_volume                      1664.09066363

loop_
_atom_site_label
_atom_site_type_symbol
_atom_type_description
_atom_site_fract_x
_atom_site_fract_y
_atom_site_fract_z
_atom_type_partial_charge
C1    C     C_R   0.503521 0.259454 0.502718 0.872585
C2    C     C_R   0.457324 0.035571 0.874733 -0.120623
C3    C     C_R   0.415194 0.921665 0.855817 -0.111043
C4    C     C_R   0.337984 0.499683 0.500258 0.888006
C5    C     C_R   0.415897 0.868712 0.728654 -0.152595
C6    C     C_R   0.458379 0.930660 0.618432 0.095227
C7    C     C_R   0.485243 0.055338 0.630978 0.107993
C8    C     C_R   0.504456 0.125090 0.509448 -0.119899
C9    C     C_R   0.512638 0.065282 0.386074 -0.223514
C10   C     C_R   0.502832 0.938380 0.381150 -0.219030
C11   C     C_R   0.478691 0.870494 0.497590 -0.126290
C12   C     C_3   0.083072 0.500453 0.502910 0.115842
C13   C     C_R   0.384816 0.340908 0.144030 -0.215928
C14   C     C_R   0.326169 0.265944 0.075721 -0.345464
C15   C     C_R   0.324073 0.268650 0.934256 0.499081
C16   C     C_R   0.491113 0.738619 0.498847 0.876300
C17   C     C_R   0.384561 0.342498 0.863726 -0.230038
C18   C     C_R   0.443038 0.422197 0.929784 0.070874
C19   C     C_R   0.443049 0.422007 0.074349 0.172455
C20   C     C_R   0.554157 0.575078 0.069395 -0.123134
C21   C     C_R   0.554159 0.575001 0.926097 -0.100299
C22   C     C_R   0.662076 0.499858 0.499824 0.913968
C23   C     C_3   0.973576 0.606162 0.547453 0.259565
C24   C     C_3   0.970229 0.403156 0.582665 -0.305105
C25   C     C_3   0.026567 0.391908 0.456216 0.552086
C26   C     C_1   0.249139 0.500002 0.501197 -0.172733
C27   C     C_1   0.751032 0.497997 0.499429 -0.197282
C28   C     C_3   0.027805 0.513991 0.629891 -0.234275
C29   C     C_3   0.997844 0.195555 0.374613 0.075181
C30   C     C_3   0.038587 0.079051 0.320421 -0.311663
C31   C     C_3   0.971358 0.981435 0.279749 -0.990621
C32   C     C_3   0.184925 0.195466 0.908940 0.076100
C33   C     C_3   0.124106 0.156119 0.796244 -0.295370
C34   C     C_3   0.917319 0.496713 0.500263 0.086163
C35   C     C_3   0.031749 0.153507 0.844644 -1.002703
C36   C     C_3   0.939892 0.728361 0.599471 -0.409327
C37   C     C_3   0.012439 0.819567 0.634521 -0.884996
C38   C     C_3   0.030309 0.593790 0.420999 -0.229416
C39   C     C_3   0.972832 0.483279 0.372882 -0.296437
C40   C     C_1   0.173878 0.500349 0.502337 -0.019397
C41   C     C_1   0.826351 0.496692 0.499474 -0.063370
C42   C     C_R   0.492253 0.102195 0.763903 -0.173992
H1    H     H_    0.384941 0.872085 0.940575 0.134111
H2    H     H_    0.948489 0.469559 0.268834 0.144539
H3    H     H_    0.056930 0.671953 0.356729 0.148509
H4    H     H_    0.052472 0.527674 0.733774 0.149186
H5    H     H_    0.528667 0.116223 0.292990 0.172537
H6    H     H_    0.527772 0.186519 0.786849 0.169236
H7    H     H_    0.461952 0.073410 0.975125 0.135832
H8    H     H_    0.956247 0.235348 0.294479 0.138606
H9    H     H_    0.958706 0.168083 0.465233 0.137471
H10   H     H_    0.078743 0.105260 0.230783 0.216952
H11   H     H_    0.080088 0.038151 0.399655 0.223726
H12   H     H_    0.383638 0.778910 0.717463 0.154447
H13   H     H_    0.929752 0.954974 0.367398 0.270578
H14   H     H_    0.003020 0.896697 0.244830 0.263988
H15   H     H_    0.931719 0.018619 0.196071 0.266332
H16   H     H_    0.168098 0.291025 0.940499 0.137476
H17   H     H_    0.176389 0.128552 0.995969 0.142374
H18   H     H_    0.131393 0.222879 0.708846 0.243226
H19   H     H_    0.140153 0.061623 0.761877 0.231121
H20   H     H_    0.022541 0.085290 0.930181 0.271570
H21   H     H_    0.989235 0.125294 0.760556 0.259875
H22   H     H_    0.013911 0.247550 0.877769 0.265882
H23   H     H_    0.516485 0.893411 0.286799 0.169099
H24   H     H_    0.052041 0.779790 0.716785 0.260212
H25   H     H_    0.053119 0.840501 0.544332 0.262575
H26   H     H_    0.985771 0.908045 0.669174 0.255449
H27   H     H_    0.899305 0.771249 0.520447 0.204207
H28   H     H_    0.900182 0.708166 0.690974 0.207069
H29   H     H_    0.598307 0.636398 0.121599 0.142485
H30   H     H_    0.382723 0.331634 0.251306 0.230222
H31   H     H_    0.283558 0.204175 0.133946 0.158712
H32   H     H_    0.384369 0.333502 0.756849 0.229377
H33   H     H_    0.598306 0.636300 0.870298 0.147229
H34   H     H_    0.943050 0.325484 0.646828 0.151468
N1    N     N_R   0.499210 0.498800 0.142780 -0.112258
N2    N     N_R   0.499180 0.498720 0.857170 -0.112156
O1    O     O_R   0.500000 0.316780 0.614690 -0.652666
O2    O     O_3   0.269533 0.192145 0.860305 -0.639931
O3    O     O_R   0.499990 0.316750 0.385360 -0.638978
O4    O     O_R   0.376780 0.500000 0.614650 -0.639948
O5    O     O_R   0.376770 0.499980 0.385310 -0.628928
O6    O     O_R   0.500010 0.683250 0.614640 -0.623152
O7    O     O_R   0.500000 0.683220 0.385310 -0.620560
O8    O     O_R   0.623230 0.500020 0.614690 -0.612663
O9    O     O_R   0.623220 0.500000 0.385350 -0.610954
O10   O     O_3   0.062918 0.282193 0.409325 -0.654037
Zn1   Zn    Zn3+2 0.500010 0.500020 0.653130 0.927113
Zn2   Zn    Zn3+2 0.499990 0.499980 0.346870 0.936562

loop_
_geom_bond_atom_site_label_1
_geom_bond_atom_site_label_2
_ccdc_geom_bond_type
C1    C8    S    
C32   H16   S    
C7    C8    A    
C28   H4    S    
O4    Zn1   S    
C20   N1    A    
C12   C28   S    
C36   C37   S    
C38   C39   S    
C1    O3    A    
C37   H26   S    
C16   O6    A    
C18   C19   A    
C7    C42   A    
C19   N1    A    
C29   O10   S    
C8    C9    A    
C38   H3    S    
C21   N2    A    
C20   H29   S    
C35   H22   S    
C31   H14   S    
C9    C10   A    
C13   C14   A    
C34   C41   S    
C36   H28   S    
C29   H8    S    
N2    Zn1   S    
C30   H11   S    
N1    Zn2   S    
C13   C19   A    
C34   C39   S    
C14   H31   S    
C5    H12   S    
C24   C25   S    
C6    C11   A    
C24   H34   S    
C22   O9    A    
C25   O10   S    
C24   C34   S    
C12   C40   S    
C29   C30   S    
C2    H7    S    
C32   O2    S    
C11   C16   S    
C27   C41   T    
C15   O2    S    
C30   C31   S    
C18   N2    A    
C23   C34   S    
C3    H1    S    
C37   H24   S    
C17   C18   A    
C42   H6    S    
C23   C28   S    
C39   H2    S    
O3    Zn2   S    
C9    H5    S    
C33   H18   S    
C22   C27   S    
C16   O7    A    
C1    O1    A    
O6    Zn1   S    
C36   H27   S    
C29   H9    S    
C10   H23   S    
C15   C17   A    
O5    Zn2   S    
C30   H10   S    
C17   H32   S    
C24   C28   S    
C3    C5    A    
O8    Zn1   S    
C4    C26   S    
O7    Zn2   S    
C6    C7    A    
C13   H30   S    
C23   C38   S    
C21   H33   S    
C12   C25   S    
C32   C33   S    
C31   H15   S    
C2    C3    A    
C25   C39   S    
C26   C40   T    
C5    C6    A    
C4    O5    A    
C2    C42   A    
C37   H25   S    
C33   C35   S    
C35   H20   S    
C22   O8    A    
C12   C38   S    
O1    Zn1   S    
C10   C11   A    
C4    O4    A    
C20   C21   A    
C33   H19   S    
C23   C36   S    
O9    Zn2   S    
C14   C15   A    
C35   H21   S    
C32   H17   S    
C31   H13   S    
