data_mof_unit_65322.cif
_audit_creation_date              2012-12-10T16:56:04-0500
_audit_creation_method            fapswitch 2.2
_symmetry_space_group_name_H-M    P1
_symmetry_Int_Tables_number       1
_space_group_crystal_system       triclinic
_cell_length_a                    18.745594
_cell_length_b                    18.738013
_cell_length_c                    18.893569
_cell_angle_alpha                 109.44236
_cell_angle_beta                  109.580787
_cell_angle_gamma                 109.195193
_cell_volume                      5120.98555842

loop_
_atom_site_label
_atom_site_type_symbol
_atom_type_description
_atom_site_fract_x
_atom_site_fract_y
_atom_site_fract_z
_atom_type_partial_charge
C1    C     C_R   0.375002 0.380742 0.493553 0.881619
C2    C     C_R   0.266131 0.221656 0.427723 -0.243738
C3    C     C_R   0.299322 0.311599 0.484039 -0.179115
C4    C     C_R   0.617332 0.498009 0.619147 0.980792
C5    C     C_R   0.265903 0.334676 0.539185 0.655860
C6    C     C_R   0.206209 0.270804 0.543251 0.277222
C7    C     C_R   0.186296 0.184026 0.499502 -0.148587
C8    C     C_R   0.426249 0.611506 0.300095 0.218878
C9    C     C_R   0.447980 0.635373 0.244594 0.566401
C10   C     C_R   0.385243 0.597066 0.158459 0.260468
C11   C     C_R   0.297668 0.541711 0.129489 0.299960
C12   C     C_3   0.807785 0.499279 0.808841 -0.637693
C13   C     C_R   0.273028 0.525136 0.188520 -0.149547
C14   C     C_R   0.340019 0.547698 0.269002 -0.169726
C15   C     C_R   0.317747 0.505708 0.314649 -0.154160
C16   C     C_R   0.626690 0.618206 0.507620 0.924494
C17   C     C_R   0.230144 0.455961 0.289139 0.292803
C18   C     C_R   0.165043 0.450618 0.221275 0.655633
C19   C     C_R   0.185303 0.487146 0.171635 -0.177571
C20   C     C_R   0.740781 0.578645 0.432204 0.281707
C21   C     C_R   0.761337 0.552376 0.366902 0.529144
C22   C     C_R   0.783142 0.604956 0.332025 0.567910
C23   C     C_3   0.848089 0.574452 0.790292 1.016228
C24   C     C_R   0.794090 0.688549 0.368203 0.228948
C25   C     C_R   0.783237 0.720338 0.441279 -0.192128
C26   C     C_R   0.741587 0.659762 0.463172 -0.197957
C27   C     C_R   0.703363 0.683992 0.514652 -0.189479
C28   C     C_R   0.383265 0.502929 0.380978 0.902134
C29   C     C_R   0.730867 0.772780 0.563614 0.637696
C30   C     C_R   0.788490 0.834970 0.556399 0.550096
C31   C     C_R   0.813230 0.809688 0.494447 -0.171036
C32   C     C_R   0.998401 0.380980 0.879783 0.948086
C33   C     C_R   0.877586 0.500190 0.877965 1.031472
C34   C     C_3   0.740923 0.512181 0.836941 0.968871
C35   C     C_R   0.995544 0.619119 0.114296 0.906038
C36   C     C_R   0.117033 0.494655 0.111515 0.894387
C37   C     C_R   0.006686 0.125791 0.618420 0.873561
C38   C     C_R   0.118884 0.118065 0.499743 0.956413
C39   C     C_R   0.004264 0.885074 0.382093 0.981907
C40   C     C_3   0.692260 0.414534 0.649386 -0.438297
C41   C     C_R   0.881029 0.878663 0.497103 0.903206
C42   C     C_R   0.081965 0.279317 0.918856 0.576240
C43   C     C_R   0.146020 0.256659 0.945642 0.277985
C44   C     C_R   0.182248 0.234290 0.893739 0.251872
C45   C     C_R   0.273066 0.189969 0.352299 0.628188
C46   C     C_R   0.147522 0.225589 0.810905 0.349962
C47   C     C_R   0.071290 0.232324 0.777211 -0.155756
C48   C     C_R   0.049204 0.274109 0.836985 -0.195419
C49   C     C_R   0.000107 0.314109 0.814340 -0.184390
C50   C     C_R   0.966081 0.303186 0.731088 0.605310
C51   C     C_R   0.970678 0.245004 0.666610 0.327791
C52   C     C_3   0.757905 0.410636 0.721763 0.787832
C53   C     C_R   0.018727 0.203709 0.687739 -0.164919
C54   C     C_R   0.975563 0.761861 0.092622 0.615453
C55   C     C_R   0.981717 0.836297 0.087939 0.279189
C56   C     C_R   0.258571 0.105061 0.312046 0.232620
C57   C     C_R   0.001476 0.908885 0.159742 0.201104
C58   C     C_R   0.010857 0.905712 0.234745 0.543910
C59   C     C_R   0.003159 0.829889 0.240638 -0.181475
C60   C     C_R   0.991230 0.759037 0.170278 -0.201012
C61   C     C_R   0.994434 0.687409 0.179469 -0.166106
C62   C     C_R   0.004280 0.684742 0.255517 0.305954
C63   C     C_R   0.009402 0.751066 0.321400 0.613483
C64   C     C_3   0.774734 0.579900 0.727494 0.912599
C65   C     C_R   0.008252 0.822843 0.314656 -0.142532
C66   C     C_3   0.663887 0.500652 0.760759 0.329601
C67   C     C_R   0.234452 0.050114 0.344813 0.201128
C68   C     C_3   0.685566 0.498034 0.687580 -0.559313
C69   C     C_R   0.213935 0.076375 0.410225 0.609306
C70   C     C_R   0.222210 0.160066 0.446744 -0.183607
Cl1   Cl    Cl    0.270581 0.068632 0.220225 -0.289212
Cl2   Cl    Cl    0.701961 0.317238 0.729134 -0.336094
Cl3   Cl    Cl    0.186744 0.266347 0.049089 -0.335241
Cl4   Cl    Cl    0.273188 0.220110 0.933810 -0.299906
Cl5   Cl    Cl    0.214473 0.232443 0.763034 -0.382244
Cl6   Cl    Cl    0.920987 0.232399 0.562298 -0.308494
Cl7   Cl    Cl    0.013484 0.600091 0.272415 -0.347927
Cl8   Cl    Cl    0.965258 0.838141 0.991301 -0.187554
Cl9   Cl    Cl    0.014438 0.005414 0.157174 -0.309668
Cl10  Cl    Cl    0.224482 0.946038 0.301195 -0.435798
Cl11  Cl    Cl    0.159798 0.302047 0.606995 -0.397939
Cl12  Cl    Cl    0.200051 0.401829 0.343771 -0.378570
Cl13  Cl    Cl    0.503518 0.677989 0.410940 -0.483914
Cl14  Cl    Cl    0.417871 0.621786 0.088328 -0.280738
Cl15  Cl    Cl    0.226116 0.480945 0.016609 -0.505019
Cl16  Cl    Cl    0.734006 0.516029 0.484037 -0.333776
Cl17  Cl    Cl    0.801720 0.741210 0.307428 -0.451295
Cu1   Cu    Cu3+1 0.500370 0.438230 0.438530 1.204095
Cu2   Cu    Cu3+1 0.499630 0.561770 0.561470 1.263368
Cu3   Cu    Cu3+1 0.935490 0.438240 0.997340 1.306812
Cu4   Cu    Cu3+1 0.059110 0.561770 0.997270 1.258456
Cu5   Cu    Cu3+1 0.062130 0.000010 0.562160 1.231907
Cu6   Cu    Cu3+1 0.937870 0.000010 0.437860 1.257496
F1    F     F_    0.781317 0.595088 0.906736 -0.573107
F2    F     F_    0.759013 0.474548 0.336035 -0.490065
F3    F     F_    0.795308 0.574931 0.263455 -0.509673
F4    F     F_    0.818078 0.920653 0.608166 -0.586789
F5    F     F_    0.927548 0.349172 0.712291 -0.517686
F6    F     F_    0.052496 0.306151 0.973370 -0.605871
F7    F     F_    0.950391 0.691455 0.019402 -0.558952
F8    F     F_    0.816245 0.397084 0.697706 -0.506593
F9    F     F_    0.032280 0.979726 0.302345 -0.631220
F10   F     F_    0.013657 0.744399 0.392056 -0.578403
F11   F     F_    0.791775 0.586353 0.663517 -0.550671
F12   F     F_    0.772662 0.654495 0.771471 -0.559692
F13   F     F_    0.899079 0.559499 0.754632 -0.497328
F14   F     F_    0.587928 0.424897 0.728497 -0.559632
F15   F     F_    0.709096 0.453878 0.863115 -0.498726
F16   F     F_    0.901932 0.654078 0.865592 -0.483820
F17   F     F_    0.289804 0.419187 0.588347 -0.539226
F18   F     F_    0.283455 0.236869 0.311444 -0.544609
F19   F     F_    0.188081 0.020538 0.438786 -0.610843
F20   F     F_    0.531037 0.695420 0.274377 -0.535246
F21   F     F_    0.081748 0.409585 0.204521 -0.524312
F22   F     F_    0.702349 0.800191 0.619050 -0.526815
H1    H     H_    0.713747 0.414554 0.601120 0.292495
H2    H     H_    0.626826 0.355500 0.613453 0.258392
H3    H     H_    0.652029 0.555919 0.785349 0.204303
O1    O     O_R   0.410120 0.357660 0.448080 -0.552919
O2    O     O_R   0.946980 0.090140 0.537200 -0.540582
O3    O     O_R   0.142650 0.090190 0.552500 -0.522147
O4    O     O_R   0.409500 0.461990 0.551900 -0.521929
O5    O     O_R   0.037720 0.090180 0.447540 -0.527940
O6    O     O_R   0.053020 0.909880 0.462820 -0.519566
O7    O     O_R   0.948080 0.909870 0.357860 -0.524594
O8    O     O_R   0.962280 0.909830 0.552480 -0.571185
O9    O     O_R   0.857350 0.909830 0.447520 -0.524023
O10   O     O_R   0.590960 0.447820 0.538760 -0.563638
O11   O     O_R   0.590340 0.552160 0.642570 -0.562625
O12   O     O_R   0.049970 0.461970 0.907590 -0.535281
O13   O     O_R   0.590500 0.538010 0.448100 -0.575921
O14   O     O_R   0.589880 0.642340 0.551920 -0.492966
O15   O     O_R   0.409660 0.447840 0.357430 -0.541628
O16   O     O_R   0.409040 0.552180 0.461240 -0.535231
O17   O     O_R   0.945580 0.357650 0.907650 -0.534843
O18   O     O_R   0.854450 0.447860 0.906670 -0.533358
O19   O     O_R   0.958850 0.552170 0.906610 -0.482328
O20   O     O_R   0.944630 0.538040 0.087020 -0.534711
O21   O     O_R   0.049030 0.642360 0.086960 -0.550777
O22   O     O_R   0.035750 0.447840 0.088000 -0.483989
O23   O     O_R   0.140150 0.552150 0.087940 -0.585091
O24   O     O_R   0.051920 0.090140 0.642160 -0.565280

loop_
_geom_bond_atom_site_label_1
_geom_bond_atom_site_label_2
_ccdc_geom_bond_type
C25   C31   A    
C66   C68   S    
C63   C65   A    
C43   Cl3   S    
C39   O7    A    
C27   C29   A    
C8    Cl13  S    
C41   O9    A    
C62   Cl7   S    
C66   F14   S    
C36   O23   A    
C18   F21   S    
C7    C70   A    
C32   O12   A    
C57   C58   A    
C64   F12   S    
Cu4   O12   S    
C54   C60   A    
C12   C23   S    
C26   C27   A    
C29   C30   A    
Cu2   O14   S    
C28   O16   A    
C64   C68   S    
C21   C22   A    
Cu1   O15   S    
C18   C19   A    
C19   C36   S    
Cu5   O6    S    
C35   O20   A    
C30   C31   A    
C69   F19   S    
Cu2   O4    S    
Cu2   O11   S    
C15   C17   A    
C17   Cl12  S    
C1    O1    A    
C16   O13   A    
C57   Cl9   S    
C1    O4    A    
C46   Cl5   S    
C35   O21   A    
Cu4   O19   S    
C45   C56   A    
C33   O19   A    
C8    C9    A    
C20   Cl16  S    
C58   F9    S    
Cu6   O2    S    
Cu5   O24   S    
C9    C10   A    
C38   O5    A    
C47   C53   A    
C37   C53   S    
Cu1   Cu2   S    
C16   C27   S    
C40   H2    S    
C29   F22   S    
C59   C60   A    
C6    Cl11  S    
C13   C14   A    
C39   C65   S    
C54   F7    S    
C69   C70   A    
Cu5   O3    S    
C34   C66   S    
C12   C52   S    
C44   C46   A    
C50   C51   A    
C2    C45   A    
C23   F16   S    
C52   F8    S    
C50   F5    S    
C37   O24   A    
C13   C19   A    
C28   O15   A    
C38   O3    A    
Cu6   O5    S    
C51   Cl6   S    
C63   F10   S    
C66   H3    S    
C4    C68   S    
C55   Cl8   S    
C4    O10   A    
C21   F2    S    
C25   C26   A    
C40   C52   S    
C23   F13   S    
C39   O6    A    
C60   C61   A    
C1    C3    S    
Cu3   O20   S    
C43   C44   A    
Cu6   O9    S    
C62   C63   A    
C52   Cl2   S    
Cu3   O18   S    
C47   C48   A    
C30   F4    S    
C56   Cl1   S    
C17   C18   A    
C35   C61   S    
C42   C48   A    
C24   C25   A    
Cu1   O1    S    
C44   Cl4   S    
C36   O22   A    
C6    C7    A    
Cu4   O21   S    
C48   C49   A    
C55   C57   A    
C40   C68   S    
C22   C24   A    
C42   C43   A    
C12   C34   S    
C67   C69   A    
C64   F11   S    
C54   C55   A    
C23   C64   S    
C8    C14   A    
Cu2   O16   S    
C31   C41   S    
C22   F3    S    
C41   O8    A    
C67   Cl10  S    
C34   F1    S    
C3    C5    A    
Cu5   O8    S    
C40   H1    S    
C32   O17   A    
Cu3   O22   S    
C45   F18   S    
C4    O11   A    
C56   C67   A    
C9    F20   S    
C2    C3    A    
C58   C59   A    
C34   F15   S    
Cu1   O10   S    
C42   F6    S    
C59   C65   A    
Cu3   O17   S    
C11   C13   A    
C33   O18   A    
Cu3   Cu4   S    
C5    C6    A    
C37   O2    A    
C20   C26   A    
C11   Cl15  S    
C10   Cl14  S    
Cu5   Cu6   S    
C7    C38   S    
C61   C62   A    
C16   O14   A    
C24   Cl17  S    
Cu6   O7    S    
C32   C49   S    
C46   C47   A    
C10   C11   A    
C15   C28   S    
C20   C21   A    
C49   C50   A    
C5    F17   S    
C14   C15   A    
Cu1   O13   S    
C51   C53   A    
C12   C33   S    
C2    C70   A    
Cu4   O23   S    
