data_mof_unit_29615.cif
_audit_creation_date              2012-12-10T19:04:43-0500
_audit_creation_method            fapswitch 2.2
_symmetry_space_group_name_H-M    P1
_symmetry_Int_Tables_number       1
_space_group_crystal_system       triclinic
_cell_length_a                    15.853771
_cell_length_b                    10.857254
_cell_length_c                    9.551264
_cell_angle_alpha                 89.790801
_cell_angle_beta                  90.263807
_cell_angle_gamma                 89.951019
_cell_volume                      1644.01495835

loop_
_atom_site_label
_atom_site_type_symbol
_atom_type_description
_atom_site_fract_x
_atom_site_fract_y
_atom_site_fract_z
_atom_type_partial_charge
C1    C     C_R   0.500690 0.262841 0.500085 0.815292
C2    C     C_3   0.082948 0.497881 0.498539 0.165584
C3    C     C_3   0.972250 0.588063 0.585483 -0.219341
C4    C     C_3   0.917156 0.497477 0.501605 0.131375
C5    C     C_3   0.027500 0.607584 0.453394 -0.205762
C6    C     C_3   0.970732 0.517471 0.369571 -0.129545
C7    C     C_1   0.174607 0.498324 0.498843 -0.031374
C8    C     C_1   0.825476 0.498138 0.501595 -0.057531
C9    C     C_R   0.485345 0.060951 0.616288 0.072180
C10   C     C_R   0.504099 0.130479 0.498697 -0.197456
C11   C     C_R   0.528241 0.067164 0.376738 -0.212312
C12   C     C_R   0.339861 0.499589 0.499717 0.821922
C13   C     C_R   0.534138 0.938145 0.376099 0.386098
C14   C     C_R   0.510122 0.870085 0.497779 -0.199635
C15   C     C_R   0.488696 0.937038 0.615943 0.047868
C16   C     C_3   0.461602 0.925308 0.764751 -0.453557
C17   C     C_3   0.459169 0.067569 0.766403 -0.175281
C18   C     C_R   0.551906 0.577824 0.073934 0.226717
C19   C     C_R   0.443440 0.431908 0.074184 -0.058007
C20   C     C_R   0.443170 0.432473 0.925374 -0.051576
C21   C     C_R   0.552773 0.576345 0.926604 0.229654
C22   C     C_3   0.647149 0.577395 0.924168 0.163271
C23   C     C_R   0.503917 0.737213 0.499518 0.795924
C24   C     C_3   0.645828 0.581952 0.082782 -0.526922
C25   C     C_R   0.660161 0.499835 0.500327 0.818316
C26   C     C_3   0.972209 0.387182 0.546914 -0.228620
C27   C     C_3   0.027513 0.407696 0.415005 -0.221797
C28   C     C_1   0.250169 0.498897 0.499150 -0.175873
C29   C     C_1   0.749890 0.498968 0.501102 -0.173359
C30   C     C_3   0.028269 0.478344 0.627262 0.450249
Cu1   Cu    Cu3+1 0.500000 0.499980 0.640670 0.982290
Cu2   Cu    Cu3+1 0.500000 0.500020 0.359330 0.952572
H1    H     H_    0.051389 0.334455 0.344685 0.142435
H2    H     H_    0.512000 0.885570 0.832496 0.192771
H3    H     H_    0.509434 0.109492 0.832455 0.166862
H4    H     H_    0.398903 0.374522 0.129746 0.138838
H5    H     H_    0.398096 0.376446 0.869362 0.158478
H6    H     H_    0.673783 0.660686 0.872331 0.092426
H7    H     H_    0.673603 0.498700 0.133073 0.239386
H8    H     H_    0.669188 0.670844 0.124983 0.160201
H9    H     H_    0.948858 0.297571 0.587389 0.139919
H10   H     H_    0.945354 0.533699 0.262549 0.137336
H11   H     H_    0.051322 0.697431 0.414378 0.146109
H12   H     H_    0.948869 0.660654 0.657112 0.136824
H13   H     H_    0.545657 0.117444 0.283017 0.186438
H14   H     H_    0.398976 0.879893 0.773836 0.205180
N1    N     N_R   0.500530 0.500930 0.147930 -0.178085
N2    N     N_R   0.500530 0.500890 0.852020 -0.169331
O1    O     O_R   0.500000 0.319640 0.618810 -0.567770
O2    O     O_R   0.500010 0.319680 0.381230 -0.591989
O3    O     O_R   0.379070 0.499970 0.618770 -0.575311
O4    O     O_R   0.379080 0.500010 0.381190 -0.581122
O5    O     O_R   0.499990 0.680320 0.618770 -0.588370
O6    O     O_R   0.500000 0.680360 0.381190 -0.561775
O7    O     O_R   0.620920 0.499990 0.618810 -0.525982
O8    O     O_R   0.620930 0.500030 0.381230 -0.594219
C31   C     C_R   0.372107 0.118992 0.795952 0.160517
C32   C     C_R   0.345452 0.124078 0.935946 -0.179575
C33   C     C_R   0.266802 0.173796 0.969728 -0.177590
C34   C     C_R   0.213715 0.218474 0.864071 -0.080616
C35   C     C_R   0.239107 0.213285 0.724413 -0.132325
C36   C     C_R   0.317810 0.163928 0.690009 -0.131327
H15   H     H_    0.386115 0.090522 0.019230 0.146320
H16   H     H_    0.247126 0.177969 0.077974 0.134520
H17   H     H_    0.152833 0.256879 0.890417 0.162237
H18   H     H_    0.197706 0.247508 0.642646 0.146188
H19   H     H_    0.335449 0.161094 0.580919 0.113209
O9    O     O_3   0.680500 0.465609 0.876456 -0.674725
H20   H     H_    0.742569 0.477007 0.874437 0.319140
O10   O     O_3   0.060861 0.458056 0.761611 -0.752086
H21   H     H_    0.010998 0.446952 0.822578 0.308214
O11   O     O_3   0.565533 0.883762 0.257148 -0.733724
H22   H     H_    0.602284 0.814692 0.287157 0.321011

loop_
_geom_bond_atom_site_label_1
_geom_bond_atom_site_label_2
_ccdc_geom_bond_type
C18   C21   A    
C2    C7    S    
C25   O8    A    
C4    C8    S    
C18   N1    A    
C31   C36   A    
C27   H1    S    
C26   C27   S    
C36   H19   S    
C12   C28   S    
C18   C24   S    
C8    C29   T    
C19   H4    S    
C5    C6    S    
C19   N1    A    
C15   C16   S    
C22   H6    S    
C24   H7    S    
Cu2   O4    S    
C30   O10   S    
C35   H18   S    
Cu1   Cu2   S    
O9    H20   S    
O10   H21   S    
C1    O2    A    
C21   N2    A    
C16   H2    S    
C5    H11   S    
C33   C34   A    
C13   C14   A    
Cu1   O1    S    
Cu2   O6    S    
C12   O4    A    
C23   O5    A    
C25   C29   S    
C3    H12   S    
C4    C6    S    
C16   H14   S    
C16   C17   S    
C32   C33   A    
C7    C28   T    
C34   C35   A    
C14   C23   S    
C3    C30   S    
C6    C27   S    
Cu2   O2    S    
C33   H16   S    
Cu1   O5    S    
C22   O9    S    
C20   N2    A    
C9    C17   S    
C34   H17   S    
C26   C30   S    
Cu1   N2    S    
C2    C27   S    
Cu2   N1    S    
C22   C24   S    
C11   H13   S    
C2    C5    S    
C3    C4    S    
C12   O3    A    
C23   O6    A    
C9    C10   A    
C32   H15   S    
C1    C10   S    
C25   O7    A    
Cu1   O3    S    
O11   H22   S    
C3    C5    S    
C4    C26   S    
C13   O11   S    
C2    C30   S    
C19   C20   A    
C9    C15   A    
C20   H5    S    
C11   C13   A    
C31   C32   A    
C24   H8    S    
C35   C36   A    
C10   C11   A    
C6    H10   S    
C14   C15   A    
C17   H3    S    
Cu1   O7    S    
C21   C22   S    
C1    O1    A    
Cu2   O8    S    
C26   H9    S    
C17   C31   S    
