data_mof_unit_55723.cif
_audit_creation_date              2012-12-11T15:06:35-0500
_audit_creation_method            fapswitch 2.2
_symmetry_space_group_name_H-M    P1
_symmetry_Int_Tables_number       1
_space_group_crystal_system       triclinic
_cell_length_a                    7.232324
_cell_length_b                    14.922351
_cell_length_c                    22.621948
_cell_angle_alpha                 90.0
_cell_angle_beta                  90.009886
_cell_angle_gamma                 92.165673
_cell_volume                      2439.690901

loop_
_atom_site_label
_atom_site_type_symbol
_atom_type_description
_atom_site_fract_x
_atom_site_fract_y
_atom_site_fract_z
_atom_type_partial_charge
O1    O     O_R   0.390810 0.844810 0.447340 -0.513753
O2    O     O_R   0.109190 0.155190 0.947340 -0.513677
O3    O     O_R   0.890810 0.655190 0.552660 -0.547122
O4    O     O_R   0.609190 0.344810 0.052660 -0.547059
O5    O     O_R   0.720550 0.655820 0.440420 -0.543093
O6    O     O_R   0.779450 0.344180 0.940420 -0.543131
O7    O     O_R   0.220550 0.844180 0.559580 -0.524177
O8    O     O_R   0.279450 0.155820 0.059580 -0.524111
C1    C     C_R   0.549286 0.626699 0.426343 0.709646
C2    C     C_R   0.950691 0.373287 0.926333 0.709415
C3    C     C_R   0.055352 0.874296 0.573119 0.697252
C4    C     C_R   0.444670 0.125714 0.073124 0.696623
O9    O     O_R   0.720530 0.844130 0.440420 -0.548492
O10   O     O_R   0.779470 0.155870 0.940420 -0.548549
O11   O     O_R   0.220530 0.655870 0.559580 -0.521373
O12   O     O_R   0.279470 0.344130 0.059580 -0.521204
O13   O     O_R   0.890830 0.844810 0.552660 -0.548599
O14   O     O_R   0.609170 0.155190 0.052660 -0.548490
O15   O     O_R   0.390830 0.655190 0.447340 -0.527564
O16   O     O_R   0.109170 0.344810 0.947340 -0.527565
C5    C     C_R   0.554373 0.871695 0.424967 0.774969
C6    C     C_R   0.945605 0.128314 0.924958 0.774773
C7    C     C_R   0.049376 0.627365 0.574109 0.723972
C8    C     C_R   0.450653 0.372626 0.074115 0.723733
O17   O     O_3   0.557310 0.749980 0.536820 -0.377768
O18   O     O_3   0.942690 0.250020 0.036820 -0.377600
O19   O     O_3   0.057310 0.750020 0.463180 -0.370168
O20   O     O_3   0.442690 0.249980 0.963180 -0.370194
V1    V     V_3+5 0.832160 0.749980 0.493170 1.431577
V2    V     V_3+5 0.667840 0.250020 0.993170 1.431607
V3    V     V_3+5 0.332160 0.750020 0.506830 1.502064
V4    V     V_3+5 0.167840 0.249980 0.006830 1.502405
C9    C     C_R   0.099522 0.598286 0.865979 -0.149927
C10   C     C_R   0.399021 0.401940 0.365942 -0.149977
C11   C     C_R   0.277963 0.913647 0.146969 -0.131286
C12   C     C_R   0.222612 0.086197 0.647060 -0.131332
H1    H     H_    0.072145 0.540211 0.952152 0.103986
H2    H     H_    0.426321 0.460012 0.452117 0.104032
H3    H     H_    0.251746 0.970716 0.060972 0.109990
H4    H     H_    0.248896 0.029132 0.561070 0.110045
H5    H     H_    0.178029 0.719870 0.784981 0.168248
H6    H     H_    0.319774 0.280487 0.284921 0.168091
H7    H     H_    0.215526 0.801542 0.233026 0.122662
H8    H     H_    0.285311 0.198189 0.733158 0.122883
H9    H     H_    0.153828 0.661546 0.883549 0.112213
H10   H     H_    0.343957 0.338808 0.383485 0.112218
H11   H     H_    0.187459 0.856616 0.135690 0.118329
H12   H     H_    0.313412 0.143139 0.635833 0.118342
C13   C     C_R   0.973283 0.448601 0.884416 -0.051299
C14   C     C_R   0.526565 0.551374 0.384438 -0.051476
C15   C     C_R   0.436306 0.051139 0.116127 -0.072792
C16   C     C_R   0.063792 0.948870 0.616124 -0.072942
C17   C     C_R   0.977455 0.469826 0.594662 -0.261932
C18   C     C_R   0.523740 0.530046 0.094680 -0.261794
C19   C     C_R   0.653778 0.023756 0.398118 -0.235084
C20   C     C_R   0.845726 0.976344 0.898052 -0.234948
C21   C     C_R   0.958443 0.395447 0.630986 -0.108374
C22   C     C_R   0.543441 0.604397 0.130999 -0.108403
C23   C     C_R   0.674090 0.096168 0.360366 -0.196576
C24   C     C_R   0.825044 0.903992 0.860267 -0.196711
C25   C     C_R   0.986723 0.402649 0.691663 0.355923
C26   C     C_R   0.514862 0.597285 0.191662 0.355883
C27   C     C_R   0.606609 0.092071 0.302275 0.373689
C28   C     C_R   0.892551 0.908062 0.802187 0.373664
C29   C     C_R   0.015344 0.488695 0.718631 -0.065923
C30   C     C_R   0.485111 0.511306 0.218630 -0.065941
C31   C     C_R   0.521593 0.010622 0.280347 -0.018771
C32   C     C_R   0.978099 0.989420 0.780313 -0.018799
C33   C     C_R   0.048185 0.564942 0.680442 -0.059904
C34   C     C_R   0.451597 0.435116 0.180433 -0.059905
C35   C     C_R   0.485592 0.938101 0.321739 -0.029745
C36   C     C_R   0.014386 0.061878 0.821739 -0.029978
C37   C     C_R   0.015978 0.501554 0.781772 0.066221
C38   C     C_R   0.484032 0.498463 0.281775 0.066204
C39   C     C_R   0.464653 0.999487 0.219486 0.080714
C40   C     C_R   0.035273 0.000523 0.719476 0.080533
C41   C     C_R   0.082794 0.585034 0.804797 0.059876
C42   C     C_R   0.416243 0.415133 0.304770 0.059872
C43   C     C_R   0.349266 0.923999 0.204307 0.089315
C44   C     C_R   0.151076 0.075890 0.704362 0.089157
C45   C     C_R   0.129448 0.655846 0.766977 -0.194177
C46   C     C_R   0.369068 0.344408 0.266936 -0.194090
C47   C     C_R   0.304660 0.858283 0.245910 -0.229938
C48   C     C_R   0.195874 0.141538 0.745995 -0.229537
C49   C     C_R   0.101508 0.648755 0.706399 0.343270
C50   C     C_R   0.397303 0.351423 0.206374 0.343331
C51   C     C_R   0.377373 0.861745 0.303122 0.339832
C52   C     C_R   0.122986 0.138135 0.803174 0.339929
C53   C     C_R   0.949579 0.435774 0.823208 -0.207527
C54   C     C_R   0.550856 0.564109 0.323248 -0.207535
C55   C     C_R   0.517284 0.059412 0.172548 -0.125389
C56   C     C_R   0.982534 0.940675 0.672499 -0.124977
C57   C     C_R   0.049940 0.529879 0.905225 -0.160112
C58   C     C_R   0.448992 0.470264 0.405207 -0.159995
C59   C     C_R   0.316890 0.977791 0.103960 -0.166373
C60   C     C_R   0.183558 0.022108 0.604024 -0.166494
C61   C     C_R   0.029643 0.553776 0.617737 -0.066491
C62   C     C_R   0.470545 0.446219 0.117738 -0.066457
C63   C     C_R   0.557840 0.945323 0.380734 -0.074269
C64   C     C_R   0.942029 0.054695 0.880715 -0.074326
H13   H     H_    0.880365 0.374036 0.809336 0.162923
H14   H     H_    0.620801 0.625685 0.309427 0.162991
H15   H     H_    0.619685 0.112857 0.177794 0.168824
H16   H     H_    0.879858 0.887344 0.677676 0.169033
H17   H     H_    0.958215 0.461045 0.547448 0.122605
H18   H     H_    0.543352 0.538759 0.047478 0.122696
H19   H     H_    0.710618 0.029865 0.442366 0.125907
H20   H     H_    0.788810 0.970261 0.942286 0.125986
H21   H     H_    0.931420 0.330119 0.611242 0.137739
H22   H     H_    0.571353 0.669658 0.111260 0.137757
H23   H     H_    0.741715 0.157042 0.377071 0.115163
H24   H     H_    0.757062 0.843188 0.876934 0.115168
O21   O     O_3   0.005436 0.323403 0.721464 -0.657508
H25   H     H_    0.111553 0.332900 0.748696 0.277464
O22   O     O_3   0.497072 0.676612 0.221440 -0.657398
H26   H     H_    0.390717 0.667434 0.248605 0.277526
O23   O     O_3   0.611078 0.169340 0.268730 -0.665156
H27   H     H_    0.676066 0.218871 0.290532 0.282727
O24   O     O_3   0.887509 0.830837 0.768597 -0.665138
H28   H     H_    0.822146 0.781383 0.790358 0.282722
O25   O     O_3   0.128030 0.725756 0.674017 -0.629794
H29   H     H_    0.004495 0.738738 0.657912 0.271547
O26   O     O_3   0.370063 0.274468 0.173988 -0.629552
H30   H     H_    0.493527 0.261139 0.157980 0.271414
O27   O     O_3   0.339904 0.791163 0.341273 -0.645314
H31   H     H_    0.248000 0.748197 0.323472 0.276771
O28   O     O_3   0.160649 0.208681 0.841340 -0.645217
H32   H     H_    0.252887 0.251524 0.823596 0.276818

loop_
_geom_bond_atom_site_label_1
_geom_bond_atom_site_label_2
_ccdc_geom_bond_type
O17   V3    S    
C47   C51   A    
C22   C26   A    
C19   C23   A    
O19   V1    S    
C9    H9    S    
O3    C7    A    
H6    C46   S    
C44   C48   A    
C11   H11   S    
C36   C64   A    
C16   C60   A    
C29   C37   A    
O26   H30   S    
O1    C5    A    
C28   O24   S    
C8    C62   S    
C28   C32   A    
O9    V1    S    
H4    C60   S    
C52   O28   S    
C18   C22   A    
O4    C8    A    
C29   C33   A    
O22   H26   S    
C30   C38   A    
H7    C47   S    
O1    V3    S    
O13   V1    S    
O2    V4    S    
O3    V1    S    
C12   C60   A    
C20   H20   S    
C3    C16   S    
C15   C55   A    
C1    O15   A    
C21   H21   S    
C2    O16   A    
O2    C6    A    
C23   H23   S    
C49   O25   S    
O14   V2    S    
C39   C55   A    
C53   H13   S    
O11   C7    A    
O15   V3    S    
O12   C8    A    
O10   V2    S    
C36   C52   A    
C14   C54   A    
O5    V1    S    
C27   C31   A    
C6    C64   S    
C18   H18   S    
H1    C57   S    
O8    V4    S    
C40   C44   A    
O7    V3    S    
C12   C44   A    
C13   C53   A    
C26   C30   A    
O18   V4    S    
C14   C58   A    
C17   C61   A    
C46   C50   A    
C35   C63   A    
C27   O23   S    
C20   C24   A    
C19   H19   S    
C32   C36   A    
O7    C3    A    
O5    C1    A    
C24   H24   S    
C25   C29   A    
C42   C46   A    
C41   C45   A    
O8    C4    A    
H5    C45   S    
H2    C58   S    
O9    C5    A    
O11   V3    S    
H3    C59   S    
O25   H29   S    
C40   C56   A    
C10   H10   S    
C7    C61   S    
C10   C58   A    
C25   O21   S    
O27   H31   S    
C35   C51   A    
C16   C56   A    
C32   C40   A    
C20   C64   A    
C4    O14   A    
O28   H32   S    
C34   C50   A    
C51   O27   S    
C4    C15   S    
C33   C49   A    
O21   H25   S    
O16   V4    S    
C3    O13   A    
C17   C21   A    
O6    V2    S    
C22   H22   S    
C1    C14   S    
C48   C52   A    
C55   H15   S    
H8    C48   S    
C9    C57   A    
O6    C2    A    
O24   H28   S    
C21   C25   A    
C11   C59   A    
O12   V4    S    
C23   C27   A    
C24   C28   A    
O10   C6    A    
O20   V2    S    
C37   C53   A    
C26   O22   S    
C54   H14   S    
O23   H27   S    
C10   C42   A    
C43   C47   A    
C9    C41   A    
C30   C34   A    
C5    C63   S    
C38   C54   A    
C11   C43   A    
C12   H12   S    
C31   C35   A    
O4    V2    S    
C56   H16   S    
C17   H17   S    
C31   C39   A    
C38   C42   A    
C19   C63   A    
C50   O26   S    
C37   C41   A    
C18   C62   A    
C13   C57   A    
C2    C13   S    
C39   C43   A    
C45   C49   A    
C34   C62   A    
C15   C59   A    
C33   C61   A    
