data_mof_unit_54662.cif
_audit_creation_date              2012-12-10T16:52:04-0500
_audit_creation_method            fapswitch 2.2
_symmetry_space_group_name_H-M    P1
_symmetry_Int_Tables_number       1
_space_group_crystal_system       triclinic
_cell_length_a                    7.835683
_cell_length_b                    8.564852
_cell_length_c                    14.843447
_cell_angle_alpha                 91.900836
_cell_angle_beta                  85.776063
_cell_angle_gamma                 93.291524
_cell_volume                      991.401701684

loop_
_atom_site_label
_atom_site_type_symbol
_atom_type_description
_atom_site_fract_x
_atom_site_fract_y
_atom_site_fract_z
_atom_type_partial_charge
C1    C     C_R   0.545290 0.794354 0.497465 0.935456
C2    C     C_R   0.544926 0.640274 0.813893 -0.264428
C3    C     C_R   0.496198 0.500959 0.232220 -0.027954
C4    C     C_R   0.506605 0.500288 0.767571 -0.017657
C5    C     C_R   0.531611 0.641622 0.188557 -0.263805
C6    C     C_R   0.470067 0.359977 0.811357 -0.253501
C7    C     C_R   0.537456 0.642314 0.095079 0.127279
C8    C     C_R   0.470413 0.358495 0.904548 0.125895
C9    C     C_R   0.504171 0.500331 0.046621 0.057681
C10   C     C_R   0.506665 0.500093 0.952825 0.055490
C11   C     C_R   0.468725 0.358493 0.092081 0.132797
C12   C     C_R   0.454919 0.205733 0.501475 0.943715
C13   C     C_R   0.544597 0.641543 0.907220 0.126328
C14   C     C_R   0.576229 0.781732 0.049405 -0.219406
C15   C     C_R   0.434155 0.218674 0.950132 -0.217424
C16   C     C_3   0.942354 0.305758 0.349884 0.201247
C17   C     C_3   0.033809 0.178179 0.295385 -0.916331
C18   C     C_3   0.054422 0.761665 0.609062 0.212140
C19   C     C_3   0.947834 0.859834 0.676736 -0.897116
C20   C     C_R   0.580296 0.781272 0.955575 -0.220590
C21   C     C_R   0.434148 0.218548 0.043766 -0.221763
C22   C     C_2   0.569576 0.957812 0.496307 -0.397601
C23   C     C_2   0.431599 0.042408 0.500380 -0.382651
C24   C     C_R   0.502083 0.500865 0.672556 0.860413
C25   C     C_R   0.498426 0.500097 0.327402 0.862285
C26   C     C_R   0.468635 0.359666 0.185309 -0.288050
H1    H     H_    0.448612 0.251428 0.221491 0.123390
H2    H     H_    0.301210 0.992559 0.502558 0.169098
H3    H     H_    0.933560 0.406340 0.305267 0.158381
H4    H     H_    0.814311 0.254820 0.371808 0.180265
H5    H     H_    0.046652 0.076223 0.338286 0.257067
H6    H     H_    0.959740 0.139643 0.236862 0.218573
H7    H     H_    0.162777 0.223533 0.270022 0.264756
H8    H     H_    0.078315 0.828527 0.546104 0.127725
H9    H     H_    0.175854 0.740477 0.639238 0.174795
H10   H     H_    0.921460 0.796937 0.740968 0.262370
H11   H     H_    0.018678 0.973035 0.690785 0.218912
H12   H     H_    0.572584 0.747428 0.777227 0.129301
H13   H     H_    0.824227 0.883443 0.649089 0.256918
H14   H     H_    0.556135 0.749129 0.227431 0.129433
H15   H     H_    0.441179 0.253079 0.772733 0.128131
H16   H     H_    0.603750 0.890531 0.086224 0.145313
H17   H     H_    0.405563 0.109986 0.913407 0.147019
H18   H     H_    0.610725 0.889774 0.920870 0.150090
H19   H     H_    0.405425 0.109813 0.078455 0.149784
H20   H     H_    0.700533 0.008084 0.493113 0.187589
N1    N     N_2   0.950330 0.457950 0.475660 0.159958
N2    N     N_2   0.049670 0.542050 0.524340 0.162689
O1    O     O_R   0.389250 0.738570 0.505970 -0.666724
O2    O     O_3   0.962263 0.620542 0.591202 -0.513810
O3    O     O_R   0.610750 0.261430 0.494030 -0.648078
O4    O     O_R   0.678390 0.711620 0.490370 -0.601086
O5    O     O_R   0.321610 0.288380 0.509630 -0.570430
O6    O     O_R   0.355420 0.513510 0.639950 -0.638907
O7    O     O_R   0.644580 0.486490 0.360050 -0.678542
O8    O     O_R   0.644560 0.486560 0.624350 -0.557738
O9    O     O_R   0.355440 0.513440 0.375650 -0.582453
O10   O     O_3   0.036909 0.352254 0.423695 -0.522817
Zn1   Zn    Zn3+2 0.306940 0.517990 0.510420 1.017631
Zn2   Zn    Zn3+2 0.693060 0.482010 0.489580 1.008947

loop_
_geom_bond_atom_site_label_1
_geom_bond_atom_site_label_2
_ccdc_geom_bond_type
C2    C4    A    
C5    C7    A    
C11   C26   A    
C14   C20   A    
C24   O8    A    
C9    C11   A    
C9    C10   A    
C2    H12   S    
N1    N2    D    
O1    Zn1   S    
C15   C21   A    
C19   H10   S    
N1    Zn2   S    
N2    O2    S    
O5    Zn1   S    
C15   H17   S    
C1    C22   S    
C16   O10   S    
C23   H2    S    
N1    O10   S    
C18   H8    S    
C12   C23   S    
C26   H1    S    
C17   H7    S    
C4    C24   S    
C19   H13   S    
C4    C6    A    
C20   H18   S    
C10   C13   A    
C8    C15   A    
C21   H19   S    
O6    Zn1   S    
C3    C26   A    
C17   H5    S    
C1    O4    A    
O9    Zn1   S    
C19   H11   S    
C17   H6    S    
C16   H4    S    
C25   O9    A    
C25   O7    A    
C3    C25   S    
C12   O3    A    
O8    Zn2   S    
C18   O2    S    
N2    Zn1   S    
C8    C10   A    
C18   C19   S    
C18   H9    S    
C5    H14   S    
C7    C9    A    
C2    C13   A    
C22   C23   D    
C6    C8    A    
O3    Zn2   S    
O4    Zn2   S    
C13   C20   A    
C22   H20   S    
C16   H3    S    
O7    Zn2   S    
C14   H16   S    
C24   O6    A    
C11   C21   A    
C7    C14   A    
C12   O5    A    
C16   C17   S    
C3    C5    A    
C6    H15   S    
C1    O1    A    
