data_mof_unit_57536.cif
_audit_creation_date              2012-12-10T20:31:59-0500
_audit_creation_method            fapswitch 2.2
_symmetry_space_group_name_H-M    P1
_symmetry_Int_Tables_number       1
_space_group_crystal_system       triclinic
_cell_length_a                    9.882041
_cell_length_b                    10.684957
_cell_length_c                    15.547802
_cell_angle_alpha                 89.977526
_cell_angle_beta                  66.849288
_cell_angle_gamma                 89.789359
_cell_volume                      1509.47042924

loop_
_atom_site_label
_atom_site_type_symbol
_atom_type_description
_atom_site_fract_x
_atom_site_fract_y
_atom_site_fract_z
_atom_type_partial_charge
C1    C     C_R   0.501356 0.739969 0.497376 0.881651
C2    C     C_R   0.727770 0.416460 0.032637 0.085468
C3    C     C_R   0.590331 0.473009 0.086446 0.073830
C4    C     C_R   0.407414 0.498911 0.676174 0.877246
C5    C     C_R   0.822603 0.376412 0.076435 -0.024924
C6    C     C_R   0.779590 0.396433 0.173803 0.112484
C7    C     C_R   0.564722 0.511181 0.177021 -0.317175
C8    C     C_R   0.383949 0.936814 0.488367 0.125904
C9    C     C_R   0.508761 0.871426 0.483542 -0.096035
C10   C     C_R   0.642296 0.934812 0.461878 -0.218107
C11   C     C_R   0.642497 0.064347 0.462058 -0.210340
C12   C     C_R   0.414390 0.487017 0.913088 0.099998
C13   C     C_R   0.509004 0.128681 0.484551 -0.122840
C14   C     C_R   0.383545 0.064295 0.490245 0.051608
C15   C     C_3   0.226731 0.071001 0.559431 -0.200451
C16   C     C_R   0.501717 0.260118 0.497558 0.873150
C17   C     C_3   0.227543 0.928634 0.557064 -0.572221
C18   C     C_R   0.878407 0.513000 0.581619 0.228133
C19   C     C_R   0.977339 0.477622 0.420374 -0.155196
C20   C     C_R   0.120872 0.477140 0.420326 -0.132082
C21   C     C_R   0.020709 0.511930 0.581816 0.263178
C22   C     C_3   0.985336 0.619632 0.647975 -0.531903
C23   C     C_R   0.272559 0.533588 0.969429 0.166029
C24   C     C_3   0.832802 0.622275 0.646418 -0.498133
C25   C     C_R   0.592903 0.493050 0.323922 0.883249
C26   C     C_R   0.349285 0.499230 0.778128 -0.046831
C27   C     C_R   0.652635 0.470296 0.222581 -0.070877
C28   C     C_R   0.170473 0.561022 0.929542 -0.215812
C29   C     C_R   0.210078 0.546605 0.833505 -0.169270
C30   C     C_R   0.444801 0.461675 0.819300 -0.259666
C31   C     C_2   0.961682 0.306528 0.023957 0.370889
C32   C     C_2   0.209002 0.123689 0.653109 0.487870
C33   C     C_3   0.863263 0.330694 0.224376 -0.917938
C34   C     C_R   0.521691 0.468544 0.951585 0.068609
C35   C     C_R   0.482881 0.491911 0.048013 0.100139
C36   C     C_R   0.336264 0.528689 0.103862 -0.222694
C37   C     C_R   0.234214 0.551391 0.064699 -0.259578
C38   C     C_R   0.667938 0.431329 0.896359 -0.247362
C39   C     C_R   0.767505 0.404116 0.936237 -0.154750
H1    H     H_    0.124250 0.582106 0.109451 0.151067
H2    H     H_    0.473595 0.572462 0.214760 0.162253
H3    H     H_    0.051673 0.703781 0.616512 0.213902
H4    H     H_    0.744327 0.598389 0.714898 0.207138
H5    H     H_    0.811152 0.707423 0.612575 0.217465
H6    H     H_    0.876894 0.375527 0.889699 0.210589
H7    H     H_    0.062011 0.597092 0.972120 0.140902
H8    H     H_    0.134219 0.575157 0.802580 0.144532
H9    H     H_    0.544478 0.414790 0.775280 0.154059
H10   H     H_    0.295721 0.538308 0.178830 0.141189
H11   H     H_    0.710576 0.421601 0.821521 0.151523
H12   H     H_    0.743742 0.885321 0.450664 0.170816
H13   H     H_    0.058241 0.323466 0.039108 0.093347
H14   H     H_    0.276681 0.089082 0.688701 0.061713
H15   H     H_    0.794303 0.311393 0.298680 0.260465
H16   H     H_    0.900671 0.236474 0.194178 0.240026
H17   H     H_    0.961004 0.386812 0.217707 0.226628
H18   H     H_    0.744121 0.113040 0.450566 0.172232
H19   H     H_    0.152576 0.113842 0.529075 0.184870
H20   H     H_    0.217051 0.882465 0.623588 0.193807
H21   H     H_    0.154803 0.890116 0.524318 0.207336
H22   H     H_    0.963383 0.462270 0.355876 0.151654
H23   H     H_    0.213694 0.460008 0.355349 0.155723
H24   H     H_    0.984012 0.591978 0.717113 0.202315
N1    N     N_R   0.856900 0.500860 0.500610 -0.105703
N2    N     N_R   0.142540 0.500820 0.500610 -0.104923
O1    O     O_R   0.385310 0.683210 0.499990 -0.611977
O2    O     O_2   0.118812 0.206206 0.689407 -0.558807
O3    O     O_R   0.614650 0.683240 0.500000 -0.619633
O4    O     O_R   0.319830 0.499970 0.632240 -0.594760
O5    O     O_R   0.549170 0.500000 0.632250 -0.618786
O6    O     O_R   0.385350 0.316760 0.500000 -0.596781
O7    O     O_R   0.614690 0.316790 0.500010 -0.625070
O8    O     O_R   0.450830 0.500000 0.367750 -0.627834
O9    O     O_R   0.680170 0.500030 0.367760 -0.613735
O10   O     O_2   0.967236 0.224551 0.967976 -0.546451
Zn1   Zn    Zn3+2 0.346870 0.499980 0.499990 0.965434
Zn2   Zn    Zn3+2 0.653130 0.500020 0.500010 0.938222

loop_
_geom_bond_atom_site_label_1
_geom_bond_atom_site_label_2
_ccdc_geom_bond_type
C33   H16   S    
C18   C21   A    
N1    Zn2   S    
C19   C20   A    
C16   O7    A    
C31   H13   S    
C4    O5    A    
C15   C32   S    
C12   C23   A    
C28   H7    S    
N2    Zn1   S    
C29   H8    S    
C18   C24   S    
C30   H9    S    
C28   C29   A    
C34   C35   A    
C37   H1    S    
C3    C7    A    
C5    C6    A    
C33   H15   S    
C1    O3    A    
C7    C27   A    
O4    Zn1   S    
C25   O9    A    
C22   H24   S    
C2    C39   A    
C35   C36   A    
C8    C9    A    
O9    Zn2   S    
C9    C10   A    
C39   H6    S    
C21   N2    A    
C33   H17   S    
C21   C22   S    
O5    Zn2   S    
C16   O6    A    
C10   H12   S    
C4    O4    A    
C38   C39   A    
C20   N2    A    
C1    C9    S    
C23   C37   A    
O7    Zn2   S    
C31   O10   D    
C6    C27   A    
C3    C35   A    
C19   N1    A    
O1    Zn1   S    
C1    O1    A    
C23   C28   A    
C17   H20   S    
C32   O2    D    
C26   C30   A    
C24   H5    S    
C15   H19   S    
C22   C24   S    
C2    C5    A    
C12   C34   A    
C32   H14   S    
O3    Zn2   S    
C15   C17   S    
C36   C37   A    
C8    C14   A    
C12   C30   A    
C34   C38   A    
O6    Zn1   S    
C4    C26   S    
C38   H11   S    
C25   C27   S    
C8    C17   S    
C6    C33   S    
C2    C3    A    
C11   H18   S    
C11   C13   A    
C18   N1    A    
C22   H3    S    
C19   H22   S    
O8    Zn1   S    
C25   O8    A    
C7    H2    S    
C20   H23   S    
C10   C11   A    
C17   H21   S    
C26   C29   A    
C13   C16   S    
C24   H4    S    
C14   C15   S    
C13   C14   A    
C36   H10   S    
C5    C31   S    
