data_mof_unit_41952.cif
_audit_creation_date              2012-12-10T17:47:38-0500
_audit_creation_method            fapswitch 2.2
_symmetry_space_group_name_H-M    P1
_symmetry_Int_Tables_number       1
_space_group_crystal_system       triclinic
_cell_length_a                    10.827217
_cell_length_b                    10.968599
_cell_length_c                    9.914793
_cell_angle_alpha                 91.811752
_cell_angle_beta                  87.949658
_cell_angle_gamma                 100.434588
_cell_volume                      1156.88226338

loop_
_atom_site_label
_atom_site_type_symbol
_atom_type_description
_atom_site_fract_x
_atom_site_fract_y
_atom_site_fract_z
_atom_type_partial_charge
C1    C     C_R   0.494783 0.259277 0.500737 0.922388
C2    C     C_R   0.456423 0.061447 0.635506 -0.117643
C3    C     C_R   0.487474 0.125339 0.509732 -0.215274
C4    C     C_R   0.258004 0.496177 0.500773 0.846434
C5    C     C_R   0.515404 0.060046 0.393707 0.632041
C6    C     C_R   0.513202 0.935362 0.396445 -0.231016
C7    C     C_R   0.482009 0.868610 0.515072 -0.189111
C8    C     C_R   0.311521 0.343990 0.142821 -0.001972
C9    C     C_R   0.215597 0.265726 0.077775 0.681963
C10   C     C_R   0.215933 0.258115 0.937084 -0.181145
C11   C     C_R   0.309183 0.339812 0.862780 -0.220984
C12   C     C_3   0.878686 0.492232 0.491804 -0.133076
C13   C     C_R   0.400459 0.428587 0.929014 0.139000
C14   C     C_R   0.401919 0.428313 0.073498 0.006012
C15   C     C_R   0.602701 0.551662 0.070695 0.684685
C16   C     C_R   0.494439 0.738916 0.503856 0.877775
C17   C     C_R   0.604920 0.545810 0.927813 -0.029742
C18   C     C_R   0.742163 0.498154 0.497404 0.826625
C19   C     C_3   0.059599 0.465159 0.639917 -0.374765
C20   C     C_3   0.919723 0.473873 0.640563 -0.268907
C21   C     C_3   0.099577 0.631304 0.473502 -0.194670
C22   C     C_3   0.062075 0.406214 0.385262 0.537624
C23   C     C_3   0.955633 0.624032 0.454004 -0.273925
C24   C     C_3   0.123322 0.498410 0.498952 -0.042416
C25   C     C_2   0.864524 0.376472 0.250081 0.579590
C26   C     C_2   0.185299 0.708401 0.372798 0.551519
C27   C     C_2   0.920860 0.665582 0.319498 0.521148
C28   C     C_2   0.418616 0.752432 0.825449 0.471500
C29   C     C_2   0.072779 0.342502 0.686363 0.494585
C30   C     C_2   0.130660 0.149923 0.876125 0.477635
C31   C     C_2   0.839769 0.381114 0.732322 0.489895
C32   C     C_2   0.851862 0.259257 0.438332 0.535469
C33   C     C_3   0.915979 0.386293 0.391148 -0.247226
C34   C     C_R   0.455771 0.123970 0.765683 0.623177
C35   C     C_R   0.385287 0.056418 0.870139 0.614285
C36   C     C_R   0.334752 0.934334 0.856017 -0.222606
C37   C     C_R   0.396434 0.868920 0.763198 -0.294028
C38   C     C_R   0.443335 0.928606 0.637071 0.008104
F1    F     F_    0.552031 0.116594 0.275533 -0.599245
F2    F     F_    0.549608 0.206701 0.806481 -0.590280
F3    F     F_    0.383396 0.104759 0.996738 -0.623520
F4    F     F_    0.705046 0.611013 0.135128 -0.675973
F5    F     F_    0.136811 0.181942 0.153579 -0.633098
F6    F     F_    0.104769 0.450572 0.260459 -0.610897
H1    H     H_    0.105806 0.530863 0.718682 0.155089
H2    H     H_    0.095939 0.317524 0.388462 0.183019
H3    H     H_    0.806617 0.440153 0.220096 0.151190
H4    H     H_    0.224554 0.802978 0.400496 0.028750
H5    H     H_    0.849210 0.723281 0.319442 0.115530
H6    H     H_    0.501544 0.820608 0.812034 0.304564
H7    H     H_    0.043525 0.320766 0.789279 0.044189
H8    H     H_    0.045585 0.107343 0.931071 0.152541
H9    H     H_    0.858439 0.386487 0.838073 0.078303
H10   H     H_    0.748169 0.233079 0.441717 0.086424
H11   H     H_    0.283893 0.889267 0.942212 0.215854
H12   H     H_    0.540853 0.892080 0.302454 0.228368
H13   H     H_    0.321204 0.327933 0.247167 0.187040
H14   H     H_    0.318376 0.326944 0.755661 0.235659
H15   H     H_    0.690064 0.587093 0.874099 0.148568
H16   H     H_    0.911558 0.559735 0.699546 0.144183
H17   H     H_    0.122252 0.686284 0.568784 0.089611
H18   H     H_    0.926523 0.694066 0.527455 0.106071
N1    N     N_R   0.498810 0.498800 0.142780 -0.161079
N2    N     N_R   0.498760 0.498720 0.857170 -0.125102
O1    O     O_R   0.500000 0.316780 0.614690 -0.573726
O2    O     O_2   0.212323 0.668621 0.260993 -0.422125
O3    O     O_2   0.966116 0.633636 0.212055 -0.461510
O4    O     O_2   0.504884 0.754455 0.895155 -0.675784
O5    O     O_2   0.119004 0.269921 0.613199 -0.532735
O6    O     O_2   0.155529 0.106270 0.765430 -0.555025
O7    O     O_2   0.755936 0.298840 0.690811 -0.486609
O8    O     O_2   0.913207 0.178670 0.462471 -0.483453
O9    O     O_R   0.499990 0.316750 0.385360 -0.593811
O10   O     O_R   0.314800 0.499990 0.614670 -0.661621
O11   O     O_R   0.314790 0.499970 0.385330 -0.584228
O12   O     O_R   0.500010 0.683250 0.614640 -0.636231
O13   O     O_R   0.500000 0.683220 0.385310 -0.581482
O14   O     O_R   0.685210 0.500030 0.614670 -0.587281
O15   O     O_R   0.685200 0.500010 0.385330 -0.631150
O16   O     O_2   0.872327 0.288759 0.173876 -0.503351
Zn1   Zn    Zn3+2 0.500010 0.500020 0.653130 1.000341
Zn2   Zn    Zn3+2 0.499990 0.499980 0.346870 1.051074

loop_
_geom_bond_atom_site_label_1
_geom_bond_atom_site_label_2
_ccdc_geom_bond_type
C21   C26   S    
C25   O16   D    
C35   C36   A    
C32   O8    D    
C12   C23   S    
C34   F2    S    
O13   Zn2   S    
C36   C37   A    
C28   O4    D    
C34   C35   A    
C17   N2    A    
C5    C6    A    
C4    C24   S    
C16   O13   A    
C2    C38   A    
C4    O11   A    
C28   H6    S    
C23   H18   S    
C22   F6    S    
C19   C20   S    
C18   O15   A    
C1    O1    A    
C23   C27   S    
C20   H16   S    
C11   H14   S    
C9    C10   A    
C25   H3    S    
C21   H17   S    
C26   H4    S    
C2    C34   A    
C31   O7    D    
C13   C14   A    
C32   H10   S    
C30   O6    D    
C29   O5    D    
C9    F5    S    
N1    Zn2   S    
C26   O2    D    
C8    C9    A    
C1    C3    S    
C37   C38   A    
C8    H13   S    
C10   C30   S    
O1    Zn1   S    
C18   O14   A    
C12   C20   S    
C31   H9    S    
C17   H15   S    
C7    C16   S    
C22   H2    S    
C5    F1    S    
C22   C24   S    
O10   Zn1   S    
C19   C29   S    
O9    Zn2   S    
C29   H7    S    
C15   C17   A    
C22   C33   S    
C30   H8    S    
C8    C14   A    
C16   O12   A    
C4    O10   A    
C15   F4    S    
C6    H12   S    
C3    C5    A    
O12   Zn1   S    
O15   Zn2   S    
C19   H1    S    
O11   Zn2   S    
C6    C7    A    
C1    O9    A    
C32   C33   S    
C21   C23   S    
C2    C3    A    
C36   H11   S    
C11   C13   A    
O14   Zn1   S    
C13   N2    A    
C28   C37   S    
C14   N1    A    
C7    C38   A    
C19   C24   S    
C35   F3    S    
N2    Zn1   S    
C27   O3    D    
C10   C11   A    
C21   C24   S    
C12   C18   S    
C15   N1    A    
C12   C33   S    
C27   H5    S    
C25   C33   S    
C20   C31   S    
