data_mof_unit_62914.cif
_audit_creation_date              2012-12-10T21:31:16-0500
_audit_creation_method            fapswitch 2.2
_symmetry_space_group_name_H-M    P1
_symmetry_Int_Tables_number       1
_space_group_crystal_system       triclinic
_cell_length_a                    14.959895
_cell_length_b                    16.257148
_cell_length_c                    16.70451
_cell_angle_alpha                 88.572773
_cell_angle_beta                  89.776297
_cell_angle_gamma                 92.980897
_cell_volume                      4055.81346139

loop_
_atom_site_label
_atom_site_type_symbol
_atom_type_description
_atom_site_fract_x
_atom_site_fract_y
_atom_site_fract_z
_atom_type_partial_charge
C1    C     C_R   0.498764 0.489540 0.652692 0.982004
C2    C     C_R   0.503559 0.510779 0.346777 0.952416
C3    C     C_R   0.952479 0.581159 0.621929 -0.220043
C4    C     C_R   0.046034 0.411383 0.388640 -0.210386
C5    C     C_R   0.504116 0.486323 0.738932 -0.183541
C6    C     C_R   0.516089 0.516753 0.259868 -0.217530
C7    C     C_R   0.587125 0.508875 0.773038 0.082669
C8    C     C_R   0.478067 0.452908 0.212812 0.098535
C9    C     C_R   0.589800 0.537642 0.851559 0.136364
C10   C     C_R   0.503351 0.448950 0.132280 0.110355
C11   C     C_R   0.509290 0.539173 0.896016 0.169778
C12   C     C_R   0.556680 0.513264 0.097071 0.178602
C13   C     C_R   0.426828 0.517538 0.860650 0.115947
C14   C     C_R   0.592312 0.578394 0.142197 0.134032
C15   C     C_R   0.424662 0.486186 0.783527 0.069309
C16   C     C_R   0.574413 0.579532 0.224640 0.096765
C17   C     C_R   0.445782 0.759000 0.470775 0.241406
C18   C     C_R   0.547837 0.240245 0.446783 0.188432
C19   C     C_R   0.447824 0.846926 0.468377 0.026095
C20   C     C_R   0.544953 0.152212 0.450329 0.048836
C21   C     C_R   0.517421 0.892130 0.508045 0.181667
C22   C     C_R   0.476624 0.108610 0.495642 0.157927
C23   C     C_R   0.673016 0.500439 0.497394 0.947057
C24   C     C_R   0.326967 0.500047 0.503341 0.931559
C25   C     C_R   0.579832 0.847944 0.551402 0.061954
C26   C     C_R   0.416568 0.154245 0.538868 0.014011
C27   C     C_R   0.579517 0.760785 0.547348 0.223512
C28   C     C_R   0.423595 0.241480 0.535468 0.235049
C29   C     C_R   0.184127 0.452394 0.452315 -0.324260
C30   C     C_R   0.814118 0.537529 0.559472 -0.323234
C31   C     C_R   0.231310 0.500913 0.506804 -0.112070
C32   C     C_R   0.768645 0.501261 0.495989 -0.092701
C33   C     C_R   0.187363 0.550575 0.561221 0.111017
C34   C     C_R   0.814296 0.466910 0.432542 0.080089
C35   C     C_R   0.093535 0.545086 0.563773 0.065026
C36   C     C_R   0.906664 0.459667 0.438654 0.077214
C37   C     C_R   0.046333 0.498557 0.505400 0.039126
C38   C     C_R   0.953060 0.498436 0.502333 0.046303
C39   C     C_R   0.092272 0.453639 0.448765 0.133901
C40   C     C_R   0.906413 0.539257 0.561576 0.129037
C41   C     C_R   0.045342 0.585357 0.622291 -0.156220
C42   C     C_R   0.954013 0.415705 0.382561 -0.172894
H1    H     H_    0.219653 0.416206 0.410197 0.157247
H2    H     H_    0.777292 0.565727 0.606482 0.163872
H3    H     H_    0.078056 0.619362 0.669547 0.192123
H4    H     H_    0.920661 0.382840 0.334797 0.182390
H5    H     H_    0.916678 0.612202 0.667905 0.148163
H6    H     H_    0.081332 0.376557 0.345158 0.148508
N1    N     N_2   0.509424 0.550716 0.979379 -0.110273
N2    N     N_2   0.569250 0.513229 0.013969 -0.100875
N3    N     N_R   0.511030 0.716920 0.509720 -0.136278
N4    N     N_R   0.488970 0.283080 0.490280 -0.140320
N5    N     N_2   0.530991 0.980750 0.504558 -0.089153
N6    N     N_2   0.462150 0.020358 0.496342 -0.122098
O1    O     O_R   0.496050 0.422540 0.612660 -0.614793
O2    O     O_R   0.503950 0.577460 0.387340 -0.591029
O3    O     O_R   0.503140 0.561840 0.618900 -0.619881
O4    O     O_R   0.496860 0.438160 0.381100 -0.564989
O5    O     O_R   0.628610 0.430340 0.496900 -0.603667
O6    O     O_R   0.371390 0.569660 0.503100 -0.586634
O7    O     O_R   0.635690 0.569650 0.503140 -0.625754
O8    O     O_R   0.364310 0.430350 0.496860 -0.597071
Zn1   Zn    Zn3+2 0.495270 0.406980 0.495830 0.991511
Zn2   Zn    Zn3+2 0.504730 0.593020 0.504170 0.992706
N7    N     N_2   0.611115 0.108574 0.409782 -0.271549
H7    H     H_    0.674709 0.136197 0.407948 0.225312
C43   C     C_3   0.584112 0.069184 0.336277 -0.717256
H8    H     H_    0.624836 0.095583 0.285256 0.219775
H9    H     H_    0.512488 0.077375 0.322615 0.229120
H10   H     H_    0.596066 0.002561 0.341726 0.252106
N8    N     N_2   0.378820 0.888781 0.428270 -0.280280
H11   H     H_    0.314667 0.863423 0.435733 0.225841
C44   C     C_3   0.398870 0.920004 0.347874 -0.723568
H12   H     H_    0.353580 0.889105 0.304198 0.222413
H13   H     H_    0.469063 0.910058 0.330126 0.243377
H14   H     H_    0.387170 0.986755 0.344630 0.239516
N9    N     N_2   0.640002 0.892093 0.603218 -0.284117
H15   H     H_    0.701213 0.867688 0.612520 0.252896
C45   C     C_3   0.599997 0.914123 0.678161 -0.742319
H16   H     H_    0.648927 0.952767 0.712510 0.237697
H17   H     H_    0.580718 0.857667 0.714428 0.239654
H18   H     H_    0.539977 0.949972 0.667342 0.245485
N10   N     N_2   0.349058 0.112613 0.587338 -0.301783
H19   H     H_    0.317221 0.062666 0.560680 0.248196
C46   C     C_3   0.376565 0.093867 0.668357 -0.747647
H20   H     H_    0.318165 0.067564 0.703348 0.244289
H21   H     H_    0.402839 0.150393 0.698087 0.239148
H22   H     H_    0.429085 0.048170 0.668189 0.238299
N11   N     N_2   0.651488 0.720160 0.583340 -0.309637
H23   H     H_    0.636157 0.663198 0.609278 0.269290
C47   C     C_3   0.735713 0.728326 0.539362 -0.750710
H24   H     H_    0.791155 0.711070 0.579242 0.227604
H25   H     H_    0.750749 0.792344 0.516925 0.231707
H26   H     H_    0.734049 0.689039 0.486185 0.289007
N12   N     N_2   0.362634 0.286871 0.579857 -0.229114
H27   H     H_    0.368629 0.278757 0.640905 0.239617
C48   C     C_3   0.270345 0.280278 0.553402 -0.664589
H28   H     H_    0.233054 0.330319 0.579780 0.252253
H29   H     H_    0.236918 0.220869 0.573563 0.233121
H30   H     H_    0.266630 0.286230 0.487084 0.226343
I1    I     I_    0.260778 0.636683 0.635891 -0.347464
I2    I     I_    0.747939 0.444684 0.321795 -0.408929
N13   N     N_2   0.415608 0.392366 0.247136 -0.274027
H31   H     H_    0.415226 0.334782 0.222797 0.226738
C49   C     C_3   0.326579 0.420480 0.259771 -0.745667
H32   H     H_    0.296163 0.438440 0.201847 0.241803
H33   H     H_    0.328480 0.473952 0.299917 0.224645
H34   H     H_    0.283832 0.369918 0.288084 0.219999
N14   N     N_2   0.666924 0.504093 0.726715 -0.327727
H35   H     H_    0.717253 0.547669 0.738363 0.223235
C50   C     C_3   0.698816 0.421807 0.722475 -0.776036
H36   H     H_    0.759005 0.422495 0.683406 0.244161
H37   H     H_    0.646747 0.379138 0.696776 0.260697
H38   H     H_    0.717075 0.398860 0.783155 0.241915
N15   N     N_2   0.477756 0.379437 0.085743 -0.300229
H39   H     H_    0.499641 0.324112 0.107507 0.214918
C51   C     C_3   0.386868 0.374973 0.056245 -0.691297
H40   H     H_    0.347668 0.323296 0.086720 0.215641
H41   H     H_    0.387994 0.363782 0.991009 0.262154
H42   H     H_    0.352839 0.432864 0.066572 0.262865
N16   N     N_2   0.671794 0.568341 0.885284 -0.273838
H43   H     H_    0.726043 0.533733 0.873921 0.237328
C52   C     C_3   0.690177 0.655753 0.870811 -0.713556
H44   H     H_    0.697595 0.670025 0.805672 0.209143
H45   H     H_    0.753336 0.675643 0.901036 0.257802
H46   H     H_    0.634984 0.691136 0.895029 0.267561
I3    I     I_    0.305933 0.537290 0.923902 -0.303535
I4    I     I_    0.675841 0.672041 0.083726 -0.289066
I5    I     I_    0.303790 0.432376 0.735828 -0.339385
I6    I     I_    0.643961 0.672575 0.293966 -0.297895
N17   N     N_2   0.608618 0.284667 0.394470 -0.237499
H47   H     H_    0.674948 0.279724 0.409418 0.222570
C53   C     C_3   0.590336 0.276024 0.309729 -0.687755
H48   H     H_    0.587728 0.337709 0.280814 0.265625
H49   H     H_    0.644658 0.243408 0.280631 0.219078
H50   H     H_    0.525184 0.242094 0.298803 0.216934
N18   N     N_2   0.375071 0.713738 0.432470 -0.247489
H51   H     H_    0.312123 0.722211 0.455182 0.220638
C54   C     C_3   0.378663 0.710522 0.345955 -0.666312
H52   H     H_    0.444928 0.733457 0.321796 0.255387
H53   H     H_    0.365450 0.645938 0.327622 0.234756
H54   H     H_    0.325677 0.747603 0.319225 0.205796

loop_
_geom_bond_atom_site_label_1
_geom_bond_atom_site_label_2
_ccdc_geom_bond_type
C38   C40   A    
C26   N10   S    
C11   C13   A    
C44   H12   S    
C36   C42   A    
N12   H27   S    
C17   N3    A    
C48   H28   S    
C18   N4    A    
C52   H44   S    
C22   N6    S    
N5    N6    D    
C23   O5    A    
C49   H33   S    
C34   I2    S    
C28   N12   S    
C25   N9    S    
C35   C37   A    
C37   C38   A    
N14   C50   S    
C46   H20   S    
C54   H54   S    
C52   H45   S    
N15   H39   S    
C14   I4    S    
C42   H4    S    
C3    H5    S    
C17   C19   A    
C19   N8    S    
C50   H36   S    
N15   C51   S    
O1    Zn1   S    
C53   H50   S    
C9    N16   S    
O2    Zn2   S    
C14   C16   A    
N11   C47   S    
C16   I6    S    
C34   C36   A    
C46   H21   S    
N18   H51   S    
C29   H1    S    
C44   H13   S    
C30   H2    S    
C18   N17   S    
C2    C6    S    
C48   H29   S    
C27   N3    A    
N9    C45   S    
C37   C39   A    
C49   H34   S    
C5    C15   A    
C43   H8    S    
C20   N7    S    
C50   H37   S    
C51   H42   S    
C47   H24   S    
C5    C7    A    
C52   H46   S    
C6    C8    A    
N7    C43   S    
N9    H15   S    
C7    N14   S    
C43   H9    S    
C32   C34   A    
O7    Zn2   S    
O8    Zn1   S    
C11   N1    S    
C1    O3    A    
C47   H25   S    
N18   C54   S    
N10   H19   S    
C15   I5    S    
C4    C39   A    
C24   O6    A    
C29   C39   A    
C31   C33   A    
C30   C40   A    
N13   C49   S    
C9    C11   A    
N16   H43   S    
C10   C12   A    
N10   C46   S    
C12   C14   A    
C3    C40   A    
N7    H7    S    
C13   C15   A    
C53   H48   S    
C44   H14   S    
C33   I1    S    
N17   H47   S    
C1    C5    S    
C48   H30   S    
O3    Zn2   S    
N8    C44   S    
C4    H6    S    
C46   H22   S    
O4    Zn1   S    
C7    C9    A    
C21   C25   A    
C3    C41   A    
C24   O8    A    
C19   C21   A    
C26   C28   A    
N3    Zn2   S    
C20   C22   A    
N17   C53   S    
N4    Zn1   S    
C45   H18   S    
C12   N2    S    
C54   H52   S    
N12   C48   S    
C28   N4    A    
C25   C27   A    
C49   H32   S    
O5    Zn1   S    
O6    Zn2   S    
C43   H10   S    
C23   C32   S    
C51   H41   S    
C1    O1    A    
C24   C31   S    
N8    H11   S    
C29   C31   A    
C2    O2    A    
C51   H40   S    
C47   H26   S    
C30   C32   A    
C54   H53   S    
C4    C42   A    
C21   N5    S    
C36   C38   A    
C33   C35   A    
C27   N11   S    
C50   H38   S    
C18   C20   A    
C45   H17   S    
C2    O4    A    
C35   C41   A    
C8    N13   S    
N16   C52   S    
C6    C16   A    
C45   H16   S    
C13   I3    S    
C23   O7    A    
C8    C10   A    
N1    N2    D    
C22   C26   A    
N13   H31   S    
C53   H49   S    
C41   H3    S    
C17   N18   S    
N11   H23   S    
N14   H35   S    
C10   N15   S    
