data_mof_unit_8453.cif
_audit_creation_date              2012-12-11T16:26:27-0500
_audit_creation_method            fapswitch 2.2
_symmetry_space_group_name_H-M    P1
_symmetry_Int_Tables_number       1
_space_group_crystal_system       triclinic
_cell_length_a                    6.958803
_cell_length_b                    17.129827
_cell_length_c                    19.862092
_cell_angle_alpha                 108.558131
_cell_angle_beta                  89.342455
_cell_angle_gamma                 91.057138
_cell_volume                      2244.08805883

loop_
_atom_site_label
_atom_site_type_symbol
_atom_type_description
_atom_site_fract_x
_atom_site_fract_y
_atom_site_fract_z
_atom_type_partial_charge
O1    O     O_R   0.494330 0.415720 0.413720 -0.529114
O2    O     O_R   0.819330 0.430070 0.560210 -0.535839
O3    O     O_R   0.994320 0.584280 0.586280 -0.526416
C1    C     C_R   0.649794 0.415963 0.582243 0.853698
O4    O     O_R   0.823730 0.406300 0.412670 -0.536088
O5    O     O_R   0.998760 0.560340 0.437690 -0.523612
C2    C     C_R   0.652024 0.378272 0.388713 0.726501
O6    O     O_R   0.489890 0.439660 0.562310 -0.526385
O7    O     O_3   0.662340 0.550560 0.508380 -0.365015
V1    V     V_3+5 0.935370 0.490620 0.498450 1.652957
O8    O     O_R   0.328750 0.569930 0.439790 -0.535426
C3    C     C_R   0.162882 0.584773 0.418050 0.847868
O9    O     O_R   0.324340 0.593700 0.587330 -0.535877
C4    C     C_R   0.154525 0.618043 0.614127 0.789357
V2    V     V_3+5 0.435940 0.509380 0.501550 1.637856
O10   O     O_3   0.159100 0.449440 0.491620 -0.362204
C5    C     C_R   0.089400 0.583084 0.744870 -0.198055
C6    C     C_R   0.038818 0.562261 0.804950 0.267479
C7    C     C_R   0.998535 0.624243 0.868527 0.342574
C8    C     C_R   0.018989 0.707120 0.872722 0.499580
C9    C     C_R   0.081470 0.729905 0.813075 -0.100131
C10   C     C_R   0.106801 0.666129 0.746986 -0.026615
C11   C     C_R   0.116453 0.813738 0.817107 -0.038904
C12   C     C_R   0.142879 0.833503 0.753224 -0.162794
C13   C     C_R   0.128861 0.769631 0.686592 -0.203118
C14   C     C_R   0.137898 0.685803 0.683584 0.012568
C15   C     C_R   0.168544 0.916223 0.753155 0.480518
C16   C     C_R   0.153190 0.935420 0.690373 0.173927
C17   C     C_R   0.101848 0.874405 0.628060 0.655485
C18   C     C_R   0.092424 0.792056 0.625384 0.451901
H1    H     H_    0.112416 0.532978 0.696183 0.161343
C19   C     C_R   0.162793 0.589735 0.292524 0.288367
C20   C     C_R   0.163882 0.631551 0.366362 -0.253909
C21   C     C_R   0.189823 0.717573 0.390136 0.339451
C22   C     C_R   0.154010 0.763332 0.343908 -0.118521
C23   C     C_R   0.150933 0.722634 0.270052 -0.139715
C24   C     C_R   0.169938 0.635678 0.243761 -0.093659
C25   C     C_R   0.125579 0.848885 0.369703 0.694407
C26   C     C_R   0.092767 0.894211 0.323643 0.306018
C27   C     C_R   0.102624 0.855439 0.249198 -0.110834
C28   C     C_R   0.140704 0.769700 0.222651 -0.143549
C29   C     C_R   0.178147 0.731724 0.149314 -0.158788
C30   C     C_R   0.210075 0.646025 0.124414 0.646458
C31   C     C_R   0.198606 0.598618 0.170056 0.663833
C32   C     C_R   0.078546 0.899312 0.200395 0.647317
C33   C     C_R   0.115987 0.862150 0.127904 -0.244216
C34   C     C_R   0.186059 0.781056 0.103776 0.305057
C35   C     C_R   0.576318 0.214249 0.891212 -0.148104
C36   C     C_R   0.622462 0.130985 0.866944 -0.126109
C37   C     C_R   0.658655 0.091984 0.794023 0.342676
C38   C     C_R   0.660961 0.139180 0.746223 -0.163430
C39   C     C_R   0.619830 0.224829 0.772554 -0.007941
C40   C     C_R   0.574816 0.260983 0.844856 0.085028
C41   C     C_R   0.701302 0.104082 0.673078 0.623873
C42   C     C_R   0.709253 0.152480 0.628456 0.706025
C43   C     C_R   0.671590 0.237295 0.654327 -0.255820
C44   C     C_R   0.621860 0.274284 0.726710 -0.147326
C45   C     C_R   0.577984 0.360344 0.753485 0.058853
C46   C     C_R   0.530195 0.393845 0.827430 0.394016
C47   C     C_R   0.528336 0.343832 0.870799 -0.114298
C48   C     C_R   0.682910 0.285262 0.608777 0.702360
C49   C     C_R   0.638172 0.368719 0.633100 -0.263382
C50   C     C_R   0.587986 0.407367 0.705068 0.194850
H2    H     H_    0.540330 0.242756 0.946791 0.191143
H3    H     H_    0.490289 0.370524 0.926400 0.203404
C51   C     C_R   0.684263 0.411097 0.257247 -0.260807
C52   C     C_R   0.711155 0.431292 0.195413 0.665558
C53   C     C_R   0.718464 0.369635 0.130254 0.246914
C54   C     C_R   0.689882 0.287235 0.126205 0.422361
C55   C     C_R   0.656226 0.264618 0.188698 -0.085620
C56   C     C_R   0.659474 0.328218 0.255617 -0.065369
C57   C     C_R   0.622922 0.181065 0.185822 -0.033997
C58   C     C_R   0.599475 0.160843 0.250272 -0.121275
C59   C     C_R   0.586037 0.226649 0.316744 -0.117688
C60   C     C_R   0.632581 0.309555 0.319686 0.022945
C61   C     C_R   0.586798 0.077261 0.252067 0.082386
C62   C     C_R   0.562196 0.061720 0.316472 0.580371
C63   C     C_R   0.527646 0.124976 0.378186 0.667565
C64   C     C_R   0.524849 0.205990 0.377989 0.063732
H4    H     H_    0.682096 0.461862 0.306437 0.164226
O11   O     O_R   0.775200 0.060470 0.937800 -0.523313
O12   O     O_R   0.441110 0.093720 0.087350 -0.546601
O13   O     O_R   0.266330 0.939630 0.062280 -0.538342
C65   C     C_R   0.610165 0.115847 0.115501 0.858779
O14   O     O_R   0.445750 0.069950 0.939820 -0.518667
O15   O     O_R   0.271000 0.915700 0.913700 -0.525505
C66   C     C_R   0.614824 0.084018 0.917801 0.842279
O16   O     O_R   0.770530 0.084400 0.086380 -0.519838
O17   O     O_3   0.602830 0.949510 0.991680 -0.363196
V3    V     V_3+5 0.329710 0.009370 0.001550 1.684838
O18   O     O_R   0.940990 0.906170 0.912570 -0.520672
C67   C     C_R   0.109488 0.881278 0.886401 0.909703
O19   O     O_R   0.936350 0.929940 0.060100 -0.505792
C68   C     C_R   0.104806 0.912958 0.079915 0.880003
V4    V     V_3+5 0.829160 0.990450 0.998310 1.741358
O20   O     O_3   0.105910 0.050480 0.008320 -0.377917
F1    F     F_    0.055704 0.895387 0.570184 -0.454303
Br1   Br    Br    0.341930 0.766492 0.473902 -0.273854
F2    F     F_    0.116609 0.888737 0.440448 -0.492093
Br2   Br    Br    0.044553 0.009950 0.368237 -0.127172
F3    F     F_    0.032222 0.980143 0.222461 -0.656219
Br3   Br    Br    0.324015 0.745741 0.014421 -0.310212
F4    F     F_    0.244937 0.605459 0.054902 -0.534377
F5    F     F_    0.224598 0.516474 0.140663 -0.559261
Br4   Br    Br    0.687871 0.973694 0.762870 -0.441369
F6    F     F_    0.735649 0.022710 0.642972 -0.529990
F7    F     F_    0.753261 0.114919 0.558946 -0.465184
F8    F     F_    0.739482 0.251305 0.540008 -0.590672
Br5   Br    Br    0.557563 0.525467 0.731790 -0.523427
Br6   Br    Br    0.465418 0.505557 0.879999 -0.257075
F9    F     F_    0.481201 0.106297 0.437969 -0.487985
F10   F     F_    0.734329 0.511469 0.199345 -0.615280
Br7   Br    Br    0.772975 0.398513 0.046366 -0.258067
F11   F     F_    0.699781 0.230522 0.060707 -0.711034
Br8   Br    Br    0.021027 0.447715 0.796726 -0.449611
Br9   Br    Br    0.602647 0.976700 0.173234 -0.402645
F12   F     F_    0.556782 0.983255 0.318801 -0.579762
Br10  Br    Br    0.373516 0.275035 0.454157 -0.351016
Br11  Br    Br    0.911800 0.597646 0.950769 -0.156577
F13   F     F_    0.967684 0.764241 0.934723 -0.673407
F14   F     F_    0.201560 0.979911 0.813343 -0.653981
Br12  Br    Br    0.185817 0.047094 0.691215 -0.291542
F15   F     F_    0.028403 0.735789 0.564634 -0.638681
Br13  Br    Br    0.172976 0.470698 0.262286 -0.475177

loop_
_geom_bond_atom_site_label_1
_geom_bond_atom_site_label_2
_ccdc_geom_bond_type
C42   C43   A    
O17   V4    S    
O19   C68   A    
C28   C29   A    
C36   C66   S    
V4    O20   S    
C12   C15   A    
C1    O6    A    
C31   F5    S    
C62   C63   A    
C16   C17   A    
C17   C18   A    
C23   C24   A    
C6    C7    A    
C62   F12   S    
O5    C3    A    
C25   C26   A    
O11   V4    S    
C16   Br12  S    
C35   H2    S    
V2    O10   S    
C64   Br10  S    
C1    C49   S    
C13   C18   A    
C46   Br6   S    
C43   C44   A    
C21   C22   A    
C58   C59   A    
C48   F8    S    
C19   Br13  S    
C61   Br9   S    
C41   C42   A    
O8    V2    S    
O15   C67   A    
C7    C8    A    
C53   C54   A    
C37   Br4   S    
C11   C12   A    
C63   F9    S    
O1    V2    S    
O7    V1    S    
C48   C49   A    
C53   Br7   S    
C51   C52   A    
O16   V4    S    
C7    Br11  S    
C46   C47   A    
O19   V4    S    
C34   Br3   S    
O9    C4    A    
C23   C28   A    
C35   C40   A    
C40   C47   A    
C37   C38   A    
C44   C45   A    
C61   C62   A    
O14   C66   A    
C15   F14   S    
C27   C32   A    
C54   F11   S    
C59   C60   A    
C41   F6    S    
C52   C53   A    
C22   C25   A    
C12   C13   A    
O15   V3    S    
O18   C67   A    
O4    C2    A    
C63   C64   A    
C25   F2    S    
C2    C60   S    
C13   C14   A    
C32   C33   A    
O13   C68   A    
C38   C39   A    
C42   F7    S    
C22   C23   A    
C50   Br5   S    
O2    C1    A    
C30   C31   A    
C49   C50   A    
C51   C56   A    
C33   C68   S    
O8    C3    A    
C5    C6    A    
C43   C48   A    
C57   C65   S    
C19   C24   A    
C4    C14   S    
C18   F15   S    
C55   C56   A    
O3    C4    A    
C32   F3    S    
C27   C28   A    
C47   H3    S    
O6    V2    S    
O12   C65   A    
C59   C64   A    
C9    C11   A    
C5    H1    S    
C58   C61   A    
C29   C30   A    
O2    V1    S    
C8    F13   S    
C39   C40   A    
C45   C50   A    
O13   V3    S    
C33   C34   A    
C35   C36   A    
O1    C2    A    
C65   O16   A    
C57   C58   A    
C6    Br8   S    
O5    V1    S    
O14   V3    S    
V3    O20   S    
C51   H4    S    
C5    C10   A    
O12   V3    S    
C17   F1    S    
C38   C41   A    
C19   C20   A    
C24   C31   A    
O9    V2    S    
C45   C46   A    
O4    V1    S    
O3    V1    S    
V1    O10   S    
C56   C60   A    
O11   C66   A    
C26   Br2   S    
C3    C20   S    
C21   Br1   S    
C20   C21   A    
C29   C34   A    
O7    V2    S    
C54   C55   A    
C30   F4    S    
C39   C44   A    
O18   V4    S    
C26   C27   A    
C52   F10   S    
C8    C9    A    
C36   C37   A    
C10   C14   A    
C15   C16   A    
C11   C67   S    
C55   C57   A    
O17   V3    S    
C9    C10   A    
