data_mof_unit_21311.cif
_audit_creation_date              2013-03-05T16:04:11-0500
_audit_creation_method            fapswitch 2.2
_symmetry_space_group_name_H-M    P1
_symmetry_Int_Tables_number       1
_space_group_crystal_system       triclinic
_cell_length_a                    19.46909
_cell_length_b                    6.94693
_cell_length_c                    17.678502
_cell_angle_alpha                 90.002493
_cell_angle_beta                  108.891195
_cell_angle_gamma                 89.996122
_cell_volume                      2262.23231987

loop_
_atom_site_label
_atom_site_type_symbol
_atom_site_description
_atom_site_fract_x
_atom_site_fract_y
_atom_site_fract_z
_atom_type_partial_charge
O1    O     O_R   0.561710 0.369960 0.440200 -0.593359
O2    O     O_R   0.061710 0.630040 0.940200 -0.593425
O3    O     O_R   0.412630 0.033330 0.406330 -0.601584
O4    O     O_R   0.912630 0.966670 0.906330 -0.601600
O5    O     O_R   0.438290 0.869790 0.559800 -0.590160
O6    O     O_R   0.938290 0.130210 0.059800 -0.590142
C1    C     C_R   0.384577 0.203038 0.383658 0.943325
C2    C     C_R   0.884575 0.796967 0.883659 0.943361
O7    O     O_R   0.559570 0.039810 0.430640 -0.595699
O8    O     O_R   0.059570 0.960190 0.930640 -0.595766
O9    O     O_R   0.586280 0.876320 0.584290 -0.568539
O10   O     O_R   0.086280 0.123680 0.084290 -0.568530
C3    C     C_R   0.580951 0.209049 0.415861 0.906610
C4    C     C_R   0.080957 0.790936 0.915873 0.906760
O11   O     O_R   0.413720 0.363440 0.415710 -0.597292
O12   O     O_R   0.913720 0.636560 0.915710 -0.597273
O13   O     O_3   0.508590 0.205630 0.550380 -0.239877
O14   O     O_3   0.008590 0.794370 0.050380 -0.239852
V1    V     V_3+5 0.498410 0.928130 0.490650 1.187343
V2    V     V_3+5 0.998410 0.071870 0.990650 1.187292
O15   O     O_R   0.587370 0.546990 0.593670 -0.597409
O16   O     O_R   0.087370 0.453010 0.093670 -0.597422
C5    C     C_R   0.615549 0.716775 0.616440 0.966760
C6    C     C_R   0.115548 0.283220 0.116441 0.966728
O17   O     O_R   0.440430 0.540520 0.569360 -0.591619
O18   O     O_R   0.940430 0.459480 0.069360 -0.591561
C7    C     C_R   0.418750 0.709549 0.584410 0.979963
C8    C     C_R   0.918745 0.290464 0.084408 0.979929
V3    V     V_3+5 0.501590 0.428960 0.509350 1.198382
V4    V     V_3+5 0.001590 0.571040 0.009350 1.198393
O19   O     O_3   0.491410 0.701330 0.449620 -0.285024
O20   O     O_3   0.991410 0.298670 0.949620 -0.285049
C9    C     C_R   0.284950 0.911232 0.681354 0.369049
C10   C     C_R   0.784802 0.088803 0.181156 0.368943
C11   C     C_R   0.330719 0.893205 0.634211 -0.228080
C12   C     C_R   0.830628 0.106884 0.134073 -0.228053
H1    H     H_    0.336633 0.014786 0.598447 0.174195
H2    H     H_    0.836532 0.985408 0.098254 0.174389
C13   C     C_R   0.369753 0.722878 0.633819 -0.199765
C14   C     C_R   0.869715 0.277147 0.133785 -0.199901
C15   C     C_R   0.362621 0.569188 0.682129 -0.072936
C16   C     C_R   0.862579 0.430772 0.182130 -0.072556
H3    H     H_    0.392542 0.436805 0.684088 0.153091
H4    H     H_    0.892521 0.563131 0.184143 0.153056
C17   C     C_R   0.317496 0.585244 0.729452 -0.077912
C18   C     C_R   0.817417 0.414677 0.229415 -0.077840
H5    H     H_    0.314014 0.464670 0.766548 0.183132
H6    H     H_    0.813906 0.535219 0.266529 0.182863
C19   C     C_R   0.276728 0.753081 0.728655 -0.096921
C20   C     C_R   0.776627 0.246854 0.228543 -0.097236
C21   C     C_R   0.247076 0.690594 0.855365 -0.093459
C22   C     C_R   0.747202 0.308195 0.355450 -0.093866
H7    H     H_    0.301248 0.633978 0.883090 0.116474
H8    H     H_    0.801489 0.363982 0.383248 0.116463
C23   C     C_R   0.199645 0.699382 0.900365 -0.155731
C24   C     C_R   0.699800 0.299388 0.400488 -0.155802
H9    H     H_    0.217769 0.647436 0.961440 0.104258
H10   H     H_    0.718063 0.350451 0.461690 0.104033
C25   C     C_R   0.130110 0.779392 0.867603 -0.106249
C26   C     C_R   0.630090 0.220538 0.367573 -0.105821
C27   C     C_R   0.107568 0.843718 0.788180 -0.167910
C28   C     C_R   0.607372 0.157295 0.287994 -0.167860
H11   H     H_    0.053596 0.902588 0.761381 0.111108
H12   H     H_    0.553274 0.099319 0.261094 0.110842
C29   C     C_R   0.154051 0.828771 0.742229 0.004116
C30   C     C_R   0.653861 0.172139 0.242038 0.004381
H13   H     H_    0.134717 0.875727 0.680517 0.129253
H14   H     H_    0.634429 0.125954 0.180227 0.128909
C31   C     C_R   0.225296 0.757681 0.775972 0.162189
C32   C     C_R   0.725236 0.242193 0.275898 0.162510
C33   C     C_R   0.766011 0.630399 0.813692 0.180256
C34   C     C_R   0.266011 0.369619 0.313687 0.180188
C35   C     C_R   0.814298 0.783430 0.817888 -0.205591
C36   C     C_R   0.314300 0.216577 0.317886 -0.205583
C37   C     C_R   0.792253 0.924746 0.757806 -0.180403
C38   C     C_R   0.292258 0.075246 0.257809 -0.180388
H15   H     H_    0.826584 0.047815 0.758866 0.123910
H16   H     H_    0.326592 0.952169 0.258870 0.123931
C39   C     C_R   0.727958 0.901290 0.692386 -0.052912
C40   C     C_R   0.227961 0.098697 0.192389 -0.052935
H17   H     H_    0.714649 0.008722 0.645503 0.116845
H18   H     H_    0.214652 0.991256 0.145510 0.116873
C41   C     C_R   0.683271 0.737004 0.685471 -0.266008
C42   C     C_R   0.183270 0.262992 0.185473 -0.266007
C43   C     C_R   0.701833 0.609314 0.750001 0.113281
C44   C     C_R   0.201832 0.390700 0.249998 0.113289
C45   C     C_3   0.707772 0.395194 0.752575 0.174503
C46   C     C_3   0.207769 0.604820 0.252565 0.174535
C47   C     C_3   0.778261 0.418090 0.822356 -0.586783
C48   C     C_3   0.278259 0.581925 0.322346 -0.586793
H19   H     H_    0.714841 0.332704 0.697665 0.055337
H20   H     H_    0.214836 0.667285 0.197653 0.055335
H21   H     H_    0.827110 0.372865 0.807460 0.179599
H22   H     H_    0.327108 0.627125 0.307447 0.179605
H23   H     H_    0.775944 0.363565 0.880608 0.231073
H24   H     H_    0.275944 0.636476 0.380596 0.231062
N1    N     N_R   0.250115 0.093189 0.682884 0.213390
O21   O     O_R   0.243687 0.158580 0.749241 -0.444204
O22   O     O_R   0.231906 0.203955 0.620122 -0.401819
N2    N     N_R   0.749877 0.906883 0.182530 0.213646
O23   O     O_R   0.732141 0.795761 0.119889 -0.401850
O24   O     O_R   0.743149 0.841601 0.248762 -0.443854
N3    N     N_R   0.649405 0.305590 0.775558 0.263468
O25   O     O_R   0.632843 0.367711 0.836982 -0.366989
O26   O     O_R   0.611232 0.167731 0.732083 -0.376719
N4    N     N_R   0.149403 0.694455 0.275548 0.263457
O27   O     O_R   0.132846 0.632369 0.336977 -0.367041
O28   O     O_R   0.111224 0.832308 0.232067 -0.376724

loop_
_geom_bond_atom_site_label_1
_geom_bond_atom_site_label_2
_geom_bond_distance
_ccdc_geom_bond_type
C30   H14   1.082781 S    
O11   V3    2.010081 S    
C23   C25   1.403333 A    
C35   C37   1.407482 A    
O4    C2    1.306556 A    
V1    O19   1.721343 S    
N1    O21   1.301221 A    
C13   C15   1.401957 A    
C3    C26   1.476232 S    
C4    C25   1.476204 S    
O9    V1    1.990661 S    
C37   C39   1.411946 A    
C36   C38   1.407466 A    
C11   H1    1.083311 S    
C42   C44   1.397110 A    
C45   H19   1.111825 S    
C44   C46   1.491515 S    
N4    O27   1.302311 A    
C8    C14   1.490419 S    
C9    C19   1.420808 A    
C46   N4    1.463886 S    
C26   C28   1.401749 A    
C16   C18   1.400125 A    
C27   H11   1.083266 S    
O7    C3    1.301652 A    
N2    O23   1.301475 A    
C28   H12   1.083227 S    
C9    C11   1.408968 A    
O5    C7    1.296324 A    
O7    V1    1.990837 S    
O6    C8    1.296346 A    
C46   H20   1.111825 S    
O8    V2    1.990737 S    
C29   H13   1.082781 S    
C10   N2    1.439059 S    
O3    V1    1.983208 S    
O14   V4    1.699308 S    
V4    O20   2.144484 S    
C21   C23   1.401797 A    
C40   C42   1.416215 A    
C43   C45   1.491514 S    
C2    O12   1.294811 A    
C33   C43   1.392632 A    
C47   H21   1.111165 S    
C15   H3    1.083141 S    
C16   H4    1.083135 S    
O1    V3    1.989699 S    
N1    O22   1.301599 A    
C22   H8    1.082807 S    
C48   H22   1.111171 S    
C1    C36   1.484143 S    
C17   H5    1.079404 S    
O17   V3    1.990411 S    
C18   H6    1.079525 S    
C10   C20   1.420870 A    
C25   C27   1.401678 A    
C28   C30   1.402161 A    
C12   C14   1.407410 A    
C34   C36   1.405139 A    
O8    C4    1.301659 A    
C7    C13   1.490319 S    
C33   C35   1.405145 A    
C1    O11   1.294805 A    
O15   V3    2.017791 S    
C24   C26   1.403308 A    
C21   H7    1.082817 S    
C47   H23   1.111807 S    
C11   C13   1.407464 A    
C34   C48   1.493967 S    
C33   C47   1.493981 S    
C17   C19   1.407932 A    
O10   V2    1.990676 S    
N2    O24   1.301208 A    
N3    O26   1.300143 A    
C37   H15   1.081666 S    
C5    C41   1.485103 S    
C45   N3    1.463902 S    
C40   H18   1.082591 S    
C41   C43   1.397121 A    
C46   C48   1.527817 S    
O18   V4    1.990513 S    
C23   H9    1.083429 S    
O16   C6    1.308139 A    
O1    C3    1.295877 A    
C12   H2    1.083242 S    
C39   H17   1.082609 S    
V2    O20   1.721384 S    
C18   C20   1.407947 A    
O16   V4    2.017752 S    
O18   C8    1.304006 A    
C38   C40   1.411949 A    
C38   H16   1.081673 S    
C14   C16   1.401963 A    
C34   C44   1.392635 A    
C48   H24   1.111803 S    
O5    V1    1.988812 S    
O17   C7    1.303991 A    
O6    V2    1.988760 S    
O10   C6    1.290902 A    
O3    C1    1.306545 A    
O2    V4    1.989752 S    
O15   C5    1.308147 A    
C20   C32   1.498451 S    
V3    O19   2.144542 S    
O13   V3    1.699348 S    
C39   C41   1.416217 A    
C30   C32   1.409822 A    
N4    O28   1.300168 A    
C29   C31   1.409902 A    
O9    C5    1.290907 A    
C2    C35   1.484153 S    
O13   V1    2.175994 S    
C10   C12   1.409084 A    
C24   H10   1.083406 S    
O14   V2    2.176051 S    
C6    C42   1.485099 S    
O2    C4    1.295827 A    
C22   C32   1.407638 A    
O4    V2    1.983245 S    
C27   C29   1.402043 A    
N3    O25   1.302303 A    
C45   C47   1.527816 S    
C15   C17   1.400037 A    
C19   C31   1.498599 S    
C21   C31   1.407695 A    
C9    N1    1.438842 S    
O12   V4    2.010061 S    
C22   C24   1.401866 A    
