data_mof_unit_24546.cif
_audit_creation_date              2012-12-11T16:22:19-0500
_audit_creation_method            fapswitch 2.2
_symmetry_space_group_name_H-M    P1
_symmetry_Int_Tables_number       1
_space_group_crystal_system       triclinic
_cell_length_a                    16.92253
_cell_length_b                    16.813263
_cell_length_c                    19.526189
_cell_angle_alpha                 117.778543
_cell_angle_beta                  62.451255
_cell_angle_gamma                 100.675487
_cell_volume                      4354.81922083

loop_
_atom_site_label
_atom_site_type_symbol
_atom_type_description
_atom_site_fract_x
_atom_site_fract_y
_atom_site_fract_z
_atom_type_partial_charge
C1    C     C_R   0.017720 0.759913 0.031150 -0.148416
C2    C     C_R   0.236950 0.576198 0.834297 -0.155945
C3    C     C_R   0.194640 0.439475 0.038938 -0.122117
C4    C     C_R   0.748949 0.469205 0.175043 0.051976
C5    C     C_R   0.989677 0.341433 0.759579 -0.114823
C6    C     C_R   0.276092 0.451195 0.979345 0.069687
C7    C     C_R   0.939689 0.266656 0.759646 0.037230
C8    C     C_R   0.234832 0.553942 0.757305 0.047438
C9    C     C_R   0.997008 0.231969 0.038799 0.010182
C10   C     C_R   0.849572 0.923172 0.463185 -0.190082
C11   C     C_R   0.888883 0.842949 0.391082 -0.154255
C12   C     C_R   0.742961 0.522300 0.257515 -0.006427
C13   C     C_R   0.978684 0.839129 0.332417 0.151703
C14   C     C_R   0.027289 0.917614 0.346116 -0.188058
C15   C     C_R   0.987809 0.997626 0.417118 -0.162316
C16   C     C_R   0.818294 0.507192 0.909786 -0.140846
C17   C     C_R   0.899347 0.000771 0.477025 0.119097
C18   C     C_R   0.891208 0.164917 0.567009 -0.183256
C19   C     C_R   0.907390 0.230129 0.635738 -0.166407
C20   C     C_R   0.901388 0.208751 0.699391 0.145088
C21   C     C_R   0.865646 0.126694 0.700305 -0.168085
C22   C     C_R   0.849141 0.061940 0.631958 -0.159917
C23   C     C_R   0.746718 0.453090 0.927852 0.068875
C24   C     C_R   0.869796 0.078088 0.561472 0.112591
C25   C     C_R   0.513993 0.628063 0.420012 -0.188081
C26   C     C_R   0.591651 0.597564 0.343575 -0.175480
C27   C     C_R   0.663621 0.561520 0.338653 0.144135
C28   C     C_R   0.987228 0.670410 0.247934 -0.172969
C29   C     C_R   0.661145 0.565504 0.412806 -0.179157
C30   C     C_R   0.584709 0.597859 0.489395 -0.167424
C31   C     C_R   0.509532 0.625760 0.492487 0.118225
C32   C     C_R   0.415718 0.679804 0.648383 -0.185612
C33   C     C_R   0.350418 0.658350 0.713001 -0.165439
C34   C     C_R   0.016817 0.754852 0.254285 -0.031010
C35   C     C_R   0.292919 0.588189 0.693977 0.141739
C36   C     C_R   0.294929 0.547468 0.611997 -0.174320
C37   C     C_R   0.359770 0.569560 0.547647 -0.164699
C38   C     C_R   0.423711 0.631772 0.564466 0.113545
C39   C     C_R   0.679599 0.422405 0.892800 0.107627
C40   C     C_R   0.753746 0.426290 0.982108 -0.116618
C41   C     C_R   0.362050 0.408160 0.946957 0.128171
C42   C     C_R   0.453306 0.338391 0.971195 -0.219282
C43   C     C_R   0.369839 0.357914 0.984483 -0.177177
C44   C     C_R   0.438939 0.426037 0.885538 -0.267990
C45   C     C_R   0.261372 0.515420 0.960212 -0.159235
C46   C     C_R   0.522595 0.410448 0.875157 0.177321
C47   C     C_R   0.529016 0.370864 0.922052 0.191522
C48   C     C_R   0.608127 0.374322 0.928007 -0.305642
C49   C     C_R   0.677688 0.449033 0.834511 0.044486
C50   C     C_R   0.598681 0.442522 0.826076 -0.280559
C51   C     C_R   0.806635 0.189231 0.198754 0.080241
C52   C     C_R   0.061251 0.746421 0.170704 0.171541
C53   C     C_R   0.914232 0.862483 0.039852 0.128682
C54   C     C_R   0.794696 0.947211 0.062864 -0.233390
C55   C     C_R   0.839348 0.865513 0.027545 -0.168715
C56   C     C_R   0.919183 0.265398 0.836095 -0.156616
C57   C     C_R   0.944903 0.943841 0.086685 -0.279956
C58   C     C_R   0.899969 0.026057 0.122947 0.189544
C59   C     C_R   0.823696 0.027620 0.111553 0.187475
C60   C     C_R   0.777293 0.109541 0.149954 -0.275755
C61   C     C_R   0.882315 0.187934 0.209531 -0.147991
C62   C     C_R   0.929097 0.106773 0.171726 -0.227071
C63   C     C_R   0.829211 0.535259 0.249533 -0.151414
C64   C     C_R   0.939906 0.690096 0.954568 -0.127951
C65   C     C_R   0.957352 0.774698 0.007733 0.061161
C66   C     C_3   0.896968 0.174154 0.963233 -0.441759
C67   C     C_R   0.158211 0.506685 0.758768 -0.123506
C68   C     C_3   0.799956 0.208939 0.011792 -0.246866
C69   C     C_3   0.739869 0.137657 0.978482 -0.957733
C70   C     C_3   0.140443 0.802222 0.142542 -0.482451
C71   C     C_3   0.211002 0.755226 0.049633 -0.238070
C72   C     C_3   0.283599 0.819346 0.026278 -0.959314
C73   C     C_R   0.031182 0.314292 0.073316 -0.174633
C74   C     C_R   0.955347 0.243917 0.997261 0.165459
H1    H     H_    0.044252 0.810930 0.072803 0.114881
H2    H     H_    0.096596 0.918222 0.304930 0.111219
H3    H     H_    0.028772 0.055795 0.428243 0.118406
H4    H     H_    0.905966 0.178702 0.513419 0.114956
H5    H     H_    0.930968 0.294240 0.635165 0.104721
H6    H     H_    0.858667 0.108350 0.749002 0.106419
H7    H     H_    0.832395 0.995395 0.629080 0.115142
H8    H     H_    0.456308 0.649530 0.421728 0.119277
H9    H     H_    0.594539 0.599758 0.287915 0.124193
H10   H     H_    0.716658 0.539535 0.410649 0.111213
H11   H     H_    0.581927 0.594243 0.544441 0.117857
H12   H     H_    0.865200 0.228869 0.863766 0.113560
H13   H     H_    0.464699 0.728237 0.662117 0.117184
H14   H     H_    0.842575 0.531206 0.861468 0.105688
H15   H     H_    0.348553 0.693713 0.776298 0.110473
H16   H     H_    0.251042 0.493861 0.595492 0.108556
H17   H     H_    0.365723 0.531093 0.482811 0.116002
H18   H     H_    0.608593 0.348357 0.969007 0.125901
H19   H     H_    0.457745 0.305644 0.005822 0.125270
H20   H     H_    0.595255 0.468830 0.786242 0.129200
H21   H     H_    0.312088 0.339242 0.029111 0.114682
H22   H     H_    0.434261 0.460274 0.852326 0.120284
H23   H     H_    0.128522 0.490802 0.715535 0.084689
H24   H     H_    0.718288 0.112049 0.142642 0.132770
H25   H     H_    0.959945 0.650770 0.299521 0.103625
H26   H     H_    0.904680 0.250060 0.247204 0.114583
H27   H     H_    0.736600 0.947305 0.053208 0.127845
H28   H     H_    0.987475 0.107008 0.181074 0.124054
H29   H     H_    0.813522 0.804656 0.992249 0.116773
H30   H     H_    0.003057 0.943793 0.096117 0.117687
H31   H     H_    0.720531 0.370983 0.996166 0.093796
H32   H     H_    0.848101 0.569468 0.301589 0.097340
H33   H     H_    0.896381 0.674915 0.923839 0.088765
H34   H     H_    0.057303 0.332568 0.119561 0.103510
H35   H     H_    0.309605 0.542440 0.917225 0.100940
H36   H     H_    0.761609 0.117714 0.909381 0.259866
H37   H     H_    0.741771 0.077292 0.987030 0.265748
H38   H     H_    0.670138 0.165283 0.014921 0.248689
H39   H     H_    0.775915 0.228792 0.081213 0.199330
H40   H     H_    0.795322 0.269292 0.004786 0.189542
H41   H     H_    0.923711 0.151101 0.893252 0.183013
H42   H     H_    0.899836 0.113837 0.971660 0.198912
H43   H     H_    0.616516 0.445473 0.207953 0.102728
H44   H     H_    0.684843 0.358783 0.130062 0.082586
H45   H     H_    0.280802 0.622492 0.859475 0.090710
H46   H     H_    0.770150 0.443600 0.720232 0.106907
H47   H     H_    0.736437 0.548795 0.799898 0.096307
H48   H     H_    0.254464 0.876842 0.031150 0.265608
H49   H     H_    0.316911 0.845178 0.069714 0.267681
H50   H     H_    0.334388 0.783130 0.959230 0.245486
H51   H     H_    0.242767 0.698151 0.042479 0.204437
H52   H     H_    0.181471 0.729832 0.003771 0.207099
H53   H     H_    0.116328 0.867091 0.155446 0.186145
H54   H     H_    0.176596 0.817269 0.182055 0.191295
H55   H     H_    0.181799 0.396488 0.069608 0.087588
H56   H     H_    0.006639 0.371314 0.716284 0.081325
H57   H     H_    0.781656 0.924043 0.509641 0.119166
H58   H     H_    0.848939 0.783895 0.381313 0.121177
N1    N     N_R   0.034930 0.670790 0.995440 -0.046841
N2    N     N_R   0.867000 0.509260 0.948460 -0.040487
N3    N     N_R   0.003780 0.616410 0.165900 -0.043114
N4    N     N_R   0.825670 0.461520 0.995440 -0.039678
N5    N     N_R   0.045120 0.664150 0.118920 -0.051671
N6    N     N_R   0.884940 0.497570 0.165910 -0.042446
N7    N     N_R   0.985840 0.628110 0.948460 -0.038420
N8    N     N_R   0.174330 0.538480 0.004560 -0.047332
N9    N     N_3   0.676875 0.427824 0.152960 -0.223150
N10   N     N_3   0.753933 0.484395 0.785252 -0.232349
N11   N     N_R   0.954880 0.335850 0.881080 -0.038040
N12   N     N_R   0.115060 0.502430 0.834090 -0.036507
N13   N     N_R   0.014160 0.371890 0.051540 -0.047719
N14   N     N_R   0.965070 0.329210 0.004560 -0.058888
N15   N     N_R   0.164150 0.545120 0.881070 -0.039043
N16   N     N_R   0.133000 0.490740 0.051540 -0.036727
N17   N     N_R   0.996220 0.383590 0.834100 -0.036760
N18   N     N_R   0.835850 0.454880 0.118930 -0.055586
Ni1   Ni    Ni4+2 0.103690 0.603690 0.000000 0.204897
Ni2   Ni    Ni4+2 0.896310 0.396310 0.000000 0.203849
Ni3   Ni    Ni4+2 0.991110 0.505800 0.892250 0.206954
Ni4   Ni    Ni4+2 0.008890 0.494200 0.107750 0.206345

loop_
_geom_bond_atom_site_label_1
_geom_bond_atom_site_label_2
_ccdc_geom_bond_type
C70   H53   S    
C25   C31   A    
C66   C68   S    
C58   C62   A    
C26   H9    S    
C6    C45   A    
C27   C29   A    
C28   N3    A    
C11   C13   A    
C54   H27   S    
H43   N9    S    
C35   C36   A    
N1    Ni1   S    
H44   N9    S    
C16   N2    A    
C11   H58   S    
N8    N16   A    
C9    C73   A    
N13   N14   A    
N6    N18   A    
C40   N4    A    
C26   C27   A    
C29   C30   A    
N3    Ni4   S    
C66   H42   S    
C18   C24   A    
C36   C37   A    
C60   H24   S    
C30   C31   A    
C69   H38   S    
C45   H35   S    
N2    Ni3   S    
N7    Ni3   S    
C10   C17   A    
C70   H54   S    
C23   C40   A    
C66   C74   S    
C55   H29   S    
C5    N17   A    
C15   C17   A    
C18   C19   A    
N12   Ni3   S    
C49   C50   A    
N17   Ni3   S    
C10   H57   S    
C33   C35   A    
C54   C55   A    
C56   N11   A    
C1    C65   A    
C19   C20   A    
C68   C69   S    
C6    C41   S    
C51   C61   A    
C43   H21   S    
C71   H52   S    
C70   C71   S    
C32   C38   A    
C4    C12   A    
C53   C65   S    
C68   H39   S    
C3    C6    A    
C28   C34   A    
C3    N16   A    
C21   C22   A    
C72   H50   S    
C41   C43   A    
N16   Ni4   S    
C7    C56   A    
N12   N15   A    
C1    N1    A    
C67   N12   A    
N4    Ni2   S    
C44   C46   A    
C54   C59   A    
C53   C55   A    
C17   C24   S    
C66   H41   S    
C37   H17   S    
C12   C27   S    
C1    H1    S    
C22   H7    S    
H46   N10   S    
C29   H10   S    
C4    N9    S    
C5    C7    A    
C12   C63   A    
C53   C57   A    
C50   H20   S    
C73   H34   S    
N2    N4    A    
C25   C26   A    
C32   H13   S    
C45   N8    A    
C73   N13   A    
C30   H11   S    
C8    C35   S    
C14   H2    S    
N15   Ni1   S    
C37   C38   A    
C44   H22   S    
C33   H15   S    
C69   H36   S    
C56   H12   S    
C47   C48   A    
N11   N17   A    
C18   H4    S    
C49   N10   S    
C52   N5    A    
C63   H32   S    
C19   H5    S    
N8    Ni1   S    
N14   Ni2   S    
N13   Ni4   S    
C42   H19   S    
C5    H56   S    
C39   C49   A    
N1    N7    A    
C16   C23   A    
C71   H51   S    
C72   H49   S    
C48   H18   S    
C25   H8    S    
C41   C44   A    
N18   Ni2   S    
C58   C59   A    
C61   H26   S    
C9    C74   A    
C28   H25   S    
C64   H33   S    
C36   H16   S    
N3    N5    A    
C57   H30   S    
C46   C47   A    
N11   Ni2   S    
C72   H48   S    
C3    H55   S    
H47   N10   S    
C74   N14   A    
C2    C8    A    
C2    H45   S    
C4    N18   A    
C46   C50   A    
C34   C52   A    
C31   C38   S    
C64   C65   A    
C2    N15   A    
C13   C34   S    
C32   C33   A    
C69   H37   S    
N6    Ni4   S    
C57   C58   A    
C15   H3    S    
C23   C39   S    
C21   H6    S    
C63   N6    A    
C22   C24   A    
C42   C47   A    
C61   C62   A    
C52   C70   S    
C10   C11   A    
C67   H23   S    
C59   C60   A    
C71   C72   S    
C20   C21   A    
C8    C67   A    
C7    C20   S    
C42   C43   A    
C16   H14   S    
C14   C15   A    
N5    Ni1   S    
C51   C60   A    
C13   C14   A    
C68   H40   S    
C39   C48   A    
C62   H28   S    
C64   N7    A    
C40   H31   S    
