data_mof_unit_12656.cif
_audit_creation_date              2012-12-10T18:50:45-0500
_audit_creation_method            fapswitch 2.2
_symmetry_space_group_name_H-M    P1
_symmetry_Int_Tables_number       1
_space_group_crystal_system       triclinic
_cell_length_a                    10.713876
_cell_length_b                    9.895414
_cell_length_c                    15.756179
_cell_angle_alpha                 90.137404
_cell_angle_beta                  91.182323
_cell_angle_gamma                 89.936942
_cell_volume                      1670.08097667

loop_
_atom_site_label
_atom_site_type_symbol
_atom_type_description
_atom_site_fract_x
_atom_site_fract_y
_atom_site_fract_z
_atom_type_partial_charge
C1    C     C_R   0.260016 0.500051 0.499964 0.876411
C2    C     C_3   0.627336 0.499817 0.951892 -0.426963
C3    C     C_3   0.628726 0.499926 0.049753 -0.324785
C4    C     C_1   0.495014 0.500332 0.825340 -0.001928
C5    C     C_1   0.495781 0.499462 0.174462 -0.108338
C6    C     C_1   0.497912 0.499543 0.249677 -0.180389
C7    C     C_R   0.064561 0.379620 0.516457 -0.163287
C8    C     C_R   0.063270 0.620532 0.483882 -0.171034
C9    C     C_R   0.936704 0.379537 0.516438 -0.179161
C10   C     C_R   0.935407 0.620455 0.483890 -0.149548
C11   C     C_R   0.872470 0.499965 0.500185 -0.026209
C12   C     C_R   0.127485 0.500099 0.500135 -0.031106
C13   C     C_R   0.575544 0.072190 0.555760 0.026079
C14   C     C_R   0.581708 0.928045 0.551592 0.034511
C15   C     C_R   0.499764 0.499855 0.338430 0.910108
C16   C     C_R   0.420861 0.928223 0.447510 -0.071443
C17   C     C_R   0.422909 0.071551 0.446122 -0.073856
C18   C     C_R   0.739931 0.499960 0.500126 0.853710
C19   C     C_R   0.500261 0.500130 0.661575 0.897759
C20   C     C_3   0.421137 0.627312 0.048926 -0.250412
C21   C     C_3   0.421785 0.371854 0.048334 -0.256073
C22   C     C_3   0.427546 0.367841 0.949489 -0.181132
C23   C     C_3   0.427571 0.632273 0.950172 -0.187753
C24   C     C_1   0.498016 0.500372 0.750228 -0.086960
C25   C     C_3   0.493107 0.499628 0.082755 0.240126
C26   C     C_3   0.490714 0.500083 0.916852 0.112255
H1    H     H_    0.357231 0.874181 0.405452 0.131269
H2    H     H_    0.361099 0.125413 0.402828 0.134792
H3    H     H_    0.321932 0.615959 0.067624 0.078164
H4    H     H_    0.322679 0.382427 0.067490 0.078780
H5    H     H_    0.488584 0.282386 0.929854 0.231386
H6    H     H_    0.488981 0.717601 0.931333 0.227103
H7    H     H_    0.680763 0.589588 0.073922 0.213306
H8    H     H_    0.681349 0.410599 0.073746 0.213308
H9    H     H_    0.678626 0.590029 0.928930 0.201759
H10   H     H_    0.678433 0.409311 0.928728 0.207280
H11   H     H_    0.113723 0.285989 0.529634 0.175605
H12   H     H_    0.111395 0.714153 0.470595 0.163175
H13   H     H_    0.888670 0.285813 0.529493 0.162418
H14   H     H_    0.886261 0.714018 0.470540 0.183263
N1    N     N_R   0.499970 0.857200 0.499980 -0.131441
N2    N     N_R   0.499970 0.142800 0.499980 -0.132573
O1    O     O_R   0.316750 0.614620 0.499990 -0.618829
O2    O     O_R   0.316750 0.385380 0.499990 -0.623928
O3    O     O_R   0.499990 0.614720 0.377140 -0.614869
O4    O     O_R   0.499990 0.385280 0.377140 -0.612246
O5    O     O_R   0.683220 0.614710 0.500000 -0.646486
O6    O     O_R   0.683220 0.385290 0.500000 -0.656426
O7    O     O_R   0.499980 0.614620 0.622860 -0.633732
O8    O     O_R   0.499980 0.385380 0.622860 -0.617392
Zn1   Zn    Zn3+2 0.499980 0.653120 0.500000 0.957422
Zn2   Zn    Zn3+2 0.499980 0.346880 0.500000 0.957568
C27   C     C_2   0.300882 0.661671 0.910061 0.394892
H15   H     H_    0.217809 0.611799 0.932171 0.055264
O9    O     O_2   0.290367 0.744961 0.853303 -0.511382
C28   C     C_2   0.300576 0.339402 0.909520 0.394298
H16   H     H_    0.217273 0.386576 0.933736 0.053593
O10   O     O_2   0.290164 0.260099 0.850313 -0.508756
C29   C     C_2   0.466172 0.240128 0.087916 0.445849
H17   H     H_    0.408801 0.190603 0.134513 0.059537
O11   O     O_2   0.566311 0.189766 0.069854 -0.536556
C30   C     C_2   0.464281 0.758985 0.089461 0.444738
H18   H     H_    0.405894 0.808140 0.135824 0.058397
O12   O     O_2   0.564484 0.809758 0.072383 -0.538459
C31   C     C_2   0.643871 0.144654 0.624768 0.516280
H19   H     H_    0.690631 0.238757 0.613768 0.087516
O13   O     O_2   0.646944 0.099261 0.696796 -0.544224
C32   C     C_2   0.682735 0.855860 0.598552 0.492306
H20   H     H_    0.666191 0.762002 0.630517 0.113742
O14   O     O_2   0.788646 0.901435 0.601099 -0.586295

loop_
_geom_bond_atom_site_label_1
_geom_bond_atom_site_label_2
_ccdc_geom_bond_type
C2    H9    S    
C4    C26   S    
C11   C18   S    
C21   C29   S    
C30   H18   S    
N1    Zn1   S    
C21   H4    S    
C19   O7    A    
C1    O2    A    
O8    Zn2   S    
C15   O4    A    
C20   C23   S    
O6    Zn2   S    
C8    C12   A    
C18   O5    A    
O2    Zn2   S    
C16   H1    S    
C30   O12   D    
C2    C3    S    
C7    H11   S    
C29   H17   S    
C2    C26   S    
C13   C31   S    
C13   C14   A    
C23   H6    S    
C6    C15   S    
C9    C11   A    
C19   O8    A    
O1    Zn1   S    
C5    C6    T    
C1    C12   S    
C8    H12   S    
C14   N1    A    
C5    C25   S    
C10   H14   S    
C13   N2    A    
C28   O10   D    
C23   C27   S    
C20   H3    S    
C27   O9    D    
C20   C30   S    
C7    C12   A    
C4    C24   T    
C29   O11   D    
C31   O13   D    
C20   C25   S    
C3    H7    S    
C22   C26   S    
O4    Zn2   S    
C9    H13   S    
C3    C25   S    
C28   H16   S    
C8    C10   A    
C31   H19   S    
C10   C11   A    
C23   C26   S    
C2    H10   S    
C7    C9    A    
C32   O14   D    
C21   C25   S    
C17   N2    A    
C16   C17   A    
C22   C28   S    
C3    H8    S    
C17   H2    S    
C22   H5    S    
C21   C22   S    
O3    Zn1   S    
C19   C24   S    
C16   N1    A    
C1    O1    A    
O5    Zn1   S    
C14   C32   S    
C27   H15   S    
N2    Zn2   S    
C32   H20   S    
O7    Zn1   S    
C15   O3    A    
C18   O6    A    
