data_mof_unit_46000.cif
_audit_creation_date              2013-03-05T15:44:18-0500
_audit_creation_method            fapswitch 2.2
_symmetry_space_group_name_H-M    P1
_symmetry_Int_Tables_number       1
_space_group_crystal_system       triclinic
_cell_length_a                    20.589398
_cell_length_b                    7.104924
_cell_length_c                    16.634554
_cell_angle_alpha                 90.000784
_cell_angle_beta                  92.235116
_cell_angle_gamma                 90.002318
_cell_volume                      2431.55282975

loop_
_atom_site_label
_atom_site_type_symbol
_atom_site_description
_atom_site_fract_x
_atom_site_fract_y
_atom_site_fract_z
_atom_type_partial_charge
O1    O     O_R   0.564840 0.505290 0.579830 -0.519046
O2    O     O_R   0.435160 0.005290 0.420170 -0.518931
O3    O     O_R   0.556720 0.179930 0.409350 -0.564234
O4    O     O_R   0.443280 0.679930 0.590650 -0.564221
C1    C     C_R   0.569817 0.343465 0.380623 0.900758
C2    C     C_R   0.430178 0.843463 0.619372 0.900892
O5    O     O_R   0.572280 0.175810 0.578530 -0.551032
O6    O     O_R   0.427720 0.675810 0.421470 -0.551057
O7    O     O_R   0.450830 0.001920 0.590540 -0.558633
O8    O     O_R   0.549170 0.501920 0.409460 -0.558766
C3    C     C_R   0.590757 0.343511 0.603505 0.856659
C4    C     C_R   0.409241 0.843502 0.396497 0.856805
O9    O     O_3   0.460130 0.338030 0.503750 -0.260220
O10   O     O_3   0.539870 0.838030 0.496250 -0.260304
V1    V     V_3+5 0.507400 0.064560 0.499310 1.236785
V2    V     V_3+5 0.492600 0.564560 0.500690 1.236740
C5    C     C_R   0.142041 0.921566 0.169232 -0.158441
C6    C     C_R   0.857957 0.421538 0.830774 -0.158439
C7    C     C_R   0.354085 0.844397 0.336158 -0.234821
C8    C     C_R   0.645899 0.344444 0.663860 -0.234661
C9    C     C_R   0.301099 0.690670 0.220024 0.378313
C10   C     C_R   0.698836 0.190868 0.780054 0.378260
C11   C     C_R   0.352921 0.705966 0.276321 -0.191761
C12   C     C_R   0.647014 0.206178 0.723759 -0.192113
C13   C     C_R   0.300421 0.966695 0.342060 0.370773
C14   C     C_R   0.699609 0.466544 0.657891 0.370865
C15   C     C_R   0.245430 0.948479 0.287472 -0.119184
C16   C     C_R   0.754584 0.448387 0.712509 -0.119288
C17   C     C_R   0.248578 0.819079 0.222552 -0.170782
C18   C     C_R   0.751396 0.319148 0.777479 -0.170651
C19   C     C_R   0.201312 0.829762 0.158286 0.440662
C20   C     C_R   0.798666 0.329853 0.841743 0.440606
C21   C     C_R   0.135460 0.031902 0.238226 -0.184836
C22   C     C_R   0.864561 0.531771 0.761759 -0.184913
C23   C     C_R   0.187758 0.056096 0.295382 0.447278
C24   C     C_R   0.812271 0.555949 0.704594 0.447087
H1    H     H_    0.089609 0.102620 0.246294 0.137132
H2    H     H_    0.910421 0.602440 0.753680 0.137190
H3    H     H_    0.392686 0.606344 0.274052 0.160018
H4    H     H_    0.607217 0.106668 0.726065 0.159848
C25   C     C_R   0.369794 0.700262 0.820084 -0.148682
C26   C     C_R   0.630182 0.200345 0.179889 -0.148675
H5    H     H_    0.279666 0.595599 0.919027 0.098195
H6    H     H_    0.720297 0.095786 0.080911 0.098316
H7    H     H_    0.387564 0.632437 0.874900 0.065820
H8    H     H_    0.612401 0.132540 0.125071 0.065893
C27   C     C_R   0.389423 0.839943 0.690414 -0.126194
C28   C     C_R   0.610566 0.339958 0.309577 -0.126220
C29   C     C_R   0.081145 0.024531 0.739112 0.286634
C30   C     C_R   0.918858 0.524482 0.260891 0.286648
C31   C     C_R   0.118010 0.049338 0.670071 0.296111
C32   C     C_R   0.881991 0.549285 0.329932 0.296057
C33   C     C_R   0.182301 0.984713 0.670711 -0.175631
C34   C     C_R   0.817694 0.484703 0.329277 -0.175654
C35   C     C_R   0.210998 0.889783 0.737503 0.020368
C36   C     C_R   0.788990 0.389814 0.262476 0.020338
C37   C     C_R   0.170810 0.844850 0.802974 -0.040433
C38   C     C_R   0.829176 0.344890 0.197004 -0.040454
C39   C     C_R   0.278760 0.840837 0.742094 0.077029
C40   C     C_R   0.721225 0.340891 0.257881 0.077057
C41   C     C_R   0.303289 0.739926 0.810183 0.014485
C42   C     C_R   0.696687 0.240020 0.189783 0.014454
C43   C     C_R   0.261383 0.679305 0.868715 -0.098955
C44   C     C_R   0.738587 0.179440 0.131238 -0.098971
C45   C     C_R   0.196474 0.732010 0.865840 -0.065148
C46   C     C_R   0.803502 0.232109 0.134121 -0.065171
C47   C     C_R   0.323387 0.889734 0.682385 -0.201236
C48   C     C_R   0.676602 0.389768 0.317598 -0.201244
C49   C     C_R   0.413193 0.745727 0.759786 0.393993
C50   C     C_R   0.586792 0.245754 0.240202 0.393973
C51   C     C_R   0.106721 0.919181 0.805352 -0.207852
C52   C     C_R   0.893274 0.419174 0.194641 -0.207851
H9    H     H_    0.308198 0.960271 0.627650 0.133975
H10   H     H_    0.691792 0.460305 0.372334 0.134047
H11   H     H_    0.209011 0.011900 0.617617 0.157068
H12   H     H_    0.790981 0.511885 0.382369 0.157377
H13   H     H_    0.167208 0.687152 0.914853 0.116490
H14   H     H_    0.832765 0.187270 0.085103 0.116489
O11   O     O_R   0.950790 0.256670 0.090520 -0.553293
O12   O     O_R   0.049210 0.756670 0.909480 -0.553295
O13   O     O_R   0.927720 0.590370 0.921470 -0.575595
O14   O     O_R   0.072280 0.090370 0.078530 -0.575551
C53   C     C_R   0.910440 0.422741 0.894848 0.902778
C54   C     C_R   0.089557 0.922749 0.105156 0.902766
O15   O     O_R   0.943270 0.586180 0.090640 -0.542503
O16   O     O_R   0.056730 0.086180 0.909360 -0.542477
O17   O     O_R   0.064850 0.759970 0.079840 -0.504961
O18   O     O_R   0.935150 0.259970 0.920160 -0.504988
C55   C     C_R   0.930657 0.418504 0.119562 0.875645
C56   C     C_R   0.069342 0.918506 0.880435 0.875628
O19   O     O_3   0.039850 0.428050 0.996240 -0.277503
O20   O     O_3   0.960150 0.928050 0.003760 -0.277550
V3    V     V_3+5 0.992610 0.701540 0.000700 1.232412
V4    V     V_3+5 0.007390 0.201540 0.999300 1.232458
O21   O     O_3   0.216950 0.777133 0.081293 -0.625151
C57   C     C_3   0.261334 0.910637 0.050906 0.230656
H15   H     H_    0.292612 0.836865 0.008629 0.089138
H16   H     H_    0.296126 0.970726 0.097176 0.045895
C58   C     C_3   0.224832 0.071627 0.007673 -0.187878
H17   H     H_    0.183481 0.014842 0.970822 0.096014
H18   H     H_    0.204682 0.168373 0.052758 0.167117
C59   C     C_3   0.268938 0.182552 0.953476 -0.436482
H19   H     H_    0.307514 0.255669 0.990087 0.179973
H20   H     H_    0.239292 0.288039 0.919377 0.145003
H21   H     H_    0.291780 0.088138 0.909537 0.121587
O22   O     O_3   0.783022 0.277346 0.918749 -0.625198
C60   C     C_3   0.738669 0.410958 0.949114 0.230610
H22   H     H_    0.707361 0.337272 0.991385 0.089172
H23   H     H_    0.703903 0.471107 0.902831 0.045920
C61   C     C_3   0.775210 0.571881 0.992350 -0.187812
H24   H     H_    0.816551 0.515024 0.029191 0.096046
H25   H     H_    0.795376 0.668602 0.947266 0.167091
C62   C     C_3   0.731136 0.682859 0.046563 -0.436463
H26   H     H_    0.692560 0.756005 0.009967 0.180024
H27   H     H_    0.760806 0.788325 0.080648 0.145013
H28   H     H_    0.708293 0.588475 0.090514 0.121574
N1    N     N_R   0.017452 0.105563 0.742590 0.099629
O23   O     O_R   0.011713 0.286489 0.752099 -0.343136
O24   O     O_R   0.968124 0.998150 0.756978 -0.428770
N2    N     N_R   0.982556 0.605498 0.257418 0.099629
O25   O     O_R   0.988307 0.786428 0.247932 -0.343162
O26   O     O_R   0.031876 0.498080 0.243014 -0.428765
N3    N     N_R   0.091054 0.136738 0.597865 0.097012
O27   O     O_R   0.047724 0.269395 0.600789 -0.301872
O28   O     O_R   0.112448 0.089814 0.528058 -0.347111
N4    N     N_R   0.908951 0.636633 0.402152 0.097033
O29   O     O_R   0.952363 0.769062 0.399262 -0.301915
O30   O     O_R   0.887506 0.589821 0.471943 -0.346882
N5    N     N_R   0.299860 0.533914 0.165210 0.110403
O31   O     O_R   0.353746 0.467909 0.138121 -0.416525
O32   O     O_R   0.246667 0.437183 0.153468 -0.371608
N6    N     N_R   0.700037 0.034206 0.834912 0.110306
O33   O     O_R   0.646136 0.968358 0.862024 -0.416637
O34   O     O_R   0.753203 0.937372 0.846669 -0.371664
O35   O     O_3   0.181147 0.164408 0.364376 -0.586530
C63   C     C_3   0.147318 0.334508 0.349158 0.341620
H29   H     H_    0.094559 0.308951 0.356081 0.126661
H30   H     H_    0.155951 0.391995 0.288020 0.079323
C64   C     C_3   0.170452 0.481987 0.410801 -0.203257
H31   H     H_    0.169511 0.422086 0.472468 0.203854
H32   H     H_    0.221252 0.523098 0.398877 0.157238
C65   C     C_3   0.127627 0.657046 0.406555 -0.373953
H33   H     H_    0.124801 0.713442 0.344344 0.163926
H34   H     H_    0.148529 0.766726 0.447434 0.194078
H35   H     H_    0.077872 0.622419 0.425376 0.218502
O36   O     O_3   0.818904 0.664244 0.635604 -0.586280
C66   C     C_3   0.852696 0.834401 0.650841 0.341506
H36   H     H_    0.905461 0.808947 0.643923 0.126728
H37   H     H_    0.844050 0.891847 0.711983 0.079076
C67   C     C_3   0.829535 0.981860 0.589209 -0.203105
H38   H     H_    0.830481 0.921981 0.527539 0.203947
H39   H     H_    0.778729 0.022875 0.601142 0.157136
C68   C     C_3   0.872335 0.156981 0.593460 -0.373955
H40   H     H_    0.875164 0.213342 0.655677 0.163910
H41   H     H_    0.851410 0.266651 0.552597 0.194239
H42   H     H_    0.922092 0.122445 0.574624 0.218389
N7    N     N_R   0.302946 0.110676 0.402243 0.126133
O37   O     O_R   0.296114 0.067330 0.477424 -0.387159
O38   O     O_R   0.319369 0.281164 0.382949 -0.348386
N8    N     N_R   0.697174 0.610110 0.597548 0.125984
O39   O     O_R   0.704499 0.566483 0.522553 -0.387067
O40   O     O_R   0.680476 0.780497 0.616492 -0.348238
O41   O     O_3   0.479923 0.714010 0.768445 -0.648262
C69   C     C_3   0.495822 0.534072 0.800282 0.310881
H43   H     H_    0.531391 0.468883 0.760248 0.060366
H44   H     H_    0.454137 0.433937 0.801282 0.011156
C70   C     C_3   0.528502 0.555690 0.884112 -0.207430
H45   H     H_    0.573314 0.641604 0.879614 0.179412
H46   H     H_    0.495465 0.630024 0.924635 0.123326
C71   C     C_3   0.546639 0.365195 0.920798 -0.494691
H47   H     H_    0.502498 0.277377 0.927170 0.150302
H48   H     H_    0.570385 0.386095 0.981246 0.139388
H49   H     H_    0.581087 0.290842 0.882201 0.171185
O42   O     O_3   0.520064 0.213994 0.231545 -0.648237
C72   C     C_3   0.504184 0.033954 0.199789 0.310961
H50   H     H_    0.468652 0.968780 0.239879 0.060287
H51   H     H_    0.545888 0.933894 0.198785 0.011102
C73   C     C_3   0.471458 0.055336 0.115975 -0.207446
H52   H     H_    0.426635 0.141189 0.120472 0.179360
H53   H     H_    0.504460 0.129628 0.075395 0.123341
C74   C     C_3   0.453333 0.864733 0.079378 -0.494652
H54   H     H_    0.497486 0.776986 0.072995 0.150302
H55   H     H_    0.429544 0.885462 0.018943 0.139352
H56   H     H_    0.418929 0.790394 0.118039 0.171118

loop_
_geom_bond_atom_site_label_1
_geom_bond_atom_site_label_2
_geom_bond_distance
_ccdc_geom_bond_type
C43   C45   1.386947 A    
N4    O29   1.299926 A    
O14   V4    2.002163 S    
C35   C39   1.437020 A    
C15   C17   1.421650 A    
C31   N3    1.443735 S    
O21   C57   1.423487 S    
O1    C3    1.320864 A    
C54   O17   1.325493 A    
C25   C41   1.401399 A    
C29   C51   1.416497 A    
O2    C4    1.320885 A    
C2    O7    1.301614 A    
C73   H52   1.111211 S    
H5    C43   1.082263 S    
O35   C63   1.412841 S    
C70   H46   1.109862 S    
C74   H54   1.110829 S    
H6    C44   1.082265 S    
O5    C3    1.313249 A    
N7    O37   1.300909 A    
C71   H48   1.110779 S    
C30   N2    1.435464 S    
C28   C50   1.405435 A    
C69   H43   1.110128 S    
C66   H37   1.116614 S    
N5    O31   1.301137 A    
N1    O24   1.300039 A    
C21   C23   1.418842 A    
C64   C65   1.524689 S    
C19   O21   1.384190 S    
N3    O28   1.301338 A    
O22   C60   1.423470 S    
C48   H10   1.075066 S    
C57   C58   1.532419 S    
C26   C50   1.406669 A    
C59   H21   1.110058 S    
C40   C42   1.416827 A    
C26   H8    1.082382 S    
C41   C43   1.394090 A    
C30   C52   1.416491 A    
C61   H24   1.105726 S    
C27   C49   1.405443 A    
C42   C44   1.394089 A    
O16   V4    2.015125 S    
C66   H36   1.111733 S    
C39   C47   1.422205 A    
O42   C72   1.417280 S    
O15   V3    2.015108 S    
C38   C46   1.404465 A    
C29   N1    1.435463 S    
C8    C12   1.398792 A    
C32   C34   1.400741 A    
N6    O33   1.301124 A    
C29   C31   1.412159 A    
C67   C68   1.524688 S    
C57   H16   1.115702 S    
C30   C32   1.412173 A    
C60   H22   1.104265 S    
C14   N8    1.430621 S    
C47   H9    1.075068 S    
C36   C38   1.429298 A    
C68   H41   1.109947 S    
C26   C42   1.401403 A    
C62   H28   1.110062 S    
O5    V1    2.002094 S    
C53   O18   1.325485 A    
N7    O38   1.301171 A    
C20   O22   1.384177 S    
C60   H23   1.115695 S    
C65   H35   1.110389 S    
C33   H11   1.075963 S    
C5    C21   1.400788 A    
C63   C64   1.529086 S    
C27   C47   1.406235 A    
O13   C53   1.314842 A    
N2    O26   1.300037 A    
C72   C73   1.532212 S    
O18   V4    1.991240 S    
C33   C35   1.409721 A    
C46   H14   1.080600 S    
C1    C28   1.476006 S    
C34   C36   1.409706 A    
C3    C8    1.485967 S    
C39   C41   1.416826 A    
C45   H13   1.080597 S    
C2    C27   1.476006 S    
O36   C66   1.412828 S    
C73   C74   1.525120 S    
N3    O27   1.300030 A    
C66   C67   1.529070 S    
O11   V4    1.987952 S    
C72   H51   1.115415 S    
O16   C56   1.314501 A    
C74   H55   1.110793 S    
C23   O35   1.392866 S    
C70   H45   1.111239 S    
O15   C55   1.314498 A    
C15   C23   1.422734 A    
C9    C17   1.416735 A    
C21   H1    1.082403 S    
C36   C40   1.437022 A    
C31   C33   1.400735 A    
C44   C46   1.386952 A    
O4    V2    2.015190 S    
C7    C11   1.398856 A    
C67   H39   1.111226 S    
O19   V3    2.175558 S    
O13   V3    2.002106 S    
C72   H50   1.110136 S    
O10   V1    1.744333 S    
O6    C4    1.313237 A    
C57   H15   1.104262 S    
O20   V4    2.175490 S    
C6    C53   1.487933 S    
O1    V2    1.992493 S    
C37   C51   1.423309 A    
C68   H42   1.110390 S    
C59   H20   1.108640 S    
O2    V1    1.992458 S    
C50   O42   1.394181 S    
C61   C62   1.523920 S    
C9    N5    1.438955 S    
N6    O34   1.301231 A    
C34   H12   1.075935 S    
C70   C71   1.525121 S    
C63   H30   1.116612 S    
C58   H18   1.109665 S    
O14   C54   1.314839 A    
C35   C37   1.429311 A    
C13   N7    1.430847 S    
C5    C19   1.401874 A    
C60   C61   1.532403 S    
C10   C12   1.396179 A    
O4    C2    1.288838 A    
C6    C20   1.401870 A    
O3    C1    1.288847 A    
C65   H34   1.109953 S    
O3    V1    2.015171 S    
N2    O25   1.301103 A    
C25   C49   1.406695 A    
C62   H26   1.110778 S    
C74   H56   1.108977 S    
C24   O36   1.392820 S    
N4    O30   1.301279 A    
C10   C18   1.416735 A    
C10   N6    1.438936 S    
C22   H2    1.082406 S    
C69   C70   1.532202 S    
C49   O41   1.394207 S    
C37   C45   1.404468 A    
C63   H29   1.111743 S    
C28   C48   1.406223 A    
C73   H53   1.109848 S    
C64   H31   1.111452 S    
C13   C15   1.429358 A    
C14   C16   1.429371 A    
C67   H38   1.111440 S    
C58   H17   1.105738 S    
C5    C54   1.487958 S    
N8    O39   1.299899 A    
C9    C11   1.396171 A    
C68   H40   1.109122 S    
C1    O8    1.301614 A    
C17   C19   1.419352 A    
O8    V2    1.998900 S    
N1    O23   1.301105 A    
O19   V4    1.744074 S    
C18   C20   1.419376 A    
C52   C55   1.492375 S    
C64   H32   1.111221 S    
C38   C52   1.423304 A    
C51   C56   1.492398 S    
C8    C14   1.412035 A    
C6    C22   1.400738 A    
C11   H3    1.084061 S    
O17   V3    1.991208 S    
C4    C7    1.485996 S    
C69   H44   1.115409 S    
O20   V3    1.744122 S    
C12   H4    1.084041 S    
C16   C18   1.421640 A    
C22   C24   1.418798 A    
O12   C56   1.320210 A    
C59   H19   1.110781 S    
C7    C13   1.412103 A    
C61   H25   1.109665 S    
O11   C55   1.320208 A    
O41   C69   1.417249 S    
C40   C48   1.422213 A    
C32   N4    1.443755 S    
C58   C59   1.523932 S    
C16   C24   1.422749 A    
O6    V2    2.002151 S    
C71   H47   1.110864 S    
O9    V2    1.744285 S    
C25   H7    1.082376 S    
C65   H33   1.109143 S    
N5    O32   1.301242 A    
O12   V3    1.987942 S    
O7    V1    1.998892 S    
N8    O40   1.300578 A    
C62   H27   1.108642 S    
C71   H49   1.108994 S    
