data_mof_unit_33881.cif
_audit_creation_date              2012-12-11T14:08:46-0500
_audit_creation_method            fapswitch 2.2
_symmetry_space_group_name_H-M    P1
_symmetry_Int_Tables_number       1
_space_group_crystal_system       triclinic
_cell_length_a                    28.075608
_cell_length_b                    7.191285
_cell_length_c                    17.188878
_cell_angle_alpha                 89.999811
_cell_angle_beta                  101.986196
_cell_angle_gamma                 90.005986
_cell_volume                      3394.76580258

loop_
_atom_site_label
_atom_site_type_symbol
_atom_type_description
_atom_site_fract_x
_atom_site_fract_y
_atom_site_fract_z
_atom_type_partial_charge
O1    O     O_R   0.000700 0.436510 0.857920 -0.533891
O2    O     O_R   0.999300 0.563490 0.142080 -0.533733
O3    O     O_R   0.999300 0.936510 0.642080 -0.533895
O4    O     O_R   0.000700 0.063490 0.357920 -0.533735
O5    O     O_R   0.930080 0.766380 0.721890 -0.540137
O6    O     O_R   0.069920 0.233620 0.278110 -0.539806
O7    O     O_R   0.069920 0.266380 0.778110 -0.540170
O8    O     O_R   0.930080 0.733620 0.221890 -0.539849
C1    C     C_R   0.910639 0.597885 0.707338 0.756075
C2    C     C_R   0.089532 0.402414 0.288770 0.754758
C3    C     C_R   0.089363 0.097903 0.792654 0.756099
C4    C     C_R   0.910466 0.902397 0.211227 0.754787
O9    O     O_R   0.996180 0.766230 0.862310 -0.545626
O10   O     O_R   0.003820 0.233770 0.137690 -0.545827
O11   O     O_R   0.003820 0.266230 0.637690 -0.545628
O12   O     O_R   0.996180 0.733770 0.362310 -0.545819
O13   O     O_R   0.065870 0.936460 0.783500 -0.537146
O14   O     O_R   0.934130 0.063540 0.216500 -0.536911
O15   O     O_R   0.934130 0.436460 0.716500 -0.537133
O16   O     O_R   0.065870 0.563540 0.283500 -0.536889
C5    C     C_R   0.998503 0.596460 0.894499 0.760682
C6    C     C_R   0.001525 0.403545 0.105508 0.758673
C7    C     C_R   0.001497 0.096460 0.605501 0.760695
C8    C     C_R   0.998475 0.903545 0.394492 0.758714
O17   O     O_3   0.022790 0.603020 0.723980 -0.378478
O18   O     O_3   0.977210 0.396980 0.276020 -0.378286
O19   O     O_3   0.977210 0.103020 0.776020 -0.378455
O20   O     O_3   0.022790 0.896980 0.223980 -0.378259
V1    V     V_3+5 0.995770 0.877900 0.754830 1.438121
V2    V     V_3+5 0.004230 0.122100 0.245170 1.439486
V3    V     V_3+5 0.004230 0.377900 0.745170 1.438099
V4    V     V_3+5 0.995770 0.622100 0.254830 1.439471
C9    C     C_2   0.001670 0.082688 0.519548 -0.317444
C10   C     C_2   0.998261 0.917324 0.480430 -0.316925
C11   C     C_2   0.998330 0.582686 0.980452 -0.317445
C12   C     C_2   0.001740 0.417325 0.019570 -0.316924
H1    H     H_    0.004456 0.211585 0.487852 0.152921
H2    H     H_    0.995466 0.788429 0.512123 0.152501
H3    H     H_    0.995542 0.711580 0.012147 0.152924
H4    H     H_    0.004536 0.288433 0.987878 0.152505
C13   C     C_R   0.676354 0.795906 0.094991 0.805252
C14   C     C_R   0.319029 0.182353 0.976161 0.815846
C15   C     C_R   0.323630 0.295815 0.404794 0.805275
C16   C     C_R   0.680995 0.682232 0.523732 0.815775
O21   O     O_2   0.702250 0.674111 0.060870 -0.418155
O22   O     O_2   0.291785 0.305017 0.007119 -0.418772
O23   O     O_2   0.297723 0.173802 0.438798 -0.418114
O24   O     O_2   0.708239 0.805208 0.492926 -0.418787
N1    N     N_R   0.700610 0.925615 0.146923 -0.560642
N2    N     N_R   0.296351 0.062728 0.918082 -0.558442
N3    N     N_R   0.299381 0.425749 0.352980 -0.560627
N4    N     N_R   0.703674 0.562388 0.581714 -0.558431
C17   C     C_R   0.675659 0.054760 0.181363 0.849626
C18   C     C_R   0.322311 0.931984 0.886742 0.832416
C19   C     C_R   0.324337 0.555060 0.318626 0.849682
C20   C     C_R   0.677721 0.431362 0.612915 0.832466
C21   C     C_R   0.778870 0.774186 0.208579 0.407325
C22   C     C_R   0.223775 0.227963 0.841121 0.403124
C23   C     C_R   0.221110 0.274580 0.291162 0.407201
C24   C     C_R   0.776208 0.727554 0.658888 0.403055
C25   C     C_R   0.829756 0.767183 0.221725 -0.224210
C26   C     C_R   0.173439 0.235324 0.810443 -0.221747
C27   C     C_R   0.170225 0.267529 0.278041 -0.224223
C28   C     C_R   0.826540 0.735015 0.689610 -0.221708
C29   C     C_R   0.830891 0.062601 0.154707 -0.264113
C30   C     C_R   0.163641 0.936173 0.869665 -0.268953
C31   C     C_R   0.169115 0.562439 0.345449 -0.264117
C32   C     C_R   0.836401 0.436229 0.630140 -0.269016
C33   C     C_R   0.779860 0.068383 0.139826 0.696263
C34   C     C_R   0.213689 0.929965 0.901797 0.697235
C35   C     C_R   0.220145 0.568268 0.360299 0.696239
C36   C     C_R   0.786360 0.429942 0.597961 0.697098
C37   C     C_R   0.753340 0.923706 0.166102 0.111081
C38   C     C_R   0.244298 0.075492 0.887893 0.111873
C39   C     C_R   0.246652 0.423862 0.333814 0.111168
C40   C     C_R   0.755722 0.575241 0.611962 0.111902
C41   C     C_R   0.599056 0.938545 0.103433 -0.180194
C42   C     C_R   0.396647 0.028804 0.977800 -0.167134
C43   C     C_R   0.400941 0.438496 0.396399 -0.180160
C44   C     C_R   0.603380 0.528443 0.521946 -0.167011
C45   C     C_R   0.624859 0.792805 0.075535 -0.175067
C46   C     C_R   0.370271 0.175057 0.004311 -0.167700
C47   C     C_R   0.375127 0.292686 0.424243 -0.174956
C48   C     C_R   0.629757 0.674860 0.495533 -0.167614
C49   C     C_R   0.597935 0.646163 0.032462 0.340756
C50   C     C_R   0.396616 0.313640 0.053821 0.329655
C51   C     C_R   0.402041 0.145951 0.467247 0.340688
C52   C     C_R   0.603414 0.813505 0.446068 0.329526
C53   C     C_R   0.624306 0.064391 0.160158 -0.191862
C54   C     C_R   0.372736 0.910444 0.916469 -0.193542
C55   C     C_R   0.375694 0.564536 0.339768 -0.191732
C56   C     C_R   0.627295 0.409851 0.583177 -0.193353
C57   C     C_R   0.856374 0.910548 0.194782 -0.199868
C58   C     C_R   0.142849 0.089190 0.823914 -0.200215
C59   C     C_R   0.143621 0.410611 0.305192 -0.199782
C60   C     C_R   0.857159 0.589106 0.676037 -0.200144
H5    H     H_    0.850410 0.175551 0.133668 0.173229
H6    H     H_    0.141033 0.822163 0.881777 0.170762
H7    H     H_    0.149603 0.675152 0.366656 0.173198
H8    H     H_    0.859036 0.322400 0.617950 0.170726
C61   C     C_R   0.473583 0.860956 0.981280 -0.017510
C62   C     C_R   0.521777 0.099044 0.105731 0.002729
C63   C     C_R   0.526434 0.360523 0.518406 -0.017319
C64   C     C_R   0.478236 0.598934 0.394101 0.002927
C65   C     C_R   0.471773 0.130202 0.069281 0.005927
C66   C     C_R   0.522972 0.827888 0.019057 -0.006912
C67   C     C_R   0.528249 0.630014 0.430532 0.005982
C68   C     C_R   0.477030 0.327580 0.480658 -0.006859
C69   C     C_R   0.447269 0.004414 0.010651 0.008620
C70   C     C_R   0.547860 0.956784 0.075331 -0.003194
C71   C     C_R   0.552753 0.504091 0.489096 0.008579
C72   C     C_R   0.452145 0.456628 0.424464 -0.003324
C73   C     C_R   0.450507 0.768452 0.910251 0.343729
C74   C     C_R   0.546489 0.194465 0.175073 0.395616
C75   C     C_R   0.549524 0.267752 0.589351 0.343728
C76   C     C_R   0.453519 0.694512 0.324815 0.395775
C77   C     C_R   0.400358 0.783591 0.882138 0.655147
C78   C     C_R   0.597330 0.187569 0.197680 0.657997
C79   C     C_R   0.599678 0.282772 0.617415 0.655082
C80   C     C_R   0.402674 0.687767 0.302269 0.657902
O25   O     O_2   0.299222 0.824169 0.826382 -0.399408
O26   O     O_2   0.700550 0.173337 0.235735 -0.390925
O27   O     O_2   0.700815 0.323253 0.673157 -0.399380
O28   O     O_2   0.299448 0.673959 0.264405 -0.390985
C81   C     C_R   0.547404 0.661030 0.008385 0.659705
C82   C     C_R   0.446874 0.295013 0.081749 0.650808
C83   C     C_R   0.452576 0.160724 0.491278 0.659710
C84   C     C_R   0.553159 0.794858 0.418115 0.650831
H9    H     H_    0.158413 0.353984 0.774840 0.182288
H10   H     H_    0.848534 0.650717 0.254510 0.179535
H11   H     H_    0.841542 0.853549 0.725331 0.182257
H12   H     H_    0.151434 0.151262 0.245115 0.179473
F1    F     F_    0.756138 0.213747 0.098653 -0.579210
F2    F     F_    0.232523 0.781423 0.946480 -0.583899
F3    F     F_    0.243882 0.713398 0.401641 -0.579180
F4    F     F_    0.767562 0.281539 0.553140 -0.583950
Cl1   Cl    Cl    0.624354 0.431786 0.013946 -0.392040
Cl2   Cl    Cl    0.370334 0.526244 0.075164 -0.374410
Cl3   Cl    Cl    0.375601 0.931596 0.485763 -0.391989
Cl4   Cl    Cl    0.629698 0.026171 0.424779 -0.374506
Cl5   Cl    Cl    0.260616 0.407874 0.817218 -0.412586
Cl6   Cl    Cl    0.747975 0.595661 0.247746 -0.425795
Cl7   Cl    Cl    0.739323 0.907093 0.682943 -0.412406
Cl8   Cl    Cl    0.251993 0.096404 0.251767 -0.425938
F5    F     F_    0.379595 0.683278 0.816830 -0.529786
F6    F     F_    0.619716 0.292412 0.260501 -0.540646
F7    F     F_    0.620455 0.182091 0.682601 -0.529839
F8    F     F_    0.380286 0.792811 0.239521 -0.540692
Cl9   Cl    Cl    0.483296 0.673031 0.842055 -0.332124
Cl10  Cl    Cl    0.515992 0.282153 0.247762 -0.400763
Cl11  Cl    Cl    0.516763 0.172109 0.657548 -0.332207
Cl12  Cl    Cl    0.484001 0.782199 0.252102 -0.400656
F9    F     F_    0.521864 0.504698 0.982194 -0.603646
F10   F     F_    0.471974 0.449497 0.111585 -0.592373
F11   F     F_    0.478094 0.004301 0.517367 -0.603688
F12   F     F_    0.528070 0.949354 0.388295 -0.592351

loop_
_geom_bond_atom_site_label_1
_geom_bond_atom_site_label_2
_ccdc_geom_bond_type
O17   V3    S    
C47   C51   A    
N1    C17   A    
C22   C26   A    
O1    C5    A    
C49   Cl1   S    
C50   C82   A    
O13   V1    S    
O3    C7    A    
C11   C12   D    
C14   C46   A    
C44   C48   A    
O15   V3    S    
C51   C83   A    
C42   C54   A    
O7    C3    A    
C66   C81   A    
C41   C53   A    
C32   C60   A    
C21   Cl6   S    
C63   C71   A    
C56   C79   A    
N3    C39   S    
C67   C84   A    
C18   C54   A    
C17   O26   S    
N2    C38   S    
C24   Cl7   S    
C35   F3    S    
O4    C8    A    
C25   C57   A    
C36   F4    S    
C31   C35   A    
O19   V1    S    
C79   F7    S    
C27   C59   A    
O1    V3    S    
C15   C47   A    
C62   C65   A    
O2    V4    S    
C14   O22   S    
C21   C37   A    
O3    V1    S    
C34   C38   A    
C52   Cl4   S    
C19   C55   A    
C64   C76   A    
C49   C81   A    
C1    O15   A    
C2    O16   A    
C7    C9    S    
O2    C6    A    
C33   C37   A    
C63   C68   A    
O14   V2    S    
C41   C45   A    
C43   C55   A    
C31   H7    S    
C30   C58   A    
C16   N4    A    
O11   C7    A    
C61   C69   A    
O12   C8    A    
C31   C59   A    
C26   H9    S    
C41   C70   A    
O10   V2    S    
C13   N1    A    
C81   F9    S    
C45   C49   A    
O5    V1    S    
O7    V3    S    
O8    V4    S    
C54   C77   A    
C73   Cl9   S    
C12   H4    S    
C28   C60   A    
C83   F11   S    
C64   C72   A    
C50   Cl2   S    
O18   V4    S    
N4    C40   S    
C46   C50   A    
C24   C40   A    
C8    C10   S    
C76   C80   A    
C32   C36   A    
C44   C56   A    
C11   H3    S    
C20   O27   S    
O5    C1    A    
C63   C75   A    
C62   C74   A    
C42   C46   A    
C28   H11   S    
C78   F6    S    
O8    C4    A    
C13   C45   A    
C9    C10   D    
O9    C5    A    
C36   C40   A    
N2    C18   A    
C27   H12   S    
O11   V3    S    
C1    C60   S    
C74   C78   A    
C25   H10   S    
C14   N2    A    
C73   C77   A    
C65   C82   A    
C3    C58   S    
C82   F10   S    
C18   O25   S    
C23   Cl8   S    
C80   F8    S    
C75   C79   A    
C26   C58   A    
C17   C53   A    
C77   F5    S    
N1    C37   S    
C4    C57   S    
C62   C70   A    
C74   Cl10  S    
C75   Cl11  S    
C23   C39   A    
C76   Cl12  S    
C22   C38   A    
O16   V4    S    
O9    V1    S    
C61   C66   A    
C65   C69   A    
C19   O28   S    
C3    O13   A    
C33   F1    S    
O6    V2    S    
C10   H2    S    
C67   C71   A    
C32   H8    S    
C48   C52   A    
C51   Cl3   S    
C16   C48   A    
C43   C72   A    
O6    C2    A    
C30   H6    S    
C21   C25   A    
C5    C11   S    
O12   V4    S    
C6    C12   S    
C23   C27   A    
C24   C28   A    
O10   C6    A    
O20   V2    S    
C29   H5    S    
C52   C84   A    
C35   C39   A    
C22   Cl5   S    
C15   N3    A    
C30   C34   A    
N4    C20   A    
C2    C59   S    
C29   C33   A    
C44   C71   A    
C29   C57   A    
C42   C69   A    
N3    C19   A    
C68   C83   A    
C61   C73   A    
C9    H1    S    
C84   F12   S    
C43   C47   A    
C68   C72   A    
C20   C56   A    
C53   C78   A    
C66   C70   A    
C4    O14   A    
C34   F2    S    
C13   O21   S    
C55   C80   A    
C15   O23   S    
C64   C67   A    
O4    V2    S    
C16   O24   S    
