data_mof_unit_68268.cif
_audit_creation_date              2013-03-05T15:58:14-0500
_audit_creation_method            fapswitch 2.2
_symmetry_space_group_name_H-M    P1
_symmetry_Int_Tables_number       1
_space_group_crystal_system       triclinic
_cell_length_a                    8.242394
_cell_length_b                    12.708743
_cell_length_c                    14.183523
_cell_angle_alpha                 92.722711
_cell_angle_beta                  90.62222
_cell_angle_gamma                 98.399382
_cell_volume                      1467.89719476

loop_
_atom_site_label
_atom_site_type_symbol
_atom_site_description
_atom_site_fract_x
_atom_site_fract_y
_atom_site_fract_z
_atom_type_partial_charge
P1    P     P_3+3 0.054400 0.427280 0.286870 0.458452
O1    O     O_2   0.887370 0.460630 0.272300 -0.376116
O2    O     O_3   0.129410 0.451380 0.388510 -0.404475
O3    O     O_3   0.670210 0.653170 0.329170 -0.376814
O4    O     O_2   0.788074 0.592189 0.164705 -0.401647
O5    O     O_3   0.020431 0.289860 0.260624 -0.561991
O6    O     O_3   0.713682 0.784375 0.172415 -0.506221
H1    H     H_    0.743098 0.884752 0.291621 0.138160
C1    C     C_3   0.608605 0.949561 0.182360 -0.929342
H2    H     H_    0.569181 0.010343 0.232451 0.239470
H3    H     H_    0.717453 0.985845 0.143690 0.288330
P2    P     P_3+3 0.668300 0.742890 0.573060 0.462022
P3    P     P_3+3 0.133285 0.842363 0.373871 0.438515
O7    O     O_2   0.845380 0.761330 0.544970 -0.385301
O8    O     O_3   0.088930 0.704860 0.376040 -0.387465
O9    O     O_2   0.001890 0.888590 0.433167 -0.394338
O10   O     O_3   0.675337 0.768757 0.695419 -0.542344
O11   O     O_3   0.100357 0.880712 0.259046 -0.521086
C2    C     C_3   0.145899 0.803218 0.194607 0.468046
H4    H     H_    0.063536 0.726388 0.199782 0.148916
H5    H     H_    0.274754 0.790982 0.207260 0.012354
C3    C     C_3   0.130864 0.839875 0.094736 -0.924784
H6    H     H_    0.001221 0.847758 0.078207 0.293008
H7    H     H_    0.208448 0.918205 0.087591 0.259629
C4    C     C_3   0.215745 0.766585 0.655620 0.350391
H8    H     H_    0.350313 0.786991 0.650764 0.080997
H9    H     H_    0.166241 0.724568 0.588885 0.141328
C5    C     C_3   0.141216 0.868218 0.666753 -0.858297
H10   H     H_    0.196942 0.917546 0.727716 0.247730
H11   H     H_    0.158740 0.913406 0.601951 0.247655
H12   H     H_    0.009585 0.848502 0.682424 0.281302
Ba1   Ba    Ba6+2 0.855630 0.555280 0.454520 1.549894
C6    C     C_3   0.968016 0.235568 0.340590 0.369207
H13   H     H_    0.050537 0.259708 0.402643 0.137367
C7    C     C_3   0.967129 0.117312 0.318684 -0.876291
H14   H     H_    0.892226 0.091738 0.254151 0.261161
H15   H     H_    0.914710 0.070611 0.377840 0.223452
H16   H     H_    0.094299 0.101136 0.306844 0.272970
C8    C     C_3   0.719632 0.682258 0.741101 0.399045
H17   H     H_    0.840016 0.665283 0.715810 0.088889
H18   H     H_    0.624535 0.611237 0.729017 0.105604
C9    C     C_3   0.733826 0.711681 0.846543 -0.907310
H19   H     H_    0.831754 0.780778 0.860323 0.290841
H20   H     H_    0.764569 0.644091 0.886237 0.192372
H21   H     H_    0.615578 0.732983 0.872476 0.264053
P4    P     P_3+3 0.135310 0.572810 0.713130 0.471124
O12   O     O_2   0.302330 0.539400 0.727760 -0.369875
O13   O     O_3   0.060300 0.548700 0.611500 -0.401465
O14   O     O_3   0.519500 0.346920 0.670840 -0.380219
O15   O     O_3   0.180794 0.710336 0.737244 -0.564716
P5    P     P_3+3 0.059290 0.154746 0.622008 0.472751
O16   O     O_3   0.614310 0.373510 0.452640 -0.390315
O17   O     O_3   0.100780 0.295230 0.623970 -0.364801
O18   O     O_2   0.192630 0.110708 0.562674 -0.424060
O19   O     O_3   0.082395 0.104582 0.734919 -0.585909
Ba2   Ba    Ba6+2 0.334200 0.444810 0.545490 1.561381
P6    P     P_3+3 0.655466 0.653914 0.206373 0.454337
C10   C     C_3   0.649449 0.855604 0.235852 0.423411
H22   H     H_    0.535546 0.819938 0.270442 0.032188
H23   H     H_    0.507779 0.922247 0.130427 0.267031
O20   O     O_3   0.575400 0.626570 0.547370 -0.396939
C11   C     C_3   0.474219 0.312739 0.257228 0.415545
H24   H     H_    0.358566 0.334925 0.285848 0.102838
H25   H     H_    0.575691 0.379749 0.270576 0.120544
C12   C     C_3   0.452688 0.291214 0.151021 -0.952802
H26   H     H_    0.347705 0.227114 0.135446 0.275813
H27   H     H_    0.428622 0.364228 0.116853 0.215634
H28   H     H_    0.565841 0.266173 0.121080 0.274171
P7    P     P_3+3 0.525221 0.242197 0.420486 0.418607
O21   O     O_2   0.344320 0.238700 0.455090 -0.369772
O22   O     O_3   0.510994 0.220352 0.297711 -0.578737
H29   H     H_    0.171694 0.780763 0.043418 0.220732
C13   C     C_3   0.082213 0.184034 0.808010 0.838261
H30   H     H_    0.167635 0.255970 0.792079 0.068507
C14   C     C_3   0.139717 0.142730 0.900843 -0.923770
H31   H     H_    0.138294 0.204111 0.959213 0.240193
H32   H     H_    0.058455 0.068892 0.918590 0.285959
H33   H     H_    0.265765 0.124934 0.896731 0.248777
P8    P     P_3+3 0.534851 0.348399 0.794113 0.497767
C15   C     C_3   0.497080 0.144649 0.749047 0.296143
H34   H     H_    0.597146 0.162753 0.698784 0.123487
O23   O     O_2   0.386964 0.395604 0.835851 -0.433054
O24   O     O_3   0.512149 0.215974 0.829166 -0.496231
H35   H     H_    0.381888 0.149726 0.710509 0.101288
C16   C     C_3   0.494397 0.029505 0.777590 -0.103405
H36   H     H_    0.483356 0.976110 0.712755 0.070711
H37   H     H_    0.386545 0.005288 0.821403 0.114594
C17   C     C_R   0.981071 0.451908 0.062516 -0.081576
C18   C     C_R   0.182284 0.499637 0.196260 0.255846
C19   C     C_R   0.337501 0.549860 0.226205 -0.530556
C20   C     C_R   0.450159 0.596168 0.162357 0.260499
C21   C     C_R   0.405800 0.598958 0.067330 -0.316473
C22   C     C_R   0.248402 0.552870 0.034874 0.054726
C23   C     C_R   0.135769 0.500214 0.098634 -0.025800
H38   H     H_    0.373842 0.549071 0.299685 0.178287
C24   C     C_R   0.049225 0.510214 0.903332 -0.025668
C25   C     C_R   0.934670 0.460827 0.967626 0.050523
C26   C     C_R   0.003309 0.509075 0.805724 0.239920
C27   C     C_R   0.844423 0.465524 0.776900 -0.446587
C28   C     C_R   0.729715 0.422238 0.840925 0.351448
C29   C     C_R   0.774176 0.419942 0.936158 -0.214150
C30   C     C_R   0.204419 0.557870 0.939016 -0.119806
H39   H     H_    0.494095 0.637055 0.018975 0.159050
H40   H     H_    0.685849 0.382045 0.984592 0.154983
H41   H     H_    0.809699 0.463461 0.702930 0.170495
H42   H     H_    0.893688 0.407883 0.107486 0.169325
H43   H     H_    0.292686 0.599936 0.893235 0.166127
C31   C     C_R   0.766130 0.175953 0.529788 -0.496472
C32   C     C_R   0.427924 0.813405 0.461960 -0.526671
C33   C     C_R   0.404730 0.994534 0.426956 -0.193852
C34   C     C_R   0.339633 0.887319 0.423676 0.206411
C35   C     C_R   0.576502 0.846140 0.510624 0.302820
C36   C     C_R   0.641761 0.956788 0.517744 -0.100079
C37   C     C_R   0.555046 0.031233 0.474048 -0.065379
C38   C     C_R   0.619391 0.140933 0.480730 0.234263
C39   C     C_R   0.855621 0.104085 0.568950 0.307371
C40   C     C_R   0.791262 0.995823 0.565922 -0.152977
H44   H     H_    0.334194 0.048217 0.393948 0.184875
H45   H     H_    0.860093 0.943739 0.600890 0.196904
H46   H     H_    0.814998 0.259888 0.533934 0.182260
H47   H     H_    0.376355 0.729970 0.458013 0.175600
H48   H     H_    0.842589 0.250445 0.356401 0.092216
N1    N     N_R   0.918219 0.212260 0.819277 0.224274
O25   O     O_R   0.849854 0.251521 0.749223 -0.483905
O26   O     O_R   0.843507 0.205346 0.899653 -0.372985
N2    N     N_R   0.641739 0.015630 0.830357 0.315554
O27   O     O_R   0.634567 0.006702 0.921290 -0.341449
O28   O     O_R   0.765718 0.986280 0.785595 -0.372450

loop_
_geom_bond_atom_site_label_1
_geom_bond_atom_site_label_2
_geom_bond_distance
_ccdc_geom_bond_type
N2    O27   1.301312 A    
C24   C30   1.410580 A    
C13   C14   1.535810 S    
C13   H30   1.103458 S    
C31   H46   1.082391 S    
C7    H14   1.106988 S    
C15   H35   1.101993 S    
C33   H44   1.078407 S    
C37   C38   1.415715 A    
N1    O25   1.292604 A    
C8    H18   1.110912 S    
C16   H36   1.111421 S    
C4    C5    1.511666 S    
C15   C16   1.533876 S    
P3    O11   1.751589 S    
C31   C38   1.392883 A    
C5    H10   1.098807 S    
C7    H15   1.105977 S    
Ba1   O20   2.907623 S    
O11   C2    1.405745 S    
C32   C34   1.395138 A    
N1    O26   1.302121 A    
C39   C40   1.398908 A    
O1    Ba1   2.829556 S    
P1    O1    1.513385 D    
O10   C8    1.393312 S    
C18   C23   1.433401 A    
P7    O22   1.750243 S    
C33   C34   1.387977 A    
Ba1   O16   2.818527 S    
C11   H25   1.110756 S    
O16   P7    1.759148 S    
C21   H39   1.083454 S    
H1    C10   1.110894 S    
C4    O15   1.399997 S    
C2    H4    1.110801 S    
C13   N1    1.456787 S    
C24   C26   1.430097 A    
P2    O10   1.749676 S    
P1    C18   1.861952 S    
P5    O18   1.544137 D    
C1    H2    1.110518 S    
C33   C37   1.407941 A    
O6    C10   1.407943 S    
C17   C25   1.409421 A    
P4    C26   1.854521 S    
P2    Ba1   3.412739 S    
Ba1   O13   2.790630 S    
C16   N2    1.456525 S    
P7    O21   1.569942 D    
C9    H20   1.107015 S    
C15   O24   1.412307 S    
C3    H29   1.111142 S    
C35   C36   1.428724 A    
C8    C9    1.523293 S    
C17   C23   1.411518 A    
C16   H37   1.105155 S    
C27   H41   1.082588 S    
P4    O13   1.561189 S    
P1    O5    1.749326 S    
P8    C28   1.838060 S    
C19   H38   1.082180 S    
C7    H16   1.110242 S    
C32   C35   1.398123 A    
C20   C21   1.396130 A    
C12   H27   1.108897 S    
C4    H8    1.105244 S    
P1    Ba1   3.388266 S    
O14   P8    1.750656 S    
P1    O2    1.561306 S    
C9    H21   1.110828 S    
O19   C13   1.412553 S    
O3    P6    1.745177 S    
C14   H31   1.111567 S    
C11   H24   1.108617 S    
C17   H42   1.079254 S    
O2    Ba2   2.791205 S    
C27   C28   1.391164 A    
P3    O8    1.734087 S    
C12   H28   1.110820 S    
C24   C25   1.420217 A    
C2    C3    1.521408 S    
C6    H13   1.109853 S    
C30   H43   1.079976 S    
C22   C23   1.421879 A    
C14   H32   1.111317 S    
O3    Ba1   2.784047 S    
C36   C40   1.415066 A    
P2    O7    1.505176 D    
C12   H26   1.110856 S    
C29   H40   1.083408 S    
Ba2   O21   2.873899 S    
C1    H3    1.110065 S    
C6    H48   1.101334 S    
C3    H7    1.111393 S    
C9    H19   1.110871 S    
P2    C35   1.861300 S    
C36   C37   1.426080 A    
O17   Ba2   2.780891 S    
O13   Ba2   2.918182 S    
P4    O12   1.513745 D    
P7    C38   1.835946 S    
N2    O28   1.299773 A    
P6    C20   1.833757 S    
C11   C12   1.521971 S    
C2    H5    1.109576 S    
Ba2   O20   2.817857 S    
C5    H12   1.104728 S    
O7    Ba1   2.873683 S    
C15   H34   1.101974 S    
O8    Ba1   2.780301 S    
C22   C30   1.410042 A    
P8    O23   1.546529 D    
C4    H9    1.107929 S    
O14   Ba2   2.783446 S    
P4    O15   1.749649 S    
P5    C39   1.846551 S    
O5    C6    1.395363 S    
O4    P6    1.542652 D    
C1    H23   1.109881 S    
C31   C39   1.386703 A    
C40   H45   1.068065 S    
C10   H22   1.111016 S    
P3    C34   1.835713 S    
P8    O24   1.761832 S    
P2    O20   1.586343 S    
C32   H47   1.081818 S    
C19   C20   1.392099 A    
C5    H11   1.106456 S    
C21   C22   1.406234 A    
C6    C7    1.519089 S    
Ba1   Ba2   4.568899 S    
C11   O22   1.401563 S    
P5    O19   1.770097 S    
O2    Ba1   2.917417 S    
C14   H33   1.096650 S    
C8    H17   1.105761 S    
C1    C10   1.520764 S    
C26   C27   1.394149 A    
P3    O9    1.544046 D    
P4    Ba2   3.388725 S    
C3    H6    1.111258 S    
C28   C29   1.398484 A    
P5    O17   1.766921 S    
C18   C19   1.395859 A    
O6    P6    1.749183 S    
C25   C29   1.408356 A    
O16   Ba2   2.906839 S    
O12   Ba2   2.830063 S    
