data_mof_unit_29321.cif
_audit_creation_date              2012-12-11T17:00:19-0500
_audit_creation_method            fapswitch 2.2
_symmetry_space_group_name_H-M    P1
_symmetry_Int_Tables_number       1
_space_group_crystal_system       triclinic
_cell_length_a                    6.945603
_cell_length_b                    13.8163
_cell_length_c                    20.094294
_cell_angle_alpha                 102.699625
_cell_angle_beta                  89.617314
_cell_angle_gamma                 90.209861
_cell_volume                      1881.078718

loop_
_atom_site_label
_atom_site_type_symbol
_atom_type_description
_atom_site_fract_x
_atom_site_fract_y
_atom_site_fract_z
_atom_type_partial_charge
O1    O     O_R   0.506770 0.599700 0.449550 -0.537642
O2    O     O_R   0.179980 0.595740 0.587960 -0.551970
O3    O     O_R   0.004580 0.400300 0.550450 -0.532899
C1    C     C_R   0.347785 0.616343 0.615368 0.699177
O4    O     O_R   0.177380 0.611700 0.452380 -0.513219
O5    O     O_R   0.001970 0.416370 0.413900 -0.516027
C2    C     C_R   0.348857 0.639453 0.435817 0.793649
O6    O     O_R   0.509390 0.583630 0.586100 -0.543450
O7    O     O_3   0.337530 0.435890 0.487530 -0.368614
V1    V     V_3+5 0.064660 0.511890 0.502310 1.592869
O8    O     O_R   0.671950 0.404260 0.412040 -0.526749
C3    C     C_R   0.839871 0.382476 0.384664 0.848227
O9    O     O_R   0.674540 0.388300 0.547620 -0.546434
C4    C     C_R   0.843566 0.361500 0.563521 0.853505
V2    V     V_3+5 0.564030 0.488110 0.497690 1.566275
O10   O     O_3   0.841030 0.564110 0.512470 -0.388149
C5    C     C_R   0.941533 0.121749 0.613810 -0.191720
H1    H     H_    0.042768 0.011515 0.699413 0.121985
H2    H     H_    0.987643 0.047475 0.589314 0.156913
C6    C     C_R   0.854848 0.287242 0.604830 -0.174760
C7    C     C_R   0.759794 0.306635 0.931872 0.373943
C8    C     C_R   0.687966 0.370145 0.893257 -0.159196
C9    C     C_R   0.712120 0.348416 0.822802 -0.161727
C10   C     C_R   0.824792 0.267054 0.789261 0.118826
C11   C     C_R   0.887649 0.198584 0.828104 0.003929
C12   C     C_R   0.860963 0.246331 0.717373 0.029339
C13   C     C_R   0.926526 0.149931 0.684959 0.031905
C14   C     C_R   0.983982 0.083197 0.723815 -0.155140
C15   C     C_R   0.972616 0.108735 0.794376 -0.189014
C16   C     C_R   0.842617 0.317681 0.676385 0.243514
C17   C     C_R   0.901803 0.189181 0.573692 0.318365
C18   C     C_R   0.852714 0.218436 0.899391 -0.162914
H3    H     H_    0.631081 0.392988 0.795236 0.199600
H4    H     H_    0.604667 0.434504 0.917577 0.165875
H5    H     H_    0.025906 0.055772 0.822107 0.112481
C19   C     C_R   0.708791 0.175381 0.230437 -0.102433
C20   C     C_R   0.856897 0.183905 0.183619 -0.158807
C21   C     C_R   0.980242 0.265802 0.200524 -0.115819
H6    H     H_    0.073683 0.283782 0.161597 0.189004
C22   C     C_R   0.962367 0.333503 0.263459 0.440606
C23   C     C_R   0.844771 0.313497 0.315960 -0.172060
C24   C     C_R   0.706222 0.237899 0.296668 -0.033354
C25   C     C_3   0.492431 0.254031 0.295111 0.501529
C26   C     C_3   0.494620 0.190896 0.222313 0.338007
C27   C     C_R   0.492803 0.752048 0.705182 0.099889
C28   C     C_R   0.352666 0.680031 0.684781 -0.140911
C29   C     C_R   0.215018 0.669967 0.735197 -0.182411
H7    H     H_    0.106542 0.612677 0.722768 0.194332
C30   C     C_R   0.219056 0.732197 0.802372 0.212510
C31   C     C_R   0.358317 0.809843 0.818772 -0.149704
C32   C     C_R   0.495469 0.813486 0.768312 0.052209
C33   C     C_3   0.654588 0.875737 0.749632 0.009444
C34   C     C_3   0.649875 0.806291 0.677982 -0.002011
H8    H     H_    0.613592 0.954283 0.751914 0.138833
H9    H     H_    0.780858 0.760541 0.662049 0.144650
C35   C     C_R   0.607593 0.847620 0.379210 0.240492
H10   H     H_    0.593235 0.791424 0.470596 0.116858
H11   H     H_    0.727015 0.947787 0.284513 0.164586
C36   C     C_R   0.379958 0.720609 0.398742 -0.143139
C37   C     C_R   0.251440 0.698009 0.077865 0.136609
C38   C     C_R   0.243168 0.621522 0.113227 -0.141379
C39   C     C_R   0.317501 0.634919 0.179337 0.257294
C40   C     C_R   0.377216 0.730986 0.213654 0.108051
C41   C     C_R   0.427456 0.799355 0.173072 -0.017133
C42   C     C_R   0.411491 0.756938 0.285316 -0.020194
C43   C     C_R   0.548513 0.831888 0.310634 0.112608
C44   C     C_R   0.622585 0.889571 0.266854 -0.116326
C45   C     C_R   0.555685 0.876694 0.200220 -0.214302
C46   C     C_R   0.306316 0.715103 0.333103 0.317044
C47   C     C_R   0.531708 0.787263 0.420795 -0.214610
C48   C     C_R   0.352939 0.785707 0.105935 -0.088647
H12   H     H_    0.189515 0.549432 0.087291 0.157140
H13   H     H_    0.611927 0.925677 0.169671 0.129628
O11   O     O_R   0.203450 0.916320 0.913910 -0.543599
O12   O     O_R   0.535520 0.888300 0.047620 -0.553689
O13   O     O_R   0.710860 0.083650 0.086100 -0.554687
C49   C     C_R   0.366489 0.864051 0.066535 0.750863
O14   O     O_R   0.532860 0.904250 0.912040 -0.544717
O15   O     O_R   0.708190 0.099710 0.949550 -0.534225
C50   C     C_R   0.364608 0.881166 0.885518 0.744693
O16   O     O_R   0.206120 0.900260 0.050460 -0.525478
O17   O     O_3   0.375280 0.064080 0.012470 -0.378245
V3    V     V_3+5 0.648180 0.988110 0.997690 1.439957
O18   O     O_R   0.038220 0.111740 0.952370 -0.544163
C51   C     C_R   0.868881 0.139176 0.936889 0.762374
O19   O     O_R   0.040880 0.095790 0.087940 -0.536182
C52   C     C_R   0.870617 0.116511 0.115344 0.767040
V4    V     V_3+5 0.148800 0.011950 0.002300 1.467840
O20   O     O_3   0.871820 0.935920 0.987530 -0.376688
Cl1   Cl    Cl    0.930390 0.151503 0.484541 -0.699797
Cl2   Cl    Cl    0.022170 0.455779 0.264820 -0.555209
Cl3   Cl    Cl    0.423288 0.380888 0.302102 -0.624020
N1    N     N_3   0.391633 0.208476 0.344697 -0.643432
H14   H     H_    0.243627 0.215424 0.337822 0.265423
H15   H     H_    0.423068 0.249412 0.393649 0.261395
N2    N     N_3   0.447715 0.247993 0.170691 -0.600525
H16   H     H_    0.443704 0.201111 0.122391 0.266858
H17   H     H_    0.553252 0.301706 0.169141 0.285847
N3    N     N_3   0.378084 0.100320 0.213682 -0.637997
H18   H     H_    0.422010 0.058576 0.248273 0.244316
H19   H     H_    0.402251 0.057321 0.164742 0.219779
N4    N     N_3   0.091919 0.711928 0.854442 -0.629063
H20   H     H_    0.013859 0.646799 0.836069 0.261319
H21   H     H_    0.991197 0.768949 0.866451 0.268246
N5    N     N_3   0.830742 0.864290 0.786038 -0.670799
H22   H     H_    0.826852 0.915506 0.832775 0.236920
H23   H     H_    0.946881 0.884150 0.758520 0.220555
N6    N     N_3   0.578621 0.856895 0.626621 -0.676234
H24   H     H_    0.693892 0.896306 0.611673 0.233046
H25   H     H_    0.539932 0.802413 0.584017 0.213597
N7    N     N_3   0.751743 0.920798 0.405272 -0.595262
H26   H     H_    0.688090 0.990278 0.409209 0.267067
H27   H     H_    0.791105 0.916799 0.454740 0.250261
Cl4   Cl    Cl    0.062563 0.683280 0.318110 -0.560930
N8    N     N_3   0.172400 0.682934 0.010648 -0.630966
H28   H     H_    0.025596 0.667430 0.013871 0.252007
H29   H     H_    0.238093 0.620562 0.980127 0.245016
N9    N     N_3   0.385313 0.549220 0.201858 -0.562500
H30   H     H_    0.343696 0.552255 0.251877 0.319460
H31   H     H_    0.326677 0.484210 0.172150 0.286727
Cl5   Cl    Cl    0.851928 0.447455 0.711509 -0.736137
Cl6   Cl    Cl    0.715480 0.335168 0.020597 -0.674902

loop_
_geom_bond_atom_site_label_1
_geom_bond_atom_site_label_2
_ccdc_geom_bond_type
C21   C22   A    
C40   C42   A    
N1    H14   S    
C23   C24   A    
C19   C24   A    
N7    H26   S    
O15   C51   A    
C1    O6    A    
C29   C30   A    
C1    C28   S    
C27   C28   A    
N5    H23   S    
C12   C13   A    
C20   C21   A    
C41   C45   A    
C19   C20   A    
C10   C12   A    
O5    C3    A    
C21   H6    S    
C26   N3    S    
C35   C43   A    
C27   C32   A    
N8    H28   S    
N6    H24   S    
C41   C48   A    
C7    Cl6   S    
N9    H30   S    
C25   N1    S    
O8    V2    S    
O14   V3    S    
N3    H18   S    
C9    H3    S    
N2    H17   S    
C9    C10   A    
O1    V2    S    
H10   C47   S    
O7    V1    S    
C35   N7    S    
C11   C18   A    
C43   C44   A    
C27   C34   S    
N1    H15   S    
O11   C50   A    
O9    C4    A    
N4    H20   S    
V3    O20   S    
O13   V3    S    
C2    C36   S    
C33   H8    S    
C34   H9    S    
C11   C15   A    
C8    H4    S    
C7    C18   A    
C46   Cl4   S    
C32   C33   S    
C5    C13   A    
C4    C6    S    
H1    C14   S    
C10   C11   A    
C30   N4    S    
O4    C2    A    
O19   C52   A    
C6    C16   A    
C37   C48   A    
N8    H29   S    
C45   H13   S    
O17   V3    S    
C44   C45   A    
C37   C38   A    
O2    C1    A    
C25   C26   S    
C3    C23   S    
C26   N2    S    
C29   H7    S    
C16   Cl5   S    
C49   O16   A    
C17   Cl1   S    
N2    H16   S    
C39   C40   A    
C31   C32   A    
O14   C50   A    
N7    H27   S    
O18   C51   A    
N4    H21   S    
O12   C49   A    
O13   C52   A    
O3    C4    A    
C36   C46   A    
C38   H12   S    
C22   C23   A    
N3    H19   S    
C33   N5    S    
C12   C16   A    
O6    V2    S    
C35   C47   A    
O9    V2    S    
C5    C17   A    
C19   C26   S    
C24   C25   S    
O2    V1    S    
C48   C49   S    
C33   C34   S    
C42   C46   A    
C28   C29   A    
C14   C15   A    
O1    C2    A    
C20   C52   S    
O18   V4    S    
C31   C50   S    
O5    V1    S    
O8    C3    A    
N5    H22   S    
C15   H5    S    
C25   Cl3   S    
O7    V2    S    
O4    V1    S    
O3    V1    S    
V1    O10   S    
O15   V3    S    
C34   N6    S    
O12   V3    S    
O17   V4    S    
C18   C51   S    
C5    H2    S    
N6    H25   S    
O19   V4    S    
C42   C43   A    
C22   Cl2   S    
C38   C39   A    
N9    H31   S    
C39   N9    S    
O16   V4    S    
C36   C47   A    
C40   C41   A    
H11   C44   S    
V4    O20   S    
C30   C31   A    
C13   C14   A    
C8    C9    A    
C37   N8    S    
O11   V4    S    
C7    C8    A    
V2    O10   S    
C6    C17   A    
