data_mof_unit_62056.cif
_audit_creation_date              2012-12-10T17:44:20-0500
_audit_creation_method            fapswitch 2.2
_symmetry_space_group_name_H-M    P1
_symmetry_Int_Tables_number       1
_space_group_crystal_system       triclinic
_cell_length_a                    44.113987
_cell_length_b                    30.381656
_cell_length_c                    31.95885
_cell_angle_alpha                 90.042394
_cell_angle_beta                  136.447017
_cell_angle_gamma                 89.999166
_cell_volume                      29513.0210417

loop_
_atom_site_label
_atom_site_type_symbol
_atom_type_description
_atom_site_fract_x
_atom_site_fract_y
_atom_site_fract_z
_atom_type_partial_charge
Br1   Br    Br    0.000783 0.767177 0.591741 -0.477584
Br2   Br    Br    0.999390 0.767093 0.408301 -0.475133
Br3   Br    Br    0.499398 0.267171 0.590348 -0.480540
Br4   Br    Br    0.500782 0.267099 0.409687 -0.481157
C1    C     C_R   0.585084 0.000019 0.084851 0.822770
C2    C     C_3   0.536423 0.020520 0.800454 -0.210404
C3    C     C_R   0.037480 0.297313 0.524662 -0.165719
C4    C     C_R   0.462275 0.843136 0.449789 -0.178044
C5    C     C_R   0.537613 0.843191 0.550201 -0.178258
C6    C     C_R   0.962301 0.343158 0.474852 -0.178896
C7    C     C_R   0.037619 0.343174 0.525100 -0.179325
C8    C     C_R   0.499956 0.866435 0.499992 -0.028399
C9    C     C_R   0.999964 0.366436 0.499971 -0.027607
C10   C     C_R   0.499915 0.774133 0.499999 0.097480
C11   C     C_R   0.999953 0.274135 0.499993 0.098307
C12   C     C_R   0.013208 0.202619 0.477465 -0.163943
C13   C     C_3   0.963758 0.520860 0.199764 -0.209858
C14   C     C_R   0.986712 0.202639 0.522530 -0.163628
C15   C     C_R   0.513172 0.702654 0.549032 -0.162255
C16   C     C_R   0.486667 0.702597 0.450948 -0.162219
C17   C     C_R   0.012895 0.156758 0.477025 -0.180678
C18   C     C_R   0.987067 0.156775 0.523006 -0.177614
C19   C     C_R   0.512861 0.656790 0.548827 -0.177936
C20   C     C_R   0.487029 0.656735 0.451166 -0.177796
C21   C     C_R   0.999991 0.133503 0.500023 -0.031505
C22   C     C_R   0.499962 0.633501 0.500002 -0.031678
C23   C     C_3   0.534842 0.022915 0.270882 -0.217222
C24   C     C_3   0.035978 0.521268 0.800010 -0.209581
C25   C     C_3   0.463925 0.020787 0.727925 -0.217131
C26   C     C_3   0.036257 0.520624 0.272294 -0.215348
C27   C     C_3   0.963490 0.520020 0.727489 -0.215721
C28   C     C_R   0.999951 0.225797 0.499989 0.099259
C29   C     C_R   0.499910 0.725794 0.499989 0.098618
C30   C     C_R   0.460183 0.202719 0.460320 -0.079974
C31   C     C_R   0.539956 0.202747 0.539676 -0.079880
C32   C     C_R   0.960182 0.702718 0.459827 -0.079898
C33   C     C_R   0.039955 0.702748 0.540182 -0.078369
C34   C     C_R   0.460122 0.156850 0.460280 -0.161244
C35   C     C_3   0.497446 0.040648 0.261305 0.690204
C36   C     C_R   0.539981 0.156875 0.539730 -0.161701
C37   C     C_R   0.960122 0.656849 0.459794 -0.160746
C38   C     C_R   0.039980 0.656876 0.540224 -0.160537
C39   C     C_R   0.500041 0.133496 0.500010 -0.037549
C40   C     C_R   0.000041 0.633496 0.500013 -0.038179
C41   C     C_R   0.500078 0.225682 0.499996 0.171623
C42   C     C_R   0.000077 0.725681 0.500003 0.170298
C43   C     C_R   0.000385 0.797016 0.538420 0.252062
C44   C     C_R   0.999765 0.796982 0.461616 0.251840
C45   C     C_R   0.499772 0.297013 0.537801 0.251183
C46   C     C_3   0.500264 0.040660 0.736477 0.690922
C47   C     C_R   0.500384 0.296985 0.462229 0.251253
C48   C     C_R   0.000350 0.842915 0.538229 -0.203458
C49   C     C_R   0.999747 0.842884 0.461781 -0.200274
C50   C     C_R   0.499752 0.342912 0.537627 -0.202800
C51   C     C_R   0.500348 0.342886 0.462380 -0.202902
C52   C     C_R   0.000032 0.866205 0.499996 -0.143654
C53   C     C_R   0.500033 0.366205 0.499995 -0.143349
C54   C     C_R   0.000087 0.773845 0.500023 -0.065208
C55   C     C_R   0.500090 0.273846 0.500019 -0.064618
C56   C     C_1   0.499939 0.000013 0.125046 -0.149120
C57   C     C_3   0.000087 0.540736 0.263946 0.692276
C58   C     C_1   0.500059 0.999933 0.874952 -0.149136
C59   C     C_1   0.999944 0.500017 0.125051 -0.149148
C60   C     C_1   0.000056 0.499930 0.874949 -0.149192
C61   C     C_1   0.499934 0.999859 0.374832 -0.146815
C62   C     C_1   0.500067 0.999844 0.625169 -0.146820
C63   C     C_1   0.999934 0.499863 0.374832 -0.146881
C64   C     C_1   0.000066 0.499841 0.625168 -0.146887
C65   C     C_3   0.502450 0.958194 0.238245 -0.119757
C66   C     C_3   0.499896 0.958037 0.764026 -0.122311
C67   C     C_3   0.999757 0.458126 0.235551 -0.124885
C68   C     C_3   0.999406 0.540647 0.735619 0.692145
C69   C     C_3   0.000763 0.458037 0.764894 -0.124784
C70   C     C_3   0.499917 0.999992 0.208640 0.093357
C71   C     C_3   0.500080 0.999902 0.791357 0.093353
C72   C     C_3   0.999926 0.500003 0.208649 0.093344
C73   C     C_3   0.000074 0.499896 0.791350 0.093347
C74   C     C_3   0.465098 0.976681 0.228930 -0.233252
C75   C     C_3   0.536148 0.978661 0.772276 -0.236659
C76   C     C_3   0.963679 0.478988 0.227514 -0.235689
C77   C     C_3   0.036577 0.479413 0.772706 -0.235726
C78   C     C_1   0.499925 0.000018 0.162763 -0.015644
C79   C     C_1   0.500072 0.999922 0.837234 -0.015691
C80   C     C_1   0.999933 0.500026 0.162771 -0.015726
C81   C     C_R   0.414916 0.999941 0.915158 0.823020
C82   C     C_1   0.000066 0.499917 0.837229 -0.015766
C83   C     C_1   0.499930 0.999739 0.337097 0.011053
C84   C     C_1   0.500077 0.999708 0.662910 0.010975
C85   C     C_1   0.999925 0.499747 0.337093 0.010808
C86   C     C_1   0.000077 0.499703 0.662909 0.010808
C87   C     C_R   0.702875 0.035843 0.186633 -0.235584
C88   C     C_R   0.297112 0.964209 0.813417 -0.233151
C89   C     C_R   0.202876 0.535857 0.186653 -0.234457
C90   C     C_R   0.797161 0.535740 0.813461 -0.234603
C91   C     C_R   0.657032 0.036383 0.140891 0.620254
C92   C     C_R   0.085084 0.500019 0.084851 0.822775
C93   C     C_R   0.342952 0.963651 0.859153 0.618819
C94   C     C_R   0.157032 0.536396 0.140914 0.620231
C95   C     C_R   0.843003 0.536304 0.859197 0.620204
C96   C     C_R   0.633426 0.000099 0.132971 -0.152860
C97   C     C_R   0.366574 0.999914 0.867068 -0.152857
C98   C     C_R   0.133427 0.500099 0.132968 -0.152754
C99   C     C_R   0.866573 0.500018 0.867063 -0.152762
C100  C     C_R   0.656464 0.963571 0.171588 -0.263969
C101  C     C_R   0.343553 0.036449 0.828462 -0.261958
C102  C     C_R   0.156466 0.463559 0.171557 -0.264012
C103  C     C_R   0.914916 0.499991 0.915156 0.822787
C104  C     C_R   0.843501 0.463455 0.828407 -0.263992
C105  C     C_R   0.702303 0.963414 0.217796 -0.162427
C106  C     C_R   0.297711 0.036625 0.782255 -0.164102
C107  C     C_R   0.202305 0.463401 0.217763 -0.163317
C108  C     C_R   0.797659 0.463273 0.782200 -0.163132
C109  C     C_R   0.499961 0.999984 0.080148 0.814511
C110  C     C_R   0.500038 0.999957 0.919851 0.814408
C111  C     C_R   0.999962 0.499985 0.080149 0.814419
C112  C     C_R   0.000038 0.499957 0.919850 0.814410
C113  C     C_R   0.725759 0.999490 0.225449 0.007381
C114  C     C_3   0.499937 0.999537 0.291216 0.073145
C115  C     C_R   0.274241 0.000563 0.774601 0.007374
C116  C     C_R   0.225760 0.499491 0.225442 0.007598
C117  C     C_R   0.774240 0.499357 0.774597 0.007575
C118  C     C_R   0.797249 0.988257 0.333466 -0.158098
C119  C     C_R   0.202752 0.011773 0.666569 -0.157954
C120  C     C_R   0.297250 0.488214 0.333448 -0.157550
C121  C     C_R   0.702735 0.488085 0.666549 -0.157558
C122  C     C_R   0.843098 0.988732 0.379504 -0.181094
C123  C     C_R   0.156902 0.011243 0.620514 -0.182735
C124  C     C_R   0.343098 0.488689 0.379488 -0.179559
C125  C     C_3   0.500082 0.999483 0.708802 0.073322
C126  C     C_R   0.656886 0.488606 0.620496 -0.179543
C127  C     C_R   0.866402 0.999637 0.366330 -0.034596
C128  C     C_R   0.133597 0.000301 0.633676 -0.033950
C129  C     C_R   0.366404 0.499640 0.366330 -0.033922
C130  C     C_R   0.633596 0.499590 0.633677 -0.033914
C131  C     C_R   0.843163 0.010255 0.306499 -0.178504
C132  C     C_R   0.156835 0.989706 0.693513 -0.176819
C133  C     C_R   0.343167 0.510307 0.306512 -0.179963
C134  C     C_R   0.656848 0.510235 0.693531 -0.179981
C135  C     C_R   0.797333 0.010345 0.260661 -0.157894
C136  C     C_3   0.999920 0.499547 0.291199 0.073465
C137  C     C_R   0.202664 0.989674 0.739367 -0.157688
C138  C     C_R   0.297337 0.510395 0.260672 -0.158064
C139  C     C_R   0.702678 0.510278 0.739384 -0.158065
C140  C     C_R   0.774110 0.999259 0.273843 0.131801
C141  C     C_R   0.225890 0.000790 0.726197 0.131928
C142  C     C_R   0.274111 0.499262 0.273837 0.131948
C143  C     C_R   0.725888 0.499121 0.726195 0.131939
C144  C     C_R   0.499986 0.914758 0.499993 0.777226
C145  C     C_R   0.999986 0.414758 0.499987 0.776675
C146  C     C_R   0.499951 0.999938 0.419769 0.825911
C147  C     C_3   0.000084 0.499476 0.708804 0.073490
C148  C     C_R   0.500049 0.999939 0.580231 0.825970
C149  C     C_R   0.999952 0.499939 0.419769 0.825943
C150  C     C_R   0.000048 0.499938 0.580231 0.825970
C151  C     C_R   0.500014 0.085049 0.500008 0.804983
C152  C     C_R   0.000014 0.585049 0.500009 0.805504
C153  C     C_3   0.537284 0.981117 0.301152 -0.237163
C154  C     C_3   0.463830 0.978928 0.699928 -0.234917
C155  C     C_3   0.035997 0.478753 0.299862 -0.237547
C156  C     C_3   0.964268 0.478169 0.700366 -0.237398
C157  C     C_R   0.999999 0.085192 0.500011 0.791015
C158  C     C_3   0.462476 0.018468 0.198478 -0.212605
C159  C     C_R   0.499992 0.585191 0.500006 0.792076
C160  C     C_R   0.914720 0.999862 0.414706 0.795554
C161  C     C_R   0.085280 0.000039 0.585295 0.795663
C162  C     C_R   0.414720 0.499863 0.414706 0.795556
C163  C     C_R   0.585280 0.499854 0.585295 0.795533
C164  C     C_R   0.000006 0.914650 0.499993 0.837631
C165  C     C_R   0.500006 0.414650 0.499993 0.836473
C166  C     C_R   0.462389 0.797272 0.449609 -0.163775
C167  C     C_R   0.537459 0.797330 0.550388 -0.164064
C168  C     C_R   0.962430 0.297294 0.475315 -0.164678
Cu1   Cu    Cu3+1 0.500000 0.955920 0.000000 1.017617
Cu2   Cu    Cu3+1 0.000030 0.999960 0.458590 0.964793
Cu3   Cu    Cu3+1 0.499970 0.499960 0.541410 0.964599
Cu4   Cu    Cu3+1 0.500030 0.499960 0.458590 0.964572
Cu5   Cu    Cu3+1 0.000000 0.455920 0.000000 0.962238
Cu6   Cu    Cu3+1 0.500000 0.044010 0.000000 1.029050
Cu7   Cu    Cu3+1 0.000000 0.544010 0.000000 1.084318
Cu8   Cu    Cu3+1 0.544020 0.999870 0.544020 0.977519
Cu9   Cu    Cu3+1 0.455980 0.999870 0.455980 0.978425
Cu10  Cu    Cu3+1 0.044020 0.499870 0.544020 0.977824
Cu11  Cu    Cu3+1 0.955980 0.499870 0.455980 0.977975
Cu12  Cu    Cu3+1 0.999970 0.999960 0.541410 0.964036
F1    F     F_    0.494862 0.083248 0.273751 -0.641113
F2    F     F_    0.500454 0.083346 0.721713 -0.640278
F3    F     F_    0.000257 0.583415 0.279149 -0.638471
F4    F     F_    0.998706 0.583327 0.719964 -0.638688
F5    F     F_    0.635951 0.071984 0.103826 -0.647493
F6    F     F_    0.364015 0.928045 0.896213 -0.649442
F7    F     F_    0.135952 0.572011 0.103876 -0.646535
F8    F     F_    0.864116 0.571938 0.896305 -0.646640
H1    H     H_    0.563272 0.042287 0.287633 0.160279
H2    H     H_    0.220187 0.020143 0.655543 0.135624
H3    H     H_    0.279815 0.479826 0.344472 0.136260
H4    H     H_    0.720158 0.479681 0.655509 0.136286
H5    H     H_    0.860280 0.980279 0.425262 0.157025
H6    H     H_    0.139721 0.019684 0.574752 0.154521
H7    H     H_    0.360279 0.480198 0.425236 0.157109
H8    H     H_    0.639692 0.480126 0.574720 0.157123
H9    H     H_    0.860378 0.018855 0.295201 0.156920
H10   H     H_    0.139619 0.981082 0.704803 0.158364
H11   H     H_    0.360384 0.518945 0.295228 0.155747
H12   H     H_    0.434456 0.038484 0.710169 0.158868
H13   H     H_    0.639644 0.518894 0.704835 0.155699
H14   H     H_    0.779972 0.018632 0.214768 0.139806
H15   H     H_    0.220022 0.981399 0.785261 0.140230
H16   H     H_    0.279977 0.518719 0.214789 0.139496
H17   H     H_    0.720048 0.518594 0.785291 0.139466
H18   H     H_    0.433044 0.779814 0.410481 0.135855
H19   H     H_    0.566793 0.779918 0.589514 0.135622
H20   H     H_    0.933096 0.279851 0.455771 0.135229
H21   H     H_    0.066812 0.279887 0.544213 0.133856
H22   H     H_    0.432888 0.860342 0.410453 0.154544
H23   H     H_    0.065875 0.538121 0.290230 0.160650
H24   H     H_    0.567017 0.860441 0.589536 0.154386
H25   H     H_    0.932916 0.360381 0.455400 0.154016
H26   H     H_    0.067012 0.360407 0.544549 0.153468
H27   H     H_    0.023282 0.220044 0.459573 0.133041
H28   H     H_    0.976626 0.220081 0.540412 0.133616
H29   H     H_    0.523252 0.720111 0.587091 0.134085
H30   H     H_    0.476576 0.720008 0.412890 0.134295
H31   H     H_    0.023135 0.139516 0.459242 0.151484
H32   H     H_    0.976842 0.139544 0.540798 0.153038
H33   H     H_    0.523107 0.639573 0.587090 0.152290
H34   H     H_    0.933657 0.537097 0.709369 0.160411
H35   H     H_    0.476802 0.639475 0.412907 0.152444
H36   H     H_    0.429222 0.220358 0.429517 0.144711
H37   H     H_    0.570931 0.220408 0.570484 0.144771
H38   H     H_    0.929221 0.720356 0.428636 0.145093
H39   H     H_    0.070929 0.720410 0.571378 0.146512
H40   H     H_    0.567925 0.965652 0.343644 0.163040
H41   H     H_    0.434106 0.961726 0.658325 0.163161
H42   H     H_    0.065575 0.461339 0.341287 0.161498
H43   H     H_    0.934909 0.460350 0.659127 0.161628
H44   H     H_    0.428859 0.139741 0.429191 0.160073
H45   H     H_    0.719482 0.934933 0.247133 0.151460
H46   H     H_    0.571228 0.139785 0.570822 0.159972
H47   H     H_    0.928859 0.639739 0.428312 0.160331
H48   H     H_    0.071227 0.639786 0.571709 0.160895
H49   H     H_    0.000576 0.860277 0.568061 0.192251
H50   H     H_    0.999501 0.860223 0.431941 0.193076
H51   H     H_    0.499507 0.360272 0.566989 0.192467
H52   H     H_    0.500574 0.360228 0.433012 0.192385
H53   H     H_    0.431919 0.034215 0.156212 0.160977
H54   H     H_    0.566047 0.037998 0.841816 0.164123
H55   H     H_    0.934283 0.538549 0.158582 0.164520
H56   H     H_    0.280541 0.065107 0.752916 0.149664
H57   H     H_    0.065232 0.539361 0.841002 0.164677
H58   H     H_    0.436551 0.957578 0.212204 0.163718
H59   H     H_    0.565719 0.961240 0.789992 0.163150
H60   H     H_    0.933962 0.461768 0.209619 0.163504
H61   H     H_    0.066506 0.462614 0.790781 0.163413
H62   H     H_    0.504524 0.924013 0.228188 0.151076
H63   H     H_    0.499743 0.923787 0.775945 0.149893
H64   H     H_    0.999620 0.423881 0.223282 0.148022
H65   H     H_    0.001325 0.423791 0.777528 0.148092
H66   H     H_    0.720575 0.064036 0.192189 0.163727
H67   H     H_    0.219485 0.434909 0.247077 0.150809
H68   H     H_    0.279404 0.936025 0.807861 0.165286
H69   H     H_    0.220574 0.564061 0.192230 0.163970
H70   H     H_    0.779492 0.563941 0.807944 0.163857
H71   H     H_    0.639030 0.935310 0.166482 0.179393
H72   H     H_    0.361001 0.064695 0.833568 0.180317
H73   H     H_    0.139033 0.435287 0.166432 0.178839
H74   H     H_    0.860908 0.435191 0.833474 0.178841
H75   H     H_    0.780449 0.434770 0.752823 0.150909
H76   H     H_    0.779816 0.979906 0.344501 0.136230
O1    O     O_R   0.564270 0.962770 0.064270 -0.602586
O2    O     O_R   0.064310 0.999950 0.599310 -0.586533
O3    O     O_R   0.435690 0.499950 0.400690 -0.587854
O4    O     O_R   0.564310 0.499950 0.599310 -0.587843
O5    O     O_R   0.000020 0.935690 0.535010 -0.586550
O6    O     O_R   0.999980 0.935690 0.464990 -0.582986
O7    O     O_R   0.500020 0.435690 0.535010 -0.585150
O8    O     O_R   0.499980 0.435690 0.464990 -0.585182
O9    O     O_R   0.564210 0.037160 0.064210 -0.519562
O10   O     O_R   0.435790 0.037160 0.935790 -0.600613
O11   O     O_R   0.064210 0.537160 0.064210 -0.520430
O12   O     O_R   0.435730 0.962770 0.935730 -0.521205
O13   O     O_R   0.935790 0.537160 0.935790 -0.520423
O14   O     O_R   0.500000 0.962770 0.060460 -0.571481
O15   O     O_R   0.500000 0.962770 0.939540 -0.584314
O16   O     O_R   1.000000 0.462770 0.060460 -0.587977
O17   O     O_R   0.000000 0.462770 0.939540 -0.587988
O18   O     O_R   0.499940 0.037170 0.060400 -0.579125
O19   O     O_R   0.500060 0.037170 0.939600 -0.566287
O20   O     O_R   0.999940 0.537170 0.060400 -0.562604
O21   O     O_R   0.000060 0.537170 0.939600 -0.562607
O22   O     O_R   0.537150 0.935610 0.537150 -0.589082
O23   O     O_R   0.064270 0.462770 0.064270 -0.601641
O24   O     O_R   0.462850 0.935610 0.462850 -0.588982
O25   O     O_R   0.037150 0.435610 0.537150 -0.589460
O26   O     O_R   0.962850 0.435610 0.462850 -0.589176
O27   O     O_R   0.537160 0.999880 0.476700 -0.575429
O28   O     O_R   0.462840 0.999880 0.523300 -0.574954
O29   O     O_R   0.037160 0.499880 0.476700 -0.577357
O30   O     O_R   0.962840 0.499880 0.523300 -0.577263
O31   O     O_R   0.462760 0.999960 0.402300 -0.576457
O32   O     O_R   0.537240 0.999960 0.597700 -0.576935
O33   O     O_R   0.962760 0.499960 0.402300 -0.574561
O34   O     O_R   0.935730 0.462770 0.935730 -0.601604
O35   O     O_R   0.037240 0.499960 0.597700 -0.574643
O36   O     O_R   0.537180 0.064140 0.537190 -0.585366
O37   O     O_R   0.462820 0.064140 0.462810 -0.585174
O38   O     O_R   0.037180 0.564140 0.537190 -0.584891
O39   O     O_R   0.962820 0.564140 0.462810 -0.585115
O40   O     O_R   0.999920 0.064220 0.534910 -0.586347
O41   O     O_R   0.000080 0.064220 0.465090 -0.589666
O42   O     O_R   0.499920 0.564220 0.534910 -0.587511
O43   O     O_R   0.500080 0.564220 0.465090 -0.587508
O44   O     O_R   0.935700 0.999950 0.470690 -0.588343
O45   O     O_R   0.064300 0.999950 0.529310 -0.587505
O46   O     O_R   0.435700 0.499950 0.470690 -0.586218
O47   O     O_R   0.564300 0.499950 0.529310 -0.586233
O48   O     O_R   0.935690 0.999950 0.400690 -0.585895

loop_
_geom_bond_atom_site_label_1
_geom_bond_atom_site_label_2
_ccdc_geom_bond_type
C95   C99   A    
C58   C79   T    
C129  C133  A    
C92   C98   S    
C138  C142  A    
Cu9   O28   S    
C10   C166  A    
C10   C29   S    
C56   C109  S    
C2    C71   S    
C139  H17   S    
Cu3   O46   S    
C116  C142  S    
C69   C156  S    
Cu2   O41   S    
C148  O28   A    
C88   C115  A    
C58   C110  S    
C4    H22   S    
C134  C139  A    
C136  C155  S    
C69   H65   S    
C22   C159  S    
C96   C100  A    
C12   H27   S    
C33   C38   A    
C24   H57   S    
Cu11  O33   S    
C13   C57   S    
C26   H23   S    
C36   C39   A    
C161  O45   A    
C119  C141  A    
C88   C93   A    
C13   C72   S    
C64   C86   T    
C117  C143  S    
C89   C116  A    
C138  H16   S    
C53   C165  S    
C137  C141  A    
C59   C111  S    
C3    C11   A    
Cu10  O29   S    
C126  C130  A    
C38   C40   A    
C69   C77   S    
C19   H33   S    
C134  H13   S    
C61   C83   T    
C161  O2    A    
C11   C28   S    
C83   C114  S    
Cu2   Cu12  S    
C38   H48   S    
C94   C98   A    
C145  O26   A    
Cu10  O38   S    
Cu8   O22   S    
C15   C19   A    
C132  C137  A    
C135  H14   S    
C26   C72   S    
Cu6   O10   S    
Cu3   Cu4   S    
C1    C96   S    
C68   C147  S    
C65   C70   S    
C163  O4    A    
C104  H74   S    
C7    H26   S    
C43   C48   A    
C16   C29   A    
C90   H70   S    
C51   C53   A    
Cu8   O27   S    
C74   H58   S    
C155  H42   S    
C5    C167  A    
Cu10  O25   S    
C31   C41   A    
C123  H6    S    
C149  O29   A    
Cu12  O5    S    
C41   C55   S    
C102  H73   S    
C17   H31   S    
C66   C75   S    
C2    H54   S    
C25   C154  S    
C35   C114  S    
Cu8   O36   S    
C64   C150  S    
C59   C80   T    
C31   C36   A    
C124  H7    S    
C34   C39   A    
C154  H41   S    
C87   H66   S    
C77   C147  S    
C48   H49   S    
Cu1   O1    S    
C7    C9    A    
Cu5   O17   S    
Cu2   O6    S    
C120  C142  A    
C150  O35   A    
C11   C168  A    
C47   C51   A    
Cu3   O7    S    
C23   C153  S    
C26   C57   S    
C69   C73   S    
C99   C103  S    
Cu11  O26   S    
C77   H61   S    
C129  C162  S    
C75   C125  S    
C133  C138  A    
C12   C17   A    
C162  O3    A    
C14   H28   S    
C118  H76   S    
C131  H9    S    
C127  C160  S    
C74   C114  S    
C20   C22   A    
Cu3   O42   S    
C62   C84   T    
C95   F8    S    
Cu12  O40   S    
C36   H46   S    
Cu10  Cu11  S    
C151  O37   A    
C21   C157  S    
Cu5   Cu7   S    
C18   C21   A    
C65   C153  S    
Cu9   O24   S    
C32   C42   A    
Cu11  O30   S    
C164  O6    A    
C109  O14   A    
Cu1   O12   S    
C25   H12   S    
C42   C54   S    
C157  O40   A    
C52   C164  S    
C165  O8    A    
C84   C125  S    
C125  C154  S    
C65   H62   S    
C102  C107  A    
C26   C155  S    
C152  O39   A    
Cu5   O23   S    
Cu9   O31   S    
Br4   C47   S    
C40   C152  S    
C113  C140  S    
C128  C161  S    
C15   C29   A    
C70   C158  S    
C162  O46   A    
C18   H32   S    
C13   C76   S    
C159  O42   A    
C30   H36   S    
C62   C148  S    
C46   C125  S    
C119  C123  A    
C166  H18   S    
C128  C132  A    
C85   C136  S    
C144  O22   A    
C112  O17   A    
C2    C46   S    
C35   C158  S    
C24   C73   S    
C46   F2    S    
C49   C52   A    
C33   H39   S    
C17   C21   A    
C93   F6    S    
C14   C18   A    
Cu11  O39   S    
C10   C167  A    
C106  C115  A    
C57   C136  S    
C160  O44   A    
C44   C49   A    
C12   C28   A    
C146  O31   A    
C45   C55   A    
Cu12  O2    S    
C50   H51   S    
C158  H53   S    
C108  C117  A    
Cu1   Cu6   S    
Cu5   O34   S    
C5    C8    A    
C87   C91   A    
C149  O33   A    
C110  O15   A    
C150  O30   A    
Cu4   O47   S    
C76   H60   S    
C27   H34   S    
C66   C71   S    
Cu3   O4    S    
C6    H25   S    
C50   C53   A    
C60   C112  S    
C72   C80   S    
C105  C113  A    
Cu6   O18   S    
C146  O27   A    
C101  C106  A    
C34   H44   S    
C67   C72   S    
C13   H55   S    
C6    C168  A    
C144  O24   A    
C57   F3    S    
C145  O25   A    
C19   C22   A    
C60   C82   T    
C15   H29   S    
Cu4   O43   S    
C87   C113  A    
C27   C73   S    
C4    C8    A    
C20   H35   S    
C27   C156  S    
C120  C124  A    
C94   F7    S    
C32   C37   A    
C24   C68   S    
C70   C78   S    
C39   C151  S    
C107  H67   S    
C4    C166  A    
C121  C143  A    
C91   C96   A    
Br1   C43   S    
C133  H11   S    
Br2   C44   S    
C76   C136  S    
C152  O38   A    
C104  C108  A    
C66   C154  S    
Cu10  O35   S    
C139  C143  A    
C137  H15   S    
C109  O18   A    
Cu5   O16   S    
C111  O20   A    
C108  H75   S    
Cu1   O15   S    
Cu6   O19   S    
C37   C40   A    
C14   C28   A    
C159  O43   A    
Cu8   Cu9   S    
C37   H47   S    
C106  H56   S    
Cu7   O13   S    
C92   O11   A    
C75   H59   S    
C86   C147  S    
C66   H63   S    
C44   C54   A    
C115  C141  S    
C131  C135  A    
C1    O1    A    
C63   C149  S    
C163  O47   A    
Cu6   O9    S    
C71   C79   S    
C2    C75   S    
C101  H72   S    
Cu2   O45   S    
C148  O32   A    
C90   C117  A    
C81   O10   A    
C114  C153  S    
C33   C42   A    
C160  O48   A    
C112  O21   A    
C165  O7    A    
C92   O23   A    
C118  C140  A    
C132  H10   S    
Br3   C45   S    
C3    C7    A    
C122  C127  A    
C127  C131  A    
C100  C105  A    
C110  O19   A    
C45   C50   A    
Cu7   O20   S    
C63   C85   T    
C61   C146  S    
C123  C128  A    
C68   F4    S    
C56   C78   T    
C121  C126  A    
C16   C20   A    
C23   C35   S    
C156  H43   S    
Cu9   O37   S    
C151  O36   A    
Cu7   O21   S    
C99   C104  A    
C23   H1    S    
C100  H71   S    
C23   C70   S    
Cu7   O11   S    
C65   C74   S    
C103  O13   A    
C126  H8    S    
Cu4   O8    S    
C67   C76   S    
C88   H68   S    
C89   H69   S    
C25   C46   S    
C5    H24   S    
C97   C101  A    
C1    O9    A    
C49   H50   S    
Cu1   O14   S    
C121  H4    S    
C107  C116  A    
C31   H37   S    
C118  C122  A    
C103  O34   A    
C167  H19   S    
C135  C140  A    
Cu8   O32   S    
C81   O12   A    
C119  H2    S    
C30   C41   A    
C3    H21   S    
C164  O5    A    
C122  H5    S    
C27   C68   S    
C73   C82   S    
C74   C158  S    
C157  O41   A    
C47   C55   A    
C81   C97   S    
C24   C77   S    
C30   C34   A    
C168  H20   S    
C6    C9    A    
C130  C134  A    
C25   C71   S    
C105  H45   S    
C111  O16   A    
C67   C155  S    
C147  C156  S    
C8    C144  S    
C9    C145  S    
C124  C129  A    
C43   C54   A    
C51   H52   S    
C90   C95   A    
C120  H3    S    
C98   C102  A    
C67   H64   S    
C91   F5    S    
C35   F1    S    
Cu4   O3    S    
C32   H38   S    
C16   H30   S    
C130  C163  S    
Cu12  O44   S    
Cu2   O48   S    
C89   C94   A    
C93   C97   A    
C48   C52   A    
C153  H40   S    
