data_mof_unit_9243.cif
_audit_creation_date              2012-12-10T17:33:03-0500
_audit_creation_method            fapswitch 2.2
_symmetry_space_group_name_H-M    P1
_symmetry_Int_Tables_number       1
_space_group_crystal_system       triclinic
_cell_length_a                    12.354904
_cell_length_b                    13.272284
_cell_length_c                    14.280743
_cell_angle_alpha                 93.259858
_cell_angle_beta                  107.799729
_cell_angle_gamma                 117.01701
_cell_volume                      1932.70949058

loop_
_atom_site_label
_atom_site_type_symbol
_atom_type_description
_atom_site_fract_x
_atom_site_fract_y
_atom_site_fract_z
_atom_type_partial_charge
C1    C     C_R   0.651019 0.714077 0.508919 0.782116
C2    C     C_R   0.839114 0.487630 0.918328 -0.015841
C3    C     C_R   0.768925 0.472909 0.983203 0.123334
C4    C     C_R   0.945541 0.465571 0.944864 0.054011
C5    C     C_R   0.000237 0.457919 0.045227 0.072410
C6    C     C_R   0.932537 0.451096 0.110828 -0.219364
C7    C     C_R   0.816422 0.454690 0.078805 -0.207919
C8    C     C_R   0.992677 0.442844 0.872271 -0.223630
C9    C     C_R   0.101963 0.428689 0.900263 -0.245084
C10   C     C_R   0.168228 0.437949 0.001511 0.172041
C11   C     C_R   0.118602 0.453733 0.075199 0.085560
C12   C     C_R   0.617866 0.515944 0.686660 0.843427
C13   C     C_R   0.283873 0.431778 0.030051 -0.198057
C14   C     C_R   0.353259 0.444871 0.131496 -0.201683
C15   C     C_R   0.191810 0.469445 0.176958 -0.255999
C16   C     C_R   0.138952 0.966841 0.362950 -0.190194
C17   C     C_R   0.249253 0.162461 0.463684 -0.045353
C18   C     C_R   0.732654 0.920936 0.576623 -0.183919
C19   C     C_R   0.823943 0.037705 0.596671 -0.143935
C20   C     C_R   0.924480 0.072433 0.560202 -0.183399
C21   C     C_R   0.932980 0.990296 0.499130 0.081410
C22   C     C_R   0.830631 0.873075 0.468997 0.080697
C23   C     C_R   0.345351 0.285354 0.485120 0.794385
C24   C     C_R   0.038988 0.020803 0.466157 0.074050
C25   C     C_R   0.034841 0.937483 0.396102 0.166319
C26   C     C_R   0.925644 0.826719 0.358131 -0.240586
C27   C     C_R   0.824173 0.795361 0.392865 -0.204478
C28   C     C_R   0.149964 0.131610 0.501571 -0.254195
C29   C     C_R   0.245469 0.079285 0.396059 -0.193414
C30   C     C_R   0.736678 0.837368 0.515143 -0.101391
C31   C     C_R   0.254859 0.688277 0.658858 -0.296721
C32   C     C_R   0.654230 0.341522 0.364202 0.070348
C33   C     C_R   0.731729 0.307123 0.333793 -0.261217
C34   C     C_R   0.380149 0.481479 0.313154 0.792069
C35   C     C_R   0.867338 0.366903 0.384399 -0.194939
C36   C     C_R   0.927816 0.462908 0.466450 -0.006805
C37   C     C_R   0.844068 0.495625 0.494322 0.265881
C38   C     C_R   0.067619 0.527589 0.521852 -0.040098
C39   C     C_R   0.119787 0.623650 0.602757 0.156134
C40   C     C_R   0.037095 0.654918 0.627604 -0.253008
C41   C     C_R   0.902771 0.592251 0.574973 -0.113871
C42   C     C_R   0.159139 0.501796 0.501274 0.017862
C43   C     C_R   0.338948 0.658282 0.635021 0.069606
C44   C     C_R   0.674659 0.512307 0.792148 -0.071508
C45   C     C_R   0.308262 0.465298 0.205521 -0.048026
C46   C     C_R   0.651304 0.475555 0.951088 -0.206355
C47   C     C_R   0.601715 0.490145 0.854392 -0.282044
C48   C     C_R   0.799388 0.523486 0.828735 0.330505
Cu1   Cu    Cu3+1 0.416420 0.526630 0.522910 0.929267
Cu2   Cu    Cu3+1 0.583580 0.473370 0.477090 0.932989
H1    H     H_    0.764261 0.444261 0.129553 0.143398
H2    H     H_    0.321446 0.418228 0.974001 0.128890
H3    H     H_    0.321818 0.102319 0.365749 0.148116
H4    H     H_    0.918601 0.763828 0.301360 0.147457
H5    H     H_    0.136165 0.903743 0.309274 0.137020
H6    H     H_    0.161597 0.196782 0.558199 0.145875
H7    H     H_    0.660438 0.895816 0.611408 0.151995
H8    H     H_    0.991946 0.164509 0.579362 0.128266
H9    H     H_    0.819189 0.101559 0.643453 0.144778
H10   H     H_    0.739395 0.710278 0.357016 0.174248
H11   H     H_    0.443225 0.708184 0.678014 0.122065
H12   H     H_    0.162077 0.489301 0.235751 0.151932
H13   H     H_    0.076612 0.728524 0.689371 0.160440
H14   H     H_    0.295233 0.761766 0.720906 0.137802
H15   H     H_    0.128037 0.430488 0.440933 0.120503
H16   H     H_    0.549185 0.294321 0.324355 0.122130
H17   H     H_    0.922395 0.336432 0.357695 0.132895
H18   H     H_    0.686413 0.233652 0.270697 0.145954
H19   H     H_    0.848246 0.622207 0.601185 0.231454
H20   H     H_    0.442866 0.440730 0.152026 0.147748
H21   H     H_    0.136262 0.412850 0.842642 0.146536
H22   H     H_    0.595232 0.461739 0.999170 0.139520
H23   H     H_    0.506309 0.483793 0.828268 0.170793
H24   H     H_    0.962649 0.435795 0.185353 0.139588
H25   H     H_    0.943329 0.432217 0.792490 0.201342
N1    N     N_R   0.290690 0.566960 0.557640 -0.178440
N2    N     N_R   0.709100 0.433710 0.442970 -0.206485
O1    O     O_R   0.545970 0.684450 0.528810 -0.578045
O2    O     O_R   0.687130 0.639470 0.490120 -0.610950
O3    O     O_R   0.519670 0.535100 0.660030 -0.598974
O4    O     O_R   0.660830 0.490120 0.621340 -0.550361
O5    O     O_R   0.312870 0.360530 0.509880 -0.588745
O6    O     O_R   0.454030 0.315550 0.471190 -0.588720
O7    O     O_R   0.339170 0.509880 0.378660 -0.584660
O8    O     O_R   0.480330 0.464900 0.339970 -0.597973
O9    O     O_3   0.883745 0.579648 0.780720 -0.770722
H26   H     H_    0.974008 0.623561 0.832249 0.321946

loop_
_geom_bond_atom_site_label_1
_geom_bond_atom_site_label_2
_ccdc_geom_bond_type
C23   O5    A    
C17   C29   A    
C35   C36   A    
C4    C8    A    
Cu2   O2    S    
C28   H6    S    
C26   C27   A    
C17   C23   S    
C40   H13   S    
C31   C43   A    
Cu1   O7    S    
C32   H16   S    
C36   C37   A    
C5    C11   A    
C3    C7    A    
C27   H10   S    
C38   C39   A    
C16   C25   A    
Cu1   O1    S    
C18   C19   A    
Cu2   O8    S    
C32   N2    A    
C11   C15   A    
C19   C20   A    
C8    C9    A    
C42   H15   S    
C18   C30   A    
C9    C10   A    
C46   H22   S    
C44   C47   A    
C21   C22   A    
C1    O1    A    
C14   H20   S    
C34   O7    A    
C26   H4    S    
Cu2   O6    S    
C6    H24   S    
C14   C45   A    
C24   C28   A    
C24   C25   A    
C47   H23   S    
C39   C40   A    
O9    H26   S    
C2    C48   A    
C16   C29   A    
C37   N2    A    
C8    H25   S    
C34   O8    A    
Cu1   O5    S    
C2    C4    A    
C13   H2    S    
C18   H7    S    
C35   H17   S    
Cu1   N1    S    
C34   C45   S    
C23   O6    A    
C40   C41   A    
C22   C27   A    
C1    O2    A    
C48   O9    S    
C15   C45   A    
C20   H8    S    
Cu2   N2    S    
C43   H11   S    
C41   H19   S    
C43   N1    A    
C46   C47   A    
C22   C30   A    
C17   C28   A    
C31   H14   S    
C9    H21   S    
C4    C5    A    
C10   C13   A    
C38   C42   A    
C6    C7    A    
C3    C46   A    
C42   N1    A    
Cu1   O3    S    
C19   H9    S    
C32   C33   A    
C36   C38   A    
C2    C3    A    
C25   C26   A    
C16   H5    S    
C7    H1    S    
C12   C44   S    
C5    C6    A    
C29   H3    S    
C12   O3    A    
C1    C30   S    
C33   C35   A    
C15   H12   S    
C31   C39   A    
C12   O4    A    
C37   C41   A    
C10   C11   A    
C20   C21   A    
C33   H18   S    
Cu1   Cu2   S    
C21   C24   A    
C13   C14   A    
C44   C48   A    
Cu2   O4    S    
