data_mof_unit_44812.cif
_audit_creation_date              2012-12-10T18:28:22-0500
_audit_creation_method            fapswitch 2.2
_symmetry_space_group_name_H-M    P1
_symmetry_Int_Tables_number       1
_space_group_crystal_system       triclinic
_cell_length_a                    23.48498
_cell_length_b                    20.268217
_cell_length_c                    14.9474
_cell_angle_alpha                 89.83074
_cell_angle_beta                  99.247097
_cell_angle_gamma                 89.975208
_cell_volume                      7022.44675565

loop_
_atom_site_label
_atom_site_type_symbol
_atom_type_description
_atom_site_fract_x
_atom_site_fract_y
_atom_site_fract_z
_atom_type_partial_charge
C1    C     C_R   0.574349 0.088690 0.553159 0.883853
C2    C     C_R   0.423718 0.913774 0.445302 0.882845
C3    C     C_R   0.424084 0.086763 0.445385 0.895268
C4    C     C_R   0.574236 0.911203 0.553203 0.879418
C5    C     C_R   0.074350 0.588690 0.553158 0.883806
C6    C     C_R   0.923716 0.413777 0.445300 0.882945
C7    C     C_R   0.924084 0.586764 0.445385 0.895281
C8    C     C_R   0.074236 0.411203 0.553203 0.879420
C9    C     C_R   0.199035 0.173059 0.618764 -0.203888
C10   C     C_R   0.742361 0.763487 0.320161 -0.207194
C11   C     C_R   0.727539 0.259690 0.313723 -0.206837
C12   C     C_R   0.211897 0.815917 0.639100 -0.203185
C13   C     C_R   0.699033 0.673060 0.618751 -0.203891
C14   C     C_R   0.242345 0.263464 0.320151 -0.207200
C15   C     C_R   0.227589 0.759607 0.313708 -0.206836
C16   C     C_R   0.711998 0.315821 0.639220 -0.203208
C17   C     C_R   0.627955 0.998132 0.203165 -0.329857
C18   C     C_R   0.372441 0.991207 0.797071 -0.321916
C19   C     C_R   0.127955 0.498125 0.203165 -0.329854
C20   C     C_R   0.872441 0.491206 0.797071 -0.321948
C21   C     C_R   0.606793 0.002194 0.284158 0.010578
C22   C     C_R   0.393216 0.997632 0.715956 0.022076
C23   C     C_R   0.106793 0.502188 0.284158 0.010603
C24   C     C_R   0.893216 0.497631 0.715956 0.022053
C25   C     C_R   0.510239 0.993188 0.208439 -0.044753
C26   C     C_R   0.490143 0.996440 0.791668 -0.013913
C27   C     C_R   0.010239 0.493195 0.208438 -0.044923
C28   C     C_R   0.990143 0.496441 0.791668 -0.013873
C29   C     C_R   0.528680 0.989266 0.123966 -0.018576
C30   C     C_R   0.472078 0.989811 0.876200 -0.016111
C31   C     C_R   0.028680 0.489268 0.123966 -0.018620
C32   C     C_R   0.972077 0.489811 0.876200 -0.016094
C33   C     C_R   0.588969 0.992097 0.122561 0.191749
C34   C     C_R   0.411779 0.987238 0.877653 0.186900
C35   C     C_R   0.088969 0.492093 0.122561 0.191796
C36   C     C_R   0.911779 0.487238 0.877653 0.186901
C37   C     C_R   0.489548 0.984758 0.041712 0.079199
C38   C     C_R   0.511465 0.986948 0.958409 0.091093
C39   C     C_R   0.989547 0.484760 0.041712 0.079143
C40   C     C_R   0.011464 0.486947 0.958409 0.091151
C41   C     C_R   0.571901 0.987038 0.960112 -0.274758
C42   C     C_R   0.429312 0.979164 0.040024 -0.255395
C43   C     C_R   0.071901 0.487032 0.960112 -0.274722
C44   C     C_R   0.929311 0.479167 0.040024 -0.255636
C45   C     C_R   0.609813 0.989369 0.040927 -0.212542
C46   C     C_R   0.391260 0.980560 0.959243 -0.208626
C47   C     C_R   0.109813 0.489362 0.040927 -0.212554
C48   C     C_R   0.891259 0.480560 0.959243 -0.208594
C49   C     C_R   0.610211 0.853035 0.579892 -0.177749
C50   C     C_R   0.376789 0.131272 0.408340 -0.166585
C51   C     C_R   0.374861 0.871657 0.408134 -0.172366
C52   C     C_R   0.611154 0.146010 0.580771 -0.176922
C53   C     C_R   0.110210 0.353033 0.579891 -0.177737
C54   C     C_R   0.876792 0.631276 0.408340 -0.166574
C55   C     C_R   0.874857 0.371667 0.408127 -0.172301
C56   C     C_R   0.111145 0.646023 0.580750 -0.176976
C57   C     C_R   0.633621 0.752805 0.667413 -0.306555
C58   C     C_R   0.327779 0.205547 0.293582 -0.310006
C59   C     C_R   0.313647 0.815982 0.284874 -0.304256
C60   C     C_R   0.645833 0.235192 0.683319 -0.304215
C61   C     C_R   0.133624 0.252807 0.667423 -0.306552
C62   C     C_R   0.827791 0.705561 0.293587 -0.310003
C63   C     C_R   0.813567 0.316107 0.284841 -0.304333
C64   C     C_R   0.145783 0.735248 0.683248 -0.304159
C65   C     C_R   0.603913 0.812998 0.655183 0.541088
C66   C     C_R   0.373332 0.161926 0.322605 0.541086
C67   C     C_R   0.363624 0.852140 0.316255 0.533726
C68   C     C_R   0.613228 0.177505 0.665482 0.546637
C69   C     C_R   0.103916 0.313000 0.655189 0.541101
C70   C     C_R   0.873340 0.661935 0.322607 0.541087
C71   C     C_R   0.863555 0.352256 0.316208 0.533824
C72   C     C_R   0.113212 0.677535 0.665447 0.546644
C73   C     C_R   0.647314 0.833494 0.521085 -0.345772
C74   C     C_R   0.332827 0.140684 0.459616 -0.344739
C75   C     C_R   0.336162 0.854857 0.465990 -0.343173
C76   C     C_R   0.641984 0.172298 0.516745 -0.337228
C77   C     C_R   0.147308 0.333486 0.521078 -0.345748
C78   C     C_R   0.832830 0.640690 0.459613 -0.344738
C79   C     C_R   0.836212 0.354783 0.466029 -0.343249
C80   C     C_R   0.141968 0.672310 0.516712 -0.337166
C81   C     C_R   0.673748 0.771773 0.528758 0.096675
C82   C     C_R   0.286189 0.182199 0.429964 0.095279
C83   C     C_R   0.285085 0.821477 0.434643 0.093512
C84   C     C_R   0.672939 0.230857 0.532505 0.095749
C85   C     C_R   0.173742 0.271765 0.528758 0.096680
C86   C     C_R   0.786196 0.682210 0.429963 0.095283
C87   C     C_R   0.785113 0.321449 0.434691 0.093515
C88   C     C_R   0.172901 0.730888 0.532442 0.095741
C89   C     C_R   0.668782 0.732332 0.605313 0.099980
C90   C     C_R   0.285055 0.216645 0.347127 0.104588
C91   C     C_R   0.275238 0.799168 0.343875 0.100566
C92   C     C_R   0.676721 0.260958 0.618547 0.100197
C93   C     C_R   0.168782 0.232330 0.605321 0.099982
C94   C     C_R   0.785067 0.716661 0.347132 0.104589
C95   C     C_R   0.775206 0.299224 0.343887 0.100622
C96   C     C_R   0.176656 0.761020 0.618460 0.100149
C97   C     C_R   0.706857 0.749747 0.463648 0.088631
C98   C     C_R   0.243503 0.194692 0.484720 0.089486
C99   C     C_R   0.245443 0.806237 0.493447 0.089582
C100  C     C_R   0.703121 0.257791 0.466410 0.086608
C101  C     C_R   0.206848 0.249733 0.463646 0.088631
C102  C     C_R   0.743508 0.694702 0.484717 0.089485
C103  C     C_R   0.745498 0.306184 0.493528 0.089576
C104  C     C_R   0.203093 0.757808 0.466347 0.086618
C105  C     C_R   0.236802 0.154956 0.560445 -0.226308
C106  C     C_R   0.704340 0.780790 0.378143 -0.233957
C107  C     C_R   0.692661 0.237835 0.374506 -0.227211
C108  C     C_R   0.246890 0.837473 0.578393 -0.227594
C109  C     C_R   0.736802 0.654960 0.560434 -0.226307
C110  C     C_R   0.204324 0.280768 0.378135 -0.233943
C111  C     C_R   0.192678 0.737794 0.374466 -0.227200
C112  C     C_R   0.746991 0.337378 0.578513 -0.227609
H1    H     H_    0.194843 0.141535 0.676050 0.144211
H2    H     H_    0.739905 0.788962 0.255773 0.144861
H3    H     H_    0.718524 0.243396 0.243873 0.147168
H4    H     H_    0.214231 0.840607 0.703821 0.143794
H5    H     H_    0.694837 0.641531 0.676031 0.144216
H6    H     H_    0.239884 0.288934 0.255758 0.144860
H7    H     H_    0.218617 0.743255 0.243880 0.147170
H8    H     H_    0.714357 0.340485 0.703964 0.143794
H9    H     H_    0.591769 0.985344 0.900180 0.122411
H10   H     H_    0.409794 0.973437 0.099958 0.165908
H11   H     H_    0.091768 0.485334 0.900180 0.122388
H12   H     H_    0.909793 0.473441 0.099958 0.166042
H13   H     H_    0.337099 0.117616 0.525361 0.183635
H14   H     H_    0.655356 0.867562 0.468982 0.180744
H15   H     H_    0.642813 0.145334 0.454945 0.184297
H16   H     H_    0.347216 0.866668 0.536917 0.189038
H17   H     H_    0.837099 0.617619 0.525356 0.183635
H18   H     H_    0.155346 0.367548 0.468967 0.180741
H19   H     H_    0.142809 0.645329 0.454929 0.184292
H20   H     H_    0.847319 0.366504 0.536977 0.189069
H21   H     H_    0.628255 0.721596 0.724482 0.154115
H22   H     H_    0.326954 0.232502 0.230646 0.151586
H23   H     H_    0.305059 0.801000 0.214432 0.152880
H24   H     H_    0.647118 0.259591 0.748057 0.154753
H25   H     H_    0.128261 0.221603 0.724498 0.154110
H26   H     H_    0.826970 0.732520 0.230656 0.151587
H27   H     H_    0.804919 0.301213 0.214366 0.152811
H28   H     H_    0.147062 0.759654 0.747981 0.154815
H29   H     H_    0.259037 0.108557 0.574655 0.139890
H30   H     H_    0.672470 0.817752 0.353611 0.150031
H31   H     H_    0.656715 0.206781 0.347330 0.155800
H32   H     H_    0.273671 0.879898 0.598461 0.141028
H33   H     H_    0.759035 0.608560 0.574639 0.139902
H34   H     H_    0.172450 0.317725 0.353599 0.150040
H35   H     H_    0.156749 0.706717 0.347288 0.155786
H36   H     H_    0.773802 0.379776 0.598603 0.141071
H37   H     H_    0.655810 0.990317 0.039347 0.139077
H38   H     H_    0.345347 0.977153 0.960789 0.144739
H39   H     H_    0.155810 0.490306 0.039347 0.139074
H40   H     H_    0.845347 0.477153 0.960789 0.144751
H41   H     H_    0.534561 0.998563 0.782594 0.125599
H42   H     H_    0.465795 0.991625 0.217411 0.155007
H43   H     H_    0.034561 0.498565 0.782595 0.125588
H44   H     H_    0.965794 0.491639 0.217409 0.155121
H45   H     H_    0.363611 0.999560 0.652565 0.121922
H46   H     H_    0.636156 0.006417 0.347512 0.132046
H47   H     H_    0.863611 0.499558 0.652565 0.121957
H48   H     H_    0.136156 0.506407 0.347513 0.132031
H49   H     H_    0.674106 0.999994 0.203433 0.143303
H50   H     H_    0.326302 0.989013 0.796830 0.138454
H51   H     H_    0.174106 0.499983 0.203433 0.143295
H52   H     H_    0.826302 0.489011 0.796829 0.138460
N1    N     N_R   0.549130 0.000000 0.284090 -0.097348
N2    N     N_R   0.450870 0.000000 0.715910 -0.092406
N3    N     N_R   0.049130 0.500000 0.284090 -0.097325
N4    N     N_R   0.950870 0.500000 0.715910 -0.092416
O1    O     O_R   0.541320 0.066090 0.608930 -0.564865
O2    O     O_R   0.458680 0.933910 0.391070 -0.573627
O3    O     O_R   0.458680 0.066090 0.391070 -0.563231
O4    O     O_R   0.541320 0.933910 0.608930 -0.569098
O5    O     O_R   0.041320 0.566090 0.608930 -0.564895
O6    O     O_R   0.958680 0.433910 0.391070 -0.573593
O7    O     O_R   0.958680 0.566090 0.391070 -0.563207
O8    O     O_R   0.041320 0.433910 0.608930 -0.569105
O9    O     O_R   0.572880 0.066110 0.470280 -0.628190
O10   O     O_R   0.427120 0.933890 0.529720 -0.624942
O11   O     O_R   0.427120 0.066110 0.529720 -0.627801
O12   O     O_R   0.572880 0.933890 0.470280 -0.631406
O13   O     O_R   0.072880 0.566110 0.470280 -0.628183
O14   O     O_R   0.927120 0.433890 0.529720 -0.624967
O15   O     O_R   0.927120 0.566110 0.529720 -0.627805
O16   O     O_R   0.072880 0.433890 0.470280 -0.631402
Zn1   Zn    Zn3+2 0.478910 0.000000 0.592580 0.981233
Zn2   Zn    Zn3+2 0.521090 0.000000 0.407420 0.968382
Zn3   Zn    Zn3+2 0.978910 0.500000 0.592580 0.981216
Zn4   Zn    Zn3+2 0.021090 0.500000 0.407420 0.968421
O17   O     O_3   0.417468 0.154943 0.272095 -0.585707
C113  C     C_3   0.396700 0.119908 0.192066 -0.292292
H53   H     H_    0.364614 0.149315 0.145554 0.152587
H54   H     H_    0.377967 0.071471 0.207365 0.152139
H55   H     H_    0.433443 0.109940 0.155810 0.195506
O18   O     O_3   0.564853 0.829141 0.711626 -0.583815
C114  C     C_3   0.595462 0.853697 0.793594 -0.309960
H56   H     H_    0.620329 0.898789 0.781770 0.143258
H57   H     H_    0.624568 0.815651 0.830184 0.153139
H58   H     H_    0.563919 0.867549 0.838111 0.198654
O19   O     O_3   0.580291 0.155252 0.728182 -0.579758
C115  C     C_3   0.616501 0.121433 0.797815 -0.324419
H59   H     H_    0.635730 0.076875 0.771041 0.145547
H60   H     H_    0.590066 0.104826 0.848737 0.198366
H61   H     H_    0.650966 0.153979 0.833482 0.154518
O20   O     O_3   0.398711 0.872301 0.255447 -0.613615
C116  C     C_3   0.435475 0.819673 0.241379 -0.303978
H62   H     H_    0.462244 0.803518 0.306098 0.164620
H63   H     H_    0.465332 0.836956 0.195785 0.193259
H64   H     H_    0.410652 0.777324 0.207767 0.154777
O21   O     O_3   0.917477 0.654949 0.272100 -0.585713
C117  C     C_3   0.896707 0.619923 0.192064 -0.292250
H65   H     H_    0.864626 0.649338 0.145554 0.152581
H66   H     H_    0.877968 0.571488 0.207353 0.152209
H67   H     H_    0.933451 0.609953 0.155810 0.195516
O22   O     O_3   0.064858 0.329148 0.711633 -0.583815
C118  C     C_3   0.095469 0.353703 0.793600 -0.310012
H68   H     H_    0.120335 0.398795 0.781774 0.143255
H69   H     H_    0.124576 0.315658 0.830189 0.153142
H70   H     H_    0.063928 0.367554 0.838120 0.198649
O23   O     O_3   0.080322 0.655256 0.728192 -0.579759
C119  C     C_3   0.116568 0.621356 0.797699 -0.324441
H71   H     H_    0.135697 0.576778 0.770807 0.145585
H72   H     H_    0.090190 0.604773 0.848709 0.198350
H73   H     H_    0.151114 0.653834 0.833293 0.154501
O24   O     O_3   0.898566 0.372552 0.255358 -0.613691
C120  C     C_3   0.935227 0.319933 0.240847 -0.304316
H74   H     H_    0.962051 0.303552 0.305404 0.164692
H75   H     H_    0.965038 0.337330 0.195247 0.193266
H76   H     H_    0.910313 0.277714 0.207043 0.154832

loop_
_geom_bond_atom_site_label_1
_geom_bond_atom_site_label_2
_ccdc_geom_bond_type
C87   C103  A    
C78   C86   A    
C54   C70   A    
C88   C96   A    
C113  H53   S    
C114  H57   S    
C63   C95   A    
N2    Zn1   S    
C33   C45   A    
C21   H46   S    
C5    C56   S    
C53   C77   A    
C108  H32   S    
C6    C55   S    
C64   C72   A    
C53   C69   A    
O24   C120  S    
C76   C84   A    
C119  H72   S    
C24   H47   S    
C116  H62   S    
C58   H22   S    
C99   C108  A    
C62   C70   A    
C98   C105  A    
C57   C89   A    
C6    O14   A    
C68   O19   S    
C32   C36   A    
C24   N4    A    
C78   H17   S    
C51   C75   A    
C102  C109  A    
C111  H35   S    
C50   C74   A    
C105  H29   S    
C54   C78   A    
C61   C93   A    
C74   H13   S    
C10   C94   A    
C9    C105  A    
C73   H14   S    
C20   H52   S    
C66   O17   S    
C29   C33   A    
C120  H76   S    
C21   N1    A    
C30   C38   A    
C75   H16   S    
C42   C46   A    
C41   H9    S    
C37   C42   A    
C3    O11   A    
C14   C90   A    
C13   C109  A    
C67   O20   S    
C86   C94   A    
C113  H55   S    
C59   C67   A    
O7    Zn4   S    
C49   C65   A    
O10   Zn1   S    
C85   C93   A    
O13   Zn4   S    
C40   C43   A    
O5    Zn3   S    
C20   C24   A    
C15   H7    S    
C115  H59   S    
C56   C72   A    
C87   C95   A    
C28   H43   S    
C36   C48   A    
C70   O21   S    
C34   C46   A    
C11   H3    S    
C60   H24   S    
C45   H37   S    
C97   C102  A    
C10   H2    S    
C77   H18   S    
C114  H58   S    
C81   C89   A    
C8    O16   A    
C116  H63   S    
C99   C104  A    
C77   C85   A    
O19   C115  S    
C80   H19   S    
C83   C99   A    
C79   C87   A    
C82   C98   A    
C57   H21   S    
C1    O9    A    
C74   C82   A    
C58   C90   A    
C73   C81   A    
C119  H71   S    
C88   C104  A    
C3    C50   S    
C58   C66   A    
C106  H30   S    
C60   C92   A    
C25   C29   A    
C30   C34   A    
C27   C31   A    
C84   C100  A    
C75   C83   A    
C15   C111  A    
C28   C32   A    
C64   C96   A    
C38   C41   A    
C118  H70   S    
O23   C119  S    
C12   C108  A    
C28   N4    A    
O22   C118  S    
C51   C67   A    
C6    O6    A    
C25   N1    A    
C101  C110  A    
C44   H12   S    
C100  C103  A    
C17   C21   A    
O9    Zn2   S    
O16   Zn4   S    
C7    O7    A    
C103  C112  A    
C22   N2    A    
C19   C23   A    
C118  H68   S    
C37   C38   A    
O15   Zn3   S    
C55   C79   A    
C5    O13   A    
C16   C112  A    
O4    Zn1   S    
C23   H48   S    
O2    Zn2   S    
C8    O8    A    
O21   C117  S    
C17   C33   A    
C19   H51   S    
C62   H26   S    
C84   C92   A    
C18   C34   A    
C17   H49   S    
C2    O2    A    
C23   N3    A    
C97   C106  A    
O6    Zn4   S    
C46   H38   S    
C63   C71   A    
C16   C92   A    
C117  H66   S    
C3    O3    A    
C48   H40   S    
C11   C107  A    
C49   C73   A    
C10   C106  A    
C43   H11   S    
C107  H31   S    
C86   C102  A    
C9    C93   A    
C39   C40   A    
C85   C101  A    
C42   H10   S    
O8    Zn3   S    
C14   H6    S    
C65   O18   S    
C59   C91   A    
C116  H64   S    
C61   C69   A    
C27   H44   S    
C14   C110  A    
C72   O23   S    
C26   N2    A    
C100  C107  A    
C113  H54   S    
C71   O24   S    
C4    O4    A    
O3    Zn2   S    
C13   C89   A    
C25   H42   S    
C18   C22   A    
C5    O5    A    
C64   H28   S    
C59   H23   S    
C109  H33   S    
C69   O22   S    
C57   C65   A    
C52   C76   A    
C52   C68   A    
C8    C53   S    
C104  C111  A    
C13   H5    S    
C50   C66   A    
C26   C30   A    
C39   C44   A    
O11   Zn1   S    
C22   H45   S    
C63   H27   S    
C117  H67   S    
C83   C91   A    
N1    Zn2   S    
C82   C90   A    
C98   C101  A    
C7    O15   A    
C4    C49   S    
O12   Zn2   S    
C9    H1    S    
C62   C94   A    
C56   C80   A    
C4    O12   A    
O1    Zn1   S    
C80   C88   A    
C19   C35   A    
C18   H50   S    
C61   H25   S    
C81   C97   A    
C115  H61   S    
C79   H20   S    
C1    O1    A    
C120  H75   S    
N3    Zn4   S    
C31   C39   A    
O18   C114  S    
C31   C35   A    
O14   Zn3   S    
C32   C40   A    
O17   C113  S    
C1    C52   S    
C118  H69   S    
C2    C51   S    
C47   H39   S    
C15   C91   A    
C114  H56   S    
C20   C36   A    
C112  H36   S    
C11   C95   A    
O20   C116  S    
C60   C68   A    
C115  H60   S    
C117  H65   S    
C29   C37   A    
N4    Zn3   S    
C76   H15   S    
C41   C45   A    
C12   C96   A    
C26   H41   S    
C2    O10   A    
C7    C54   S    
C12   H4    S    
C35   C47   A    
C110  H34   S    
C16   H8    S    
C43   C47   A    
C119  H73   S    
C55   C71   A    
C44   C48   A    
C27   N3    A    
C120  H74   S    
