data_mof_unit_56368.cif
_audit_creation_date              2013-03-05T16:30:50-0500
_audit_creation_method            fapswitch 2.2
_symmetry_space_group_name_H-M    P1
_symmetry_Int_Tables_number       1
_space_group_crystal_system       triclinic
_cell_length_a                    11.05313
_cell_length_b                    10.871547
_cell_length_c                    9.54834
_cell_angle_alpha                 90.064956
_cell_angle_beta                  102.379422
_cell_angle_gamma                 90.325493
_cell_volume                      1120.67416385

loop_
_atom_site_label
_atom_site_type_symbol
_atom_site_description
_atom_site_fract_x
_atom_site_fract_y
_atom_site_fract_z
_atom_type_partial_charge
O1    O     O_R   0.500000 0.319640 0.618810 -0.589365
O2    O     O_R   0.500010 0.319680 0.381230 -0.545735
C1    C     C_R   0.505199 0.262742 0.500630 0.830684
O3    O     O_R   0.320680 0.500000 0.575130 -0.588012
O4    O     O_R   0.320690 0.500040 0.337550 -0.588935
C2    C     C_R   0.262898 0.498669 0.442180 0.850250
Cu1   Cu    Cu3+1 0.499990 0.499980 0.640670 0.955714
Cu2   Cu    Cu3+1 0.500010 0.500020 0.359330 1.006331
O5    O     O_R   0.499990 0.680320 0.618770 -0.583068
O6    O     O_R   0.500000 0.680360 0.381190 -0.575343
O7    O     O_R   0.679310 0.499960 0.662450 -0.590782
O8    O     O_R   0.679320 0.500000 0.424870 -0.564993
C3    C     C_R   0.500334 0.737205 0.500122 0.849483
C4    C     C_R   0.737119 0.498892 0.558112 0.888074
H1    H     H_    0.885046 0.467309 0.377561 0.178434
H2    H     H_    0.117453 0.496510 0.628942 0.176815
C5    C     C_2   0.128208 0.493008 0.410442 -0.317986
C6    C     C_2   0.067870 0.491042 0.517620 -0.147506
H3    H     H_    0.921047 0.511734 0.702168 0.141111
C7    C     C_2   0.871934 0.498226 0.591681 -0.323210
C8    C     C_2   0.933632 0.483551 0.487216 -0.077635
H4    H     H_    0.078132 0.489167 0.299277 0.154607
C9    C     C_R   0.501084 0.062509 0.619053 0.050324
C10   C     C_R   0.514708 0.129948 0.499907 -0.221251
C11   C     C_R   0.532051 0.062407 0.377448 0.331222
C12   C     C_R   0.523685 0.933341 0.377865 -0.202918
H5    H     H_    0.532700 0.883320 0.282860 0.236980
C13   C     C_R   0.506006 0.869583 0.500136 -0.164026
C14   C     C_R   0.497864 0.938684 0.619556 0.092263
C15   C     C_3   0.470694 0.931205 0.765449 -0.382804
C16   C     C_3   0.473809 0.072851 0.764865 -0.353251
H6    H     H_    0.377192 0.892211 0.763684 0.196047
H7    H     H_    0.547932 0.889364 0.844560 0.233775
H8    H     H_    0.382022 0.115017 0.762582 0.188340
H9    H     H_    0.552681 0.113260 0.843925 0.241794
C17   C     C_R   0.562425 0.589718 0.089078 0.194368
N1    N     N_R   0.500780 0.500930 0.148120 -0.214019
C18   C     C_R   0.429353 0.418904 0.056792 -0.005385
H10   H     H_    0.374083 0.351612 0.098799 0.155878
C19   C     C_R   0.429105 0.419107 0.907906 -0.057745
H11   H     H_    0.373446 0.352123 0.838234 0.136291
N2    N     N_R   0.500790 0.500890 0.852210 -0.186974
C20   C     C_R   0.563167 0.588729 0.941548 0.204208
C21   C     C_3   0.698799 0.613155 0.966751 -0.534110
C22   C     C_3   0.699017 0.613964 0.125862 0.119610
H12   H     H_    0.751031 0.534262 0.935741 0.195502
H13   H     H_    0.719824 0.703074 0.921789 0.227059
H14   H     H_    0.752463 0.537295 0.185018 0.119957
N3    N     N_R   0.729818 0.734286 0.193381 0.146317
O9    O     O_R   0.685337 0.834932 0.128965 -0.361090
O10   O     O_R   0.805755 0.741437 0.317680 -0.351108
N4    N     N_R   0.561205 0.121135 0.254163 0.147666
O11   O     O_R   0.660171 0.189534 0.268779 -0.340367
O12   O     O_R   0.504643 0.086710 0.126186 -0.381487

loop_
_geom_bond_atom_site_label_1
_geom_bond_atom_site_label_2
_geom_bond_distance
_ccdc_geom_bond_type
O4    Cu2   1.948083 S    
C15   H6    1.111593 S    
C9    C10   1.388723 A    
Cu1   N2    2.017990 S    
C3    C13   1.440160 S    
C14   C15   1.488862 S    
Cu2   O8    1.946255 S    
C6    C8    1.451311 S    
C12   C13   1.407043 A    
H3    C7    1.087378 S    
C21   H13   1.111345 S    
C22   N3    1.463402 S    
C20   C21   1.488798 S    
C19   N2    1.369258 A    
C5    C6    1.336068 D    
C1    C10   1.448205 S    
C11   N4    1.434994 S    
C17   C22   1.496708 S    
H2    C6    1.087864 S    
N4    O11   1.301573 A    
Cu1   O7    1.948085 S    
C13   C14   1.384000 A    
C12   H5    1.080193 S    
C18   H10   1.081638 S    
H1    C8    1.083161 S    
O3    Cu1   1.946254 S    
O4    C2    1.296114 A    
C9    C14   1.346483 A    
O3    C2    1.293000 A    
C19   H11   1.081517 S    
C18   C19   1.421035 A    
N1    C18   1.368934 A    
O8    C4    1.295577 A    
O2    C1    1.288479 A    
C15   C16   1.540147 S    
O7    C4    1.293806 A    
C16   H9    1.111567 S    
C10   C11   1.427894 A    
C16   H8    1.111620 S    
N2    C20   1.361416 A    
C4    C7    1.455548 S    
Cu1   Cu2   2.686379 S    
C7    C8    1.333418 D    
Cu2   O6    1.971423 S    
N3    O9    1.302014 A    
Cu2   N1    2.018581 S    
C22   H14   1.107416 S    
Cu1   O5    1.971931 S    
C2    C5    1.455148 S    
O5    C3    1.292023 A    
C17   N1    1.368312 A    
C17   C20   1.410478 A    
C21   H12   1.111283 S    
C15   H7    1.111327 S    
O1    C1    1.298421 A    
C11   C12   1.405732 A    
O1    Cu1   1.971422 S    
O2    Cu2   1.971930 S    
C21   C22   1.518739 S    
C5    H4    1.087421 S    
N4    O12   1.301098 A    
N3    O10   1.300408 A    
O6    C3    1.291557 A    
C9    C16   1.490610 S    
