data_mof_unit_19757.cif
_audit_creation_date              2012-12-11T14:14:34-0500
_audit_creation_method            fapswitch 2.2
_symmetry_space_group_name_H-M    P1
_symmetry_Int_Tables_number       1
_space_group_crystal_system       triclinic
_cell_length_a                    24.589775
_cell_length_b                    17.292975
_cell_length_c                    15.696324
_cell_angle_alpha                 89.890877
_cell_angle_beta                  128.744764
_cell_angle_gamma                 89.973342
_cell_volume                      5205.74133472

loop_
_atom_site_label
_atom_site_type_symbol
_atom_type_description
_atom_site_fract_x
_atom_site_fract_y
_atom_site_fract_z
_atom_type_partial_charge
C1    C     C_R   0.340208 0.376678 0.217943 -0.101420
C2    C     C_R   0.659773 0.376350 0.782114 -0.102735
C3    C     C_R   0.841886 0.873712 0.221664 -0.100691
C4    C     C_R   0.157083 0.870918 0.774524 -0.072840
C5    C     C_R   0.385316 0.596435 0.591748 0.443198
C6    C     C_R   0.611134 0.609562 0.408305 0.468558
C7    C     C_R   0.888388 0.108675 0.591423 0.467037
C8    C     C_R   0.111553 0.108663 0.408405 0.467165
C9    C     C_R   0.316774 0.610904 0.500879 0.021670
C10   C     C_R   0.676272 0.632074 0.498877 0.024626
C11   C     C_R   0.822928 0.130746 0.500683 0.025062
C12   C     C_R   0.176953 0.130624 0.498990 0.025832
C13   C     C_R   0.358058 0.641446 0.149828 -0.068323
C14   C     C_R   0.639041 0.645238 0.845800 -0.078050
C15   C     C_R   0.859621 0.143669 0.152202 -0.082538
C16   C     C_R   0.140105 0.143872 0.847142 -0.081186
C17   C     C_2   0.750533 0.644282 0.446595 -0.126278
C18   C     C_2   0.259965 0.650173 0.578102 -0.132998
C19   C     C_2   0.250883 0.143337 0.445809 -0.131706
C20   C     C_2   0.749180 0.142972 0.554196 -0.127042
C21   C     C_2   0.729103 0.670162 0.501621 -0.231147
C22   C     C_2   0.255546 0.627771 0.492748 -0.196524
C23   C     C_2   0.230109 0.168479 0.502062 -0.228141
C24   C     C_2   0.769547 0.168297 0.497383 -0.230557
C25   C     C_2   0.295839 0.192425 0.437194 0.532640
C26   C     C_2   0.704458 0.192030 0.563360 0.531229
C27   C     C_2   0.795691 0.693071 0.438260 0.531575
C28   C     C_2   0.209348 0.705130 0.561573 0.510513
C29   C     C_2   0.338863 0.242368 0.517712 -0.330857
C30   C     C_2   0.661070 0.242089 0.482804 -0.332149
C31   C     C_2   0.838170 0.743394 0.518437 -0.330057
C32   C     C_2   0.194046 0.767970 0.499381 -0.381840
C33   C     C_2   0.660827 0.268264 0.890750 -0.247709
C34   C     C_2   0.338772 0.269291 0.108565 -0.245741
C35   C     C_2   0.157260 0.761859 0.881673 -0.229042
C36   C     C_2   0.842635 0.762541 0.118683 -0.233055
C37   C     C_2   0.708229 0.227589 0.894138 -0.053286
C38   C     C_2   0.290948 0.228914 0.104367 -0.053860
C39   C     C_2   0.204781 0.720328 0.886176 -0.050760
C40   C     C_2   0.790728 0.726013 0.107566 -0.044558
C41   C     C_2   0.314942 0.673836 0.040066 -0.182105
C42   C     C_2   0.681140 0.679147 0.954140 -0.176166
C43   C     C_2   0.817221 0.177268 0.043549 -0.167002
C44   C     C_2   0.182280 0.178010 0.955248 -0.167776
C45   C     C_R   0.590030 0.360732 0.406772 -0.116854
C46   C     C_R   0.409930 0.360790 0.593510 -0.086323
C47   C     C_R   0.100984 0.870714 0.407960 -0.102826
C48   C     C_R   0.909148 0.861617 0.593678 -0.113687
C49   C     C_2   0.246033 0.664250 0.972573 -0.095980
C50   C     C_2   0.750059 0.669142 0.022961 -0.074187
C51   C     C_2   0.748254 0.168916 0.976341 -0.075715
C52   C     C_2   0.251340 0.170259 0.022450 -0.076785
C53   C     C_R   0.663222 0.357917 0.588681 -0.071079
C54   C     C_R   0.336813 0.358122 0.411600 -0.067668
C55   C     C_R   0.174328 0.870014 0.590722 -0.052138
C56   C     C_R   0.836227 0.858590 0.411854 -0.068717
C57   C     C_R   0.569531 0.372555 0.782227 -0.105701
C58   C     C_R   0.430399 0.372842 0.217689 -0.112698
C59   C     C_R   0.068100 0.869259 0.778001 -0.113531
C60   C     C_R   0.933968 0.867490 0.225824 -0.098261
C61   C     C_R   0.367417 0.338668 0.175018 0.149551
C62   C     C_R   0.632479 0.338166 0.824892 0.144629
C63   C     C_R   0.871159 0.832688 0.183918 0.147150
C64   C     C_R   0.129110 0.831883 0.815677 0.144303
C65   C     C_R   0.638539 0.315912 0.495252 0.176039
C66   C     C_R   0.361481 0.316102 0.505218 0.164107
C67   C     C_R   0.157545 0.833453 0.499027 0.195552
C68   C     C_R   0.860712 0.816925 0.505615 0.176428
C69   C     C_R   0.312581 0.598573 0.410599 -0.214143
C70   C     C_R   0.684272 0.609686 0.589825 -0.219963
C71   C     C_R   0.815339 0.108926 0.410006 -0.219630
C72   C     C_R   0.184606 0.108761 0.589802 -0.223849
C73   C     C_R   0.425664 0.615814 0.204722 -0.158659
C74   C     C_R   0.571863 0.618725 0.791341 -0.159697
C75   C     C_R   0.926660 0.117003 0.206262 -0.150911
C76   C     C_R   0.073187 0.117100 0.793377 -0.152430
C77   C     C_R   0.661350 0.621168 0.787407 0.527076
C78   C     C_R   0.337243 0.618857 0.210645 0.523979
C79   C     C_R   0.161667 0.120738 0.787580 0.526680
C80   C     C_R   0.838151 0.120655 0.211985 0.526863
H1    H     H_    0.287775 0.373024 0.190987 0.097275
H2    H     H_    0.712218 0.372480 0.809132 0.097688
H3    H     H_    0.789259 0.869982 0.193715 0.093822
H4    H     H_    0.208232 0.863436 0.797698 0.089778
H5    H     H_    0.747942 0.723671 0.547592 0.141818
H6    H     H_    0.206783 0.636810 0.410813 0.136782
H7    H     H_    0.249642 0.221450 0.549228 0.144908
H8    H     H_    0.749629 0.221282 0.449817 0.142210
H9    H     H_    0.353065 0.232858 0.597887 0.114390
H10   H     H_    0.646450 0.232598 0.402393 0.114336
H11   H     H_    0.851997 0.734264 0.598440 0.114404
H12   H     H_    0.212080 0.773426 0.451675 0.134607
H13   H     H_    0.220178 0.626529 0.992475 0.189720
H14   H     H_    0.776334 0.629898 0.005444 0.184356
H15   H     H_    0.721969 0.130635 0.994892 0.183221
H16   H     H_    0.277971 0.132179 0.004371 0.183687
H17   H     H_    0.727096 0.246983 0.851353 0.193394
H18   H     H_    0.271857 0.248106 0.146891 0.192391
H19   H     H_    0.222578 0.737228 0.840800 0.184686
H20   H     H_    0.769486 0.747659 0.145879 0.187292
H21   H     H_    0.339746 0.711570 0.017919 0.155613
H22   H     H_    0.655744 0.718162 0.973869 0.157585
H23   H     H_    0.842519 0.215564 0.022838 0.164035
H24   H     H_    0.156645 0.216064 0.975552 0.163756
H25   H     H_    0.643141 0.250165 0.935949 0.147627
H26   H     H_    0.356673 0.251249 0.063688 0.146736
H27   H     H_    0.140746 0.745627 0.929159 0.142249
H28   H     H_    0.862641 0.742070 0.077737 0.143233
H29   H     H_    0.566101 0.347849 0.323165 0.106909
H30   H     H_    0.433733 0.347893 0.677148 0.109283
H31   H     H_    0.079514 0.861098 0.324377 0.110780
H32   H     H_    0.932110 0.849551 0.677180 0.106635
H33   H     H_    0.706172 0.342430 0.671260 0.143337
H34   H     H_    0.293883 0.342822 0.329076 0.143756
H35   H     H_    0.220304 0.860177 0.673771 0.110050
H36   H     H_    0.792815 0.843475 0.329555 0.140413
H37   H     H_    0.539607 0.363380 0.810072 0.109180
H38   H     H_    0.460254 0.363789 0.189704 0.104877
H39   H     H_    0.038701 0.859538 0.806613 0.104012
H40   H     H_    0.967139 0.853841 0.205079 0.101682
H41   H     H_    0.264643 0.589649 0.329143 0.187481
H42   H     H_    0.733258 0.604695 0.670784 0.197508
H43   H     H_    0.766384 0.103463 0.329147 0.197668
H44   H     H_    0.233575 0.103219 0.670704 0.196929
H45   H     H_    0.452593 0.615118 0.171086 0.213149
H46   H     H_    0.542519 0.620918 0.821103 0.206297
H47   H     H_    0.953892 0.116805 0.173137 0.215205
H48   H     H_    0.045915 0.117088 0.826430 0.215206
H49   H     H_    0.729495 0.591436 0.399157 0.207625
H50   H     H_    0.306144 0.642072 0.661455 0.210352
H51   H     H_    0.229333 0.090957 0.397407 0.207610
H52   H     H_    0.771064 0.090548 0.602892 0.208354
N1    N     N_R   0.389060 0.424180 0.294540 -0.051732
N2    N     N_R   0.610940 0.424180 0.705460 -0.052240
N3    N     N_R   0.889060 0.924180 0.294540 -0.051391
N4    N     N_R   0.110940 0.924180 0.705460 -0.052530
N5    N     N_R   0.579670 0.423790 0.443360 -0.044628
N6    N     N_R   0.420330 0.423790 0.556640 -0.039070
N7    N     N_R   0.079670 0.923790 0.443360 -0.048142
N8    N     N_R   0.920330 0.923790 0.556640 -0.044327
N9    N     N_R   0.625470 0.423490 0.556600 -0.060259
N10   N     N_R   0.374530 0.423490 0.443400 -0.060991
N11   N     N_R   0.125470 0.923490 0.556600 -0.057871
N12   N     N_R   0.874530 0.923490 0.443400 -0.059747
N13   N     N_R   0.555250 0.423100 0.705420 -0.041196
N14   N     N_R   0.444750 0.423100 0.294580 -0.043026
N15   N     N_R   0.055250 0.923100 0.705420 -0.042631
N16   N     N_R   0.944750 0.923100 0.294580 -0.043609
N17   N     N_R   0.375210 0.577180 0.443400 -0.070969
N18   N     N_R   0.624790 0.577180 0.556600 -0.071793
N19   N     N_R   0.875210 0.077180 0.443400 -0.071174
N20   N     N_R   0.124790 0.077180 0.556600 -0.071528
N21   N     N_R   0.445430 0.577570 0.294580 -0.075862
N22   N     N_R   0.554570 0.577570 0.705420 -0.072466
N23   N     N_R   0.945430 0.077570 0.294580 -0.076592
N24   N     N_R   0.054570 0.077570 0.705420 -0.076377
N25   N     N_R   0.611620 0.576500 0.705460 -0.095105
N26   N     N_R   0.388380 0.576500 0.294540 -0.095967
N27   N     N_R   0.111620 0.076500 0.705460 -0.095529
N28   N     N_R   0.888380 0.076500 0.294540 -0.094990
N29   N     N_R   0.421010 0.576890 0.556640 -0.086475
N30   N     N_R   0.578990 0.576890 0.443360 -0.093051
N31   N     N_R   0.921010 0.076890 0.556640 -0.093036
N32   N     N_R   0.078990 0.076890 0.443360 -0.093436
Ni1   Ni    Ni4+2 0.383200 0.500680 0.370150 0.235795
Ni2   Ni    Ni4+2 0.616800 0.500680 0.629850 0.235120
Ni3   Ni    Ni4+2 0.883200 0.000680 0.370150 0.236153
Ni4   Ni    Ni4+2 0.116800 0.000680 0.629850 0.234209
Ni5   Ni    Ni4+2 0.512440 0.500680 0.370150 0.255799
Ni6   Ni    Ni4+2 0.487560 0.500680 0.629850 0.270638
Ni7   Ni    Ni4+2 0.012440 0.000680 0.370150 0.257608
Ni8   Ni    Ni4+2 0.987560 0.000680 0.629850 0.259548
Cl1   Cl    Cl    0.287600 0.185375 0.318178 -0.690391
Cl2   Cl    Cl    0.713676 0.184915 0.683204 -0.691002
Cl3   Cl    Cl    0.788401 0.685340 0.320134 -0.683982
Cl4   Cl    Cl    0.178136 0.690897 0.635397 -0.671959
O1    O     O_3   0.726525 0.631208 0.815517 -0.657627
C81   C     C_3   0.735908 0.710771 0.806163 0.210717
H53   H     H_    0.730623 0.747497 0.858626 0.117393
H54   H     H_    0.696992 0.730906 0.720155 0.108761
C82   C     C_3   0.808744 0.723789 0.841527 -0.894538
H55   H     H_    0.813511 0.698370 0.781663 0.242765
H56   H     H_    0.819254 0.786771 0.847114 0.225637
H57   H     H_    0.848449 0.696817 0.922521 0.259012
O2    O     O_3   0.271970 0.626521 0.182760 -0.656709
C83   C     C_3   0.261381 0.705260 0.193239 0.214735
H58   H     H_    0.265477 0.743307 0.140265 0.115759
H59   H     H_    0.300300 0.724718 0.279454 0.108364
C84   C     C_3   0.188699 0.715871 0.159373 -0.894907
H60   H     H_    0.184696 0.686848 0.218335 0.243239
H61   H     H_    0.177702 0.778452 0.157279 0.223778
H62   H     H_    0.148955 0.690972 0.077036 0.257873
O3    O     O_3   0.226285 0.131748 0.814057 -0.660528
C85   C     C_3   0.234233 0.211411 0.802798 0.214279
H63   H     H_    0.229217 0.248144 0.855564 0.118379
H64   H     H_    0.194321 0.230739 0.716635 0.112853
C86   C     C_3   0.306323 0.225661 0.835740 -0.898316
H65   H     H_    0.310116 0.201353 0.774316 0.242108
H66   H     H_    0.316291 0.288800 0.841702 0.229329
H67   H     H_    0.346998 0.198386 0.916045 0.258378
O4    O     O_3   0.773412 0.131469 0.185211 -0.659812
C87   C     C_3   0.764871 0.211141 0.195305 0.215219
H68   H     H_    0.769460 0.247695 0.141796 0.118594
H69   H     H_    0.804740 0.230825 0.281131 0.110932
C88   C     C_3   0.692760 0.225144 0.162508 -0.902442
H70   H     H_    0.689461 0.201454 0.224826 0.242114
H71   H     H_    0.682127 0.288231 0.154946 0.227692
H72   H     H_    0.652222 0.197131 0.083015 0.259724
Cl5   Cl    Cl    0.412948 0.564942 0.719882 -0.711247
Cl6   Cl    Cl    0.585378 0.599080 0.276443 -0.688342
Cl7   Cl    Cl    0.914057 0.096991 0.723154 -0.684470
Cl8   Cl    Cl    0.085966 0.097078 0.276783 -0.686287

loop_
_geom_bond_atom_site_label_1
_geom_bond_atom_site_label_2
_ccdc_geom_bond_type
C15   C75   A    
C53   N9    A    
C73   N21   A    
C22   H6    S    
C57   N13   A    
C36   H28   S    
N21   Ni5   S    
O4    C87   S    
C85   H64   S    
C70   N18   A    
C38   H18   S    
C37   H17   S    
C81   H53   S    
C44   H24   S    
C57   C62   A    
N2    N13   A    
C74   H46   S    
C88   H70   S    
C86   H67   S    
C7    C11   A    
C12   C23   S    
C74   N22   A    
C59   C64   A    
C2    N2    A    
C87   H69   S    
C60   C63   A    
C14   C74   A    
C71   H43   S    
C9    C69   A    
C46   C66   A    
C79   N27   A    
C37   C51   S    
C45   H29   S    
C9    C22   S    
C14   C77   A    
C85   C86   S    
C38   C52   S    
C26   Cl2   S    
C1    H1    S    
N18   Ni2   S    
C16   C76   A    
C11   C24   S    
C58   H38   S    
N16   Ni7   S    
N27   Ni4   S    
N22   Ni6   S    
C84   H61   S    
N28   Ni3   S    
C41   C49   D    
N21   N26   A    
C86   H66   S    
N13   Ni6   S    
N7    N11   A    
C78   N26   A    
C71   N19   A    
C6    N30   A    
C41   H21   S    
C33   C62   S    
C72   N20   A    
C87   C88   S    
C18   H50   S    
N2    Ni2   S    
N7    Ni7   S    
C35   C64   S    
C69   H41   S    
C36   C63   S    
C53   C65   A    
C16   C44   S    
C3    N3    A    
N19   Ni3   S    
C30   H10   S    
C4    N4    A    
C44   C52   D    
C58   C61   A    
C82   H56   S    
C85   H63   S    
C12   C72   A    
N8    Ni8   S    
C34   C38   D    
N4    N15   A    
C72   H44   S    
C25   C29   D    
C86   H65   S    
C20   H52   S    
C1    N1    A    
C42   H22   S    
C47   C67   A    
N20   Ni4   S    
C53   H33   S    
C43   H23   S    
C88   H71   S    
C10   C21   S    
C19   H51   S    
C31   C68   S    
N18   N30   A    
C21   H5    S    
C55   N11   A    
C87   H68   S    
C48   N8    A    
N12   Ni3   S    
C27   C31   D    
C17   C27   S    
C35   H27   S    
C20   C24   D    
C36   C40   D    
C18   C28   S    
N22   N25   A    
N6    N10   A    
C27   Cl3   S    
C29   H9    S    
C50   H14   S    
C56   H36   S    
N4    Ni4   S    
C82   H55   S    
C7    N31   A    
N24   Ni8   S    
C34   C61   S    
C33   C37   D    
C34   H26   S    
C84   H62   S    
C35   C39   D    
C5    C9    A    
N1    Ni1   S    
C77   O1    S    
C70   H42   S    
C7    Cl7   S    
C15   C80   A    
C4    H4    S    
C28   C32   D    
C8    C12   A    
C45   N5    A    
N9    Ni2   S    
N17   Ni1   S    
C81   H54   S    
C40   C50   S    
C78   O2    S    
C48   C68   A    
N31   Ni8   S    
C24   H8    S    
N20   N32   A    
C42   C50   D    
C32   C67   S    
C54   C66   A    
N29   Ni6   S    
C10   C70   A    
C3    C63   A    
C39   C49   S    
C13   C73   A    
C26   C30   D    
N19   N31   A    
C46   H30   S    
C8    N32   A    
C30   C65   S    
C76   H48   S    
C2    H2    S    
N17   N29   A    
C47   N7    A    
C73   H45   S    
N15   Ni8   S    
C19   C23   D    
C57   H37   S    
C82   H57   S    
C80   O4    S    
N5    N9    A    
C13   C78   A    
C59   H39   S    
C48   H32   S    
N23   N28   A    
C18   C22   D    
N5    Ni5   S    
N23   Ni7   S    
C28   Cl4   S    
N8    N12   A    
C1    C61   A    
N25   Ni2   S    
C6    C10   A    
C55   C67   A    
C58   N14   A    
C13   C41   S    
C6    Cl6   S    
N24   N27   A    
C5    Cl5   S    
C4    C64   A    
C31   H11   S    
C79   O3    S    
C33   H25   S    
C14   C42   S    
C40   H20   S    
C16   C79   A    
C69   N17   A    
C54   N10   A    
N1    N14   A    
C83   C84   S    
C15   C43   S    
C5    N29   A    
C56   C68   A    
N10   Ni1   S    
C45   C65   A    
C55   H35   S    
C43   C51   D    
O2    C83   S    
C32   H12   S    
N30   Ni5   S    
C20   C26   S    
C47   H31   S    
C54   H34   S    
C76   N24   A    
C52   H16   S    
C11   C71   A    
N3    N16   A    
C25   Cl1   S    
C84   H60   S    
C19   C25   S    
C17   C21   D    
N11   Ni4   S    
C81   C82   S    
C80   N28   A    
O1    C81   S    
C60   H40   S    
C29   C66   S    
C56   N12   A    
C75   N23   A    
C39   H19   S    
C3    H3    S    
O3    C85   S    
N14   Ni5   S    
C77   N25   A    
N3    Ni3   S    
C46   N6    A    
N32   Ni7   S    
C23   H7    S    
C88   H72   S    
C60   N16   A    
C49   H13   S    
C83   H58   S    
C8    Cl8   S    
C83   H59   S    
C17   H49   S    
C2    C62   A    
N26   Ni1   S    
C51   H15   S    
N6    Ni6   S    
C75   H47   S    
C59   N15   A    
