data_mof_unit_6980.cif
_audit_creation_date              2012-12-10T20:28:45-0500
_audit_creation_method            fapswitch 2.2
_symmetry_space_group_name_H-M    P1
_symmetry_Int_Tables_number       1
_space_group_crystal_system       triclinic
_cell_length_a                    10.608814
_cell_length_b                    10.700428
_cell_length_c                    9.89229
_cell_angle_alpha                 90.00417
_cell_angle_beta                  89.63585
_cell_angle_gamma                 90.395013
_cell_volume                      1122.91202045

loop_
_atom_site_label
_atom_site_type_symbol
_atom_type_description
_atom_site_fract_x
_atom_site_fract_y
_atom_site_fract_z
_atom_type_partial_charge
C1    C     C_R   0.498764 0.260542 0.499965 0.898205
C2    C     C_R   0.429673 0.937307 0.393486 0.186791
C3    C     C_R   0.493155 0.871925 0.497147 -0.182618
C4    C     C_R   0.260638 0.501849 0.500331 0.852426
C5    C     C_R   0.565071 0.935915 0.592528 0.020460
C6    C     C_3   0.559073 0.930226 0.743709 0.451074
C7    C     C_3   0.561200 0.071571 0.743839 -0.496230
C8    C     C_R   0.456409 0.398648 0.072030 0.189213
C9    C     C_R   0.555828 0.593914 0.071441 -0.119468
C10   C     C_R   0.556655 0.593333 0.927672 -0.124739
C11   C     C_R   0.452426 0.400193 0.930116 0.196239
C12   C     C_R   0.066892 0.615593 0.551901 0.099630
C13   C     C_3   0.320893 0.344933 0.932403 -0.094649
C14   C     C_3   0.329905 0.340096 0.086093 -0.508486
C15   C     C_R   0.495496 0.739605 0.499662 0.868948
C16   C     C_R   0.739442 0.502962 0.499580 0.864967
C17   C     C_R   0.133087 0.721425 0.600666 -0.194719
C18   C     C_R   0.068110 0.826228 0.646262 -0.168225
C19   C     C_R   0.936967 0.827507 0.643840 -0.076771
C20   C     C_R   0.870286 0.723629 0.596608 -0.143961
C21   C     C_R   0.934885 0.616497 0.550337 0.067814
C22   C     C_3   0.214403 0.430724 0.885332 -0.752136
C23   C     C_R   0.128525 0.509318 0.500632 -0.097122
C24   C     C_3   0.348585 0.873531 0.288562 -0.844885
C25   C     C_R   0.064064 0.408292 0.445223 -0.225178
C26   C     C_R   0.935247 0.408868 0.444371 -0.197618
C27   C     C_R   0.871823 0.510648 0.498527 -0.088946
C28   C     C_R   0.567053 0.063686 0.593299 0.022963
C29   C     C_R   0.498762 0.128951 0.497886 -0.128881
C30   C     C_R   0.435208 0.066732 0.394408 -0.218839
F1    F     F_    0.668033 0.881280 0.797628 -0.695345
H1    H     H_    0.113815 0.328226 0.404664 0.143268
H2    H     H_    0.119716 0.907079 0.682397 0.137487
H3    H     H_    0.886976 0.909692 0.677601 0.190185
H4    H     H_    0.768580 0.728781 0.594506 0.169092
H5    H     H_    0.884647 0.329020 0.403670 0.150064
H6    H     H_    0.384398 0.119232 0.318940 0.152138
H7    H     H_    0.470705 0.887848 0.784555 0.076272
H8    H     H_    0.129684 0.418068 0.950587 0.226101
H9    H     H_    0.242860 0.530809 0.887718 0.250752
H10   H     H_    0.184973 0.403554 0.782288 0.248263
H11   H     H_    0.282679 0.806406 0.338095 0.237030
H12   H     H_    0.471852 0.112772 0.781665 0.152077
H13   H     H_    0.290798 0.941603 0.231611 0.217683
H14   H     H_    0.408717 0.823997 0.213970 0.256445
H15   H     H_    0.648574 0.112808 0.787049 0.228302
H16   H     H_    0.598952 0.671040 0.125043 0.163946
H17   H     H_    0.601173 0.669179 0.873349 0.215832
H18   H     H_    0.316515 0.250166 0.886614 0.157158
H19   H     H_    0.262650 0.400855 0.141811 0.230743
H20   H     H_    0.335569 0.243204 0.125514 0.168352
H21   H     H_    0.234898 0.725031 0.602108 0.140307
N1    N     N_R   0.499160 0.499140 0.142800 -0.106956
N2    N     N_R   0.499160 0.499180 0.857150 -0.114905
O1    O     O_R   0.500020 0.316790 0.614690 -0.616100
O2    O     O_R   0.500000 0.316760 0.385350 -0.621315
O3    O     O_R   0.316770 0.500020 0.614690 -0.624327
O4    O     O_R   0.316760 0.499980 0.385350 -0.619043
O5    O     O_R   0.500000 0.683240 0.614650 -0.631566
O6    O     O_R   0.499980 0.683210 0.385310 -0.612517
O7    O     O_R   0.683240 0.500020 0.614650 -0.609061
O8    O     O_R   0.683230 0.499980 0.385310 -0.609318
Zn1   Zn    Zn3+2 0.500010 0.500020 0.653130 0.947846
Zn2   Zn    Zn3+2 0.499990 0.499980 0.346870 0.945852

loop_
_geom_bond_atom_site_label_1
_geom_bond_atom_site_label_2
_ccdc_geom_bond_type
C8    N1    A    
C4    O3    A    
O8    Zn2   S    
C6    H7    S    
O3    Zn1   S    
C6    C7    S    
C7    H12   S    
C5    C28   A    
C24   H11   S    
C15   O6    A    
O5    Zn1   S    
C14   H20   S    
O6    Zn2   S    
C2    C30   A    
C22   H9    S    
C16   C27   S    
C1    C29   S    
C2    C3    A    
C21   C27   A    
C14   H19   S    
C13   C14   S    
C12   C17   A    
C2    C24   S    
C11   C13   S    
C12   C23   A    
C26   C27   A    
C29   C30   A    
C11   N2    A    
C16   O8    A    
C25   H1    S    
C8    C11   A    
C24   H13   S    
C22   H8    S    
C17   H21   S    
C26   H5    S    
C28   C29   A    
N1    Zn2   S    
C1    O2    A    
C13   C22   S    
C9    H16   S    
C10   H17   S    
C23   C25   A    
C1    O1    A    
C5    C6    S    
C10   N2    A    
C18   H2    S    
C13   H18   S    
C22   H10   S    
C9    N1    A    
C16   O7    A    
C24   H14   S    
C6    F1    S    
C7    H15   S    
C3    C15   S    
C20   C21   A    
C17   C18   A    
C18   C19   A    
O2    Zn2   S    
C4    O4    A    
O7    Zn1   S    
C4    C23   S    
N2    Zn1   S    
C8    C14   S    
O4    Zn2   S    
C25   C26   A    
C20   H4    S    
C15   O5    A    
C12   C21   A    
C7    C28   S    
C19   C20   A    
C30   H6    S    
C9    C10   A    
C3    C5    A    
C19   H3    S    
O1    Zn1   S    
