data_mof_unit_37622.cif
_audit_creation_date              2012-12-10T19:46:24-0500
_audit_creation_method            fapswitch 2.2
_symmetry_space_group_name_H-M    P1
_symmetry_Int_Tables_number       1
_space_group_crystal_system       triclinic
_cell_length_a                    11.011335
_cell_length_b                    10.915683
_cell_length_c                    10.566765
_cell_angle_alpha                 92.451972
_cell_angle_beta                  91.763923
_cell_angle_gamma                 88.472888
_cell_volume                      1267.9131272

loop_
_atom_site_label
_atom_site_type_symbol
_atom_type_description
_atom_site_fract_x
_atom_site_fract_y
_atom_site_fract_z
_atom_type_partial_charge
C1    C     C_R   0.499004 0.261787 0.497458 0.904585
C2    C     C_R   0.500996 0.738213 0.502542 0.904584
C3    C     C_R   0.873204 0.486900 0.502945 -0.066607
C4    C     C_R   0.126796 0.513100 0.497055 -0.066608
C5    C     C_R   0.939928 0.520683 0.614206 0.025624
C6    C     C_R   0.060072 0.479317 0.385794 0.025624
C7    C     C_R   0.525675 0.143418 0.052401 0.596437
C8    C     C_R   0.474325 0.856579 0.947599 0.596438
C9    C     C_R   0.491134 0.128649 0.176715 -0.260192
C10   C     C_R   0.508865 0.871348 0.823285 -0.260191
C11   C     C_R   0.579466 0.103934 0.271440 -0.080566
C12   C     C_R   0.420534 0.896066 0.728560 -0.080566
C13   C     C_R   0.702913 0.097966 0.241080 0.619463
C14   C     C_R   0.297086 0.902036 0.758920 0.619465
C15   C     C_R   0.736832 0.112505 0.116348 0.499645
C16   C     C_R   0.263168 0.887496 0.883652 0.499646
C17   C     C_R   0.647859 0.133267 0.021817 -0.375063
C18   C     C_R   0.352141 0.866732 0.978183 -0.375063
C19   C     C_R   0.545895 0.928125 0.399414 0.647291
C20   C     C_R   0.454105 0.071874 0.600586 0.647292
C21   C     C_R   0.503555 0.871915 0.506004 -0.319283
C22   C     C_R   0.496445 0.128085 0.493995 -0.319282
C23   C     C_R   0.261557 0.507297 0.498746 0.817916
C24   C     C_R   0.738443 0.492702 0.501254 0.817916
C25   C     C_R   0.459170 0.944987 0.608586 -0.070870
C26   C     C_R   0.540830 0.055013 0.391415 -0.070869
C27   C     C_1   0.499884 0.499857 0.072354 0.097577
C28   C     C_1   0.500116 0.500143 0.927646 0.097577
C29   C     C_R   0.160826 0.653687 0.112269 -0.198375
C30   C     C_R   0.839174 0.346312 0.887729 -0.198372
C31   C     C_R   0.111670 0.626259 0.226467 0.646219
C32   C     C_R   0.888330 0.373740 0.773532 0.646219
C33   C     C_R   0.109158 0.504166 0.261885 -0.037359
C34   C     C_R   0.890842 0.495834 0.738115 -0.037360
C35   C     C_R   0.151188 0.409260 0.179625 -0.173110
C36   C     C_R   0.848813 0.590739 0.820376 -0.173111
C37   C     C_R   0.195259 0.436837 0.061543 0.128172
C38   C     C_R   0.804742 0.563161 0.938457 0.128173
C39   C     C_R   0.206599 0.560172 0.032216 -0.238968
C40   C     C_R   0.793402 0.439826 0.967784 -0.238968
C41   C     C_R   0.935938 0.456083 0.390921 0.159726
C42   C     C_R   0.064062 0.543917 0.609079 0.159725
Cu1   Cu    Cu3+1 0.500000 0.500000 0.625300 1.024298
Cu2   Cu    Cu3+1 0.500000 0.500000 0.374700 1.024298
H1    H     H_    0.252180 0.585108 0.948906 0.155528
H2    H     H_    0.747820 0.414889 0.051093 0.155528
H3    H     H_    0.162336 0.747718 0.086137 0.219668
H4    H     H_    0.837664 0.252280 0.913860 0.219669
H5    H     H_    0.146544 0.314797 0.206405 0.177494
H6    H     H_    0.853456 0.685202 0.793596 0.177494
H7    H     H_    0.672354 0.137815 0.923902 0.210410
H8    H     H_    0.327647 0.862183 0.076098 0.210410
H9    H     H_    0.395420 0.128960 0.197683 0.190630
H10   H     H_    0.604580 0.871035 0.802316 0.190630
N1    N     N_1   0.500010 0.499990 0.186410 -0.141499
N2    N     N_1   0.499990 0.500010 0.813590 -0.141499
O1    O     O_R   0.499990 0.319650 0.605810 -0.501945
O2    O     O_R   0.500010 0.680350 0.394190 -0.501944
O3    O     O_R   0.499990 0.319640 0.394190 -0.608820
O4    O     O_R   0.500010 0.680360 0.605810 -0.608820
O5    O     O_R   0.319640 0.500010 0.605810 -0.581708
O6    O     O_R   0.680360 0.499990 0.394190 -0.581708
O7    O     O_R   0.319650 0.500010 0.394190 -0.586547
O8    O     O_R   0.680350 0.499990 0.605810 -0.586547
F1    F     F_    0.789239 0.070342 0.330622 -0.572970
F2    F     F_    0.210761 0.929662 0.669379 -0.572968
F3    F     F_    0.855432 0.099893 0.086162 -0.592923
F4    F     F_    0.144568 0.900110 0.913839 -0.592922
F5    F     F_    0.594133 0.859345 0.301907 -0.580180
F6    F     F_    0.405867 0.140655 0.698094 -0.580180
F7    F     F_    0.067847 0.718769 0.303594 -0.618509
F8    F     F_    0.932153 0.281230 0.696404 -0.618508
C43   C     C_3   0.223822 0.336161 0.965309 -0.621966
H11   H     H_    0.315102 0.347635 0.927616 0.267072
H12   H     H_    0.220395 0.244483 0.006607 0.271713
H13   H     H_    0.155906 0.339263 0.885666 0.241164
C44   C     C_3   0.776180 0.663837 0.034692 -0.621968
H14   H     H_    0.684903 0.652360 0.072391 0.267072
H15   H     H_    0.844100 0.660738 0.114331 0.241163
H16   H     H_    0.779602 0.755514 0.993394 0.271715
C45   C     C_3   0.870844 0.400458 0.275838 -0.759302
H17   H     H_    0.931424 0.349358 0.209737 0.249121
H18   H     H_    0.804523 0.332452 0.303496 0.239770
H19   H     H_    0.825350 0.476931 0.226894 0.231325
C46   C     C_3   0.129156 0.599542 0.724162 -0.759305
H20   H     H_    0.068575 0.650643 0.790263 0.249121
H21   H     H_    0.174650 0.523069 0.773106 0.231325
H22   H     H_    0.195476 0.667548 0.696504 0.239769
F9    F     F_    0.440139 0.157859 0.959357 -0.634089
F10   F     F_    0.559860 0.842135 0.040642 -0.634089

loop_
_geom_bond_atom_site_label_1
_geom_bond_atom_site_label_2
_ccdc_geom_bond_type
C30   C32   A    
C5    C42   A    
C43   H11   S    
C17   H7    S    
C45   H17   S    
C28   N2    T    
C18   H8    S    
C32   F8    S    
C13   F1    S    
C44   H14   S    
C40   H2    S    
C29   H3    S    
C30   H4    S    
C19   C21   A    
C1    O3    A    
C27   N1    T    
C44   H16   S    
C20   C25   A    
Cu2   O3    S    
C7    F9    S    
C7    C9    A    
C19   C26   A    
C37   C43   S    
Cu2   O2    S    
C7    C17   A    
C6    C41   A    
C35   H5    S    
C31   C33   A    
C16   F4    S    
C39   H1    S    
C23   O7    A    
C15   F3    S    
C1    C22   S    
C24   O8    A    
C43   H12   S    
C20   F6    S    
C3    C24   S    
C2    O4    A    
C45   H18   S    
Cu1   O8    S    
C46   H21   S    
Cu2   O7    S    
C37   C39   A    
C4    C6    A    
C4    C23   S    
C11   C26   S    
Cu2   O6    S    
C46   H20   S    
C8    C18   A    
C32   C34   A    
Cu1   Cu2   S    
C1    O1    A    
C41   C45   S    
C5    C34   S    
C29   C39   A    
C2    C21   S    
C14   F2    S    
C44   H15   S    
C30   C40   A    
C42   C46   S    
C9    C11   A    
C10   C12   A    
Cu1   O4    S    
C16   C18   A    
C12   C14   A    
C13   C15   A    
C43   H13   S    
C14   C16   A    
C19   F5    S    
C8    F10   S    
C45   H19   S    
C36   H6    S    
Cu1   O5    S    
C46   H22   S    
C15   C17   A    
C21   C25   A    
C3    C41   A    
C24   O6    A    
C35   C37   A    
C20   C22   A    
C3    C5    A    
C2    O2    A    
C38   C44   S    
C6    C33   S    
C12   C25   S    
C36   C38   A    
C29   C31   A    
C38   C40   A    
C11   C13   A    
Cu2   N1    S    
C4    C42   A    
C31   F7    S    
C33   C35   A    
C34   C36   A    
C10   H10   S    
Cu1   O1    S    
Cu1   N2    S    
C23   O5    A    
C9    H9    S    
C8    C10   A    
C22   C26   A    
C27   C28   S    
