data_mof_unit_47586.cif
_audit_creation_date              2012-10-26T19:03:01-0400
_audit_creation_method            fapswitch 2.2
_symmetry_space_group_name_H-M    P1
_symmetry_Int_Tables_number       1
_space_group_crystal_system       triclinic
_cell_length_a                    15.008182
_cell_length_b                    11.013415
_cell_length_c                    9.867066
_cell_angle_alpha                 111.664455
_cell_angle_beta                  98.927036
_cell_angle_gamma                 91.007121
_cell_volume                      1492.38704208

loop_
_atom_site_label
_atom_site_type_symbol
_atom_type_description
_atom_site_fract_x
_atom_site_fract_y
_atom_site_fract_z
_atom_type_partial_charge
C1    C     C_R   0.493269 0.253737 0.440038 0.571791
C2    C     C_2   0.493322 0.489036 0.918326 -0.022791
C3    C     C_R   0.329127 0.500381 0.500591 0.545638
C4    C     C_R   0.670889 0.500595 0.499672 0.588749
C5    C     C_R   0.821799 0.614400 0.577000 -0.171703
C6    C     C_R   0.178269 0.386895 0.423732 -0.160506
C7    C     C_R   0.766949 0.498813 0.498242 0.034188
C8    C     C_R   0.233044 0.502750 0.502117 0.005676
C9    C     C_R   0.802919 0.382506 0.419750 0.082662
C10   C     C_R   0.196340 0.619509 0.579337 0.078445
C11   C     C_R   0.896886 0.382429 0.420992 0.007221
C12   C     C_R   0.506771 0.746259 0.559956 0.548516
C13   C     C_R   0.102717 0.618714 0.577823 0.041557
C14   C     C_R   0.952987 0.500233 0.500103 0.017938
C15   C     C_R   0.046773 0.500868 0.499223 0.012740
C16   C     C_R   0.915284 0.617344 0.579874 -0.002405
C17   C     C_R   0.084669 0.383864 0.420054 -0.002777
C18   C     C_R   0.935561 0.267392 0.344755 -0.141643
C19   C     C_R   0.064354 0.733833 0.654204 -0.123078
C20   C     C_R   0.062518 0.140695 0.256061 0.027906
C21   C     C_R   0.050666 0.030400 0.292819 -0.102299
C22   C     C_R   0.079010 0.909888 0.207776 -0.117202
C23   C     C_R   0.028201 0.266596 0.342221 -0.011062
C24   C     C_R   0.119037 0.898480 0.085325 -0.099851
C25   C     C_R   0.130504 0.007471 0.047590 -0.095023
C26   C     C_R   0.101844 0.128017 0.131741 -0.085147
C27   C     C_R   0.937671 0.860533 0.744242 0.025664
C28   C     C_R   0.898440 0.872941 0.868588 -0.081554
C29   C     C_R   0.869642 0.993329 0.952894 -0.094974
C30   C     C_R   0.880969 0.102479 0.915394 -0.099979
C31   C     C_R   0.920966 0.091378 0.792997 -0.116152
C32   C     C_R   0.949388 0.970998 0.707734 -0.104680
C33   C     C_R   0.604443 0.657876 0.958380 0.178014
C34   C     C_R   0.971823 0.734655 0.657571 -0.024900
C35   C     C_R   0.695116 0.632745 0.988988 -0.086117
C36   C     C_R   0.758233 0.733131 0.088483 -0.140299
C37   C     C_R   0.731132 0.858920 0.157015 -0.116058
C38   C     C_R   0.641217 0.885086 0.124411 -0.141844
C39   C     C_R   0.577878 0.784866 0.025185 -0.094106
C40   C     C_R   0.396580 0.340797 0.041351 0.177110
C41   C     C_R   0.424397 0.214316 0.976363 -0.094292
C42   C     C_R   0.362067 0.112685 0.877083 -0.137963
C43   C     C_R   0.271935 0.136945 0.842465 -0.113688
C44   C     C_R   0.243576 0.262248 0.909152 -0.144439
C45   C     C_2   0.489232 0.113658 0.406073 -0.124984
C46   C     C_R   0.305666 0.364030 0.008807 -0.087840
C47   C     C_2   0.510887 0.886326 0.593896 -0.133435
C48   C     C_2   0.501771 0.069729 0.516148 -0.156953
C49   C     C_2   0.498106 0.930243 0.483823 -0.158435
C50   C     C_2   0.506415 0.511348 0.081770 -0.020796
Cu1   Cu    Cu3+1 0.515770 0.521810 0.644910 0.935399
Cu2   Cu    Cu3+1 0.484230 0.478190 0.355090 0.948550
H1    H     H_    0.789994 0.702126 0.633269 0.123143
H2    H     H_    0.556739 0.587093 0.158646 0.149260
H3    H     H_    0.762101 0.194532 0.384151 0.217128
H4    H     H_    0.747885 0.231725 0.229263 0.221011
H5    H     H_    0.300113 0.726922 0.740506 0.246313
H6    H     H_    0.288402 0.758787 0.583065 0.232722
H7    H     H_    0.019293 0.037803 0.387021 0.095778
H8    H     H_    0.069678 0.825285 0.236564 0.107533
H9    H     H_    0.140710 0.805089 0.019170 0.113815
H10   H     H_    0.160940 0.998161 0.952404 0.112495
H11   H     H_    0.109629 0.211095 0.099631 0.110900
H12   H     H_    0.210162 0.299049 0.368091 0.126107
H13   H     H_    0.890746 0.789736 0.900507 0.111236
H14   H     H_    0.839160 0.002374 0.047968 0.101718
H15   H     H_    0.859189 0.195746 0.981667 0.106946
H16   H     H_    0.930172 0.176101 0.764373 0.105869
H17   H     H_    0.980657 0.963816 0.613498 0.096199
H18   H     H_    0.716278 0.535190 0.937478 0.115750
H19   H     H_    0.828020 0.713319 0.113075 0.107790
H20   H     H_    0.779892 0.936211 0.234966 0.101715
H21   H     H_    0.620591 0.982793 0.176654 0.120556
H22   H     H_    0.508089 0.805311 0.001758 0.104938
H23   H     H_    0.893891 0.176508 0.284817 0.101912
H24   H     H_    0.494367 0.195316 0.001325 0.111713
H25   H     H_    0.383621 0.015325 0.826398 0.116888
H26   H     H_    0.223993 0.058514 0.764415 0.121500
H27   H     H_    0.173607 0.280584 0.883048 0.107858
H28   H     H_    0.283530 0.461172 0.058946 0.114310
H29   H     H_    0.106613 0.824432 0.713815 0.144319
H30   H     H_    0.484772 0.863033 0.368541 0.156828
H31   H     H_    0.514887 0.136933 0.631437 0.156920
H32   H     H_    0.524513 0.953758 0.708957 0.093723
H33   H     H_    0.475912 0.046229 0.290991 0.091913
H34   H     H_    0.442647 0.413780 0.841568 0.150070
N1    N     N_2   0.460520 0.445420 0.137370 -0.262358
N2    N     N_2   0.539480 0.554580 0.862630 -0.263164
N3    N     N_3   0.742887 0.265932 0.341526 -0.632261
N4    N     N_3   0.253294 0.739241 0.657343 -0.671627
O1    O     O_R   0.508410 0.332340 0.577400 -0.503189
O2    O     O_R   0.491590 0.667660 0.422600 -0.507959
O3    O     O_R   0.481780 0.295500 0.332650 -0.487197
O4    O     O_R   0.518220 0.704500 0.667350 -0.498388
O5    O     O_R   0.383570 0.518390 0.622380 -0.508699
O6    O     O_R   0.616430 0.481610 0.377620 -0.484219
O7    O     O_R   0.356940 0.481550 0.377630 -0.497473
O8    O     O_R   0.643060 0.518450 0.622370 -0.499133

loop_
_geom_bond_atom_site_label_1
_geom_bond_atom_site_label_2
_ccdc_geom_bond_type
C11   C18   A    
C24   H9    S    
C4    O8    A    
C41   C42   A    
C35   C36   A    
C43   C44   A    
Cu2   O6    S    
C47   C49   D    
C43   H26   S    
C40   C46   A    
C17   C23   A    
C40   N1    S    
C5    H1    S    
C28   C29   A    
C37   C38   A    
C21   H7    S    
C12   C47   S    
C22   H8    S    
C30   C31   A    
C11   C14   A    
Cu2   O7    S    
C7    C9    A    
C39   H22   S    
C6    H12   S    
C5    C16   A    
C2    C50   S    
C16   C34   A    
C4    O6    A    
C35   H18   S    
C36   C37   A    
C18   H23   S    
C2    N2    D    
C30   H15   S    
C36   H19   S    
C12   O2    A    
Cu1   O1    S    
Cu1   O8    S    
C1    O1    A    
C21   C22   A    
C12   O4    A    
C4    C7    S    
C44   C46   A    
C44   H27   S    
C27   C34   S    
C31   H16   S    
H5    N4    S    
C13   C19   A    
Cu1   Cu2   S    
C24   C25   A    
C3    C8    S    
C9    N3    S    
C5    C7    A    
C6    C8    A    
C25   C26   A    
C19   C34   A    
C18   C23   A    
C49   H30   S    
C45   H33   S    
C26   H11   S    
C29   C30   A    
C9    C11   A    
C3    O7    A    
C31   C32   A    
C20   C23   S    
Cu2   O3    S    
C33   C39   A    
C47   H32   S    
H6    N4    S    
C50   N1    D    
C8    C10   A    
C48   C49   S    
C13   C15   A    
C14   C16   A    
Cu2   O2    S    
C42   C43   A    
C45   C48   D    
C15   C17   A    
C6    C17   A    
H4    N3    S    
C40   C41   A    
C27   C32   A    
C33   N2    S    
Cu2   N1    S    
C10   C13   A    
Cu1   N2    S    
C32   H17   S    
C48   H31   S    
C28   H13   S    
C50   H2    S    
C41   H24   S    
C46   H28   S    
C1    C45   S    
C38   C39   A    
C20   C26   A    
C33   C35   A    
C2    H34   S    
C22   C24   A    
C25   H10   S    
H3    N3    S    
Cu1   O4    S    
C29   H14   S    
C20   C21   A    
C10   N4    S    
C42   H25   S    
C1    O3    A    
C37   H20   S    
C27   C28   A    
C14   C15   A    
C3    O5    A    
C19   H29   S    
Cu1   O5    S    
C38   H21   S    
