data_mof_unit_53204.cif
_audit_creation_date              2013-03-05T16:30:58-0500
_audit_creation_method            fapswitch 2.2
_symmetry_space_group_name_H-M    P1
_symmetry_Int_Tables_number       1
_space_group_crystal_system       triclinic
_cell_length_a                    12.977933
_cell_length_b                    10.796983
_cell_length_c                    9.540411
_cell_angle_alpha                 89.925623
_cell_angle_beta                  95.902975
_cell_angle_gamma                 90.513307
_cell_volume                      1329.68444027

loop_
_atom_site_label
_atom_site_type_symbol
_atom_site_description
_atom_site_fract_x
_atom_site_fract_y
_atom_site_fract_z
_atom_type_partial_charge
O1    O     O_R   0.500000 0.319640 0.618810 -0.577939
O2    O     O_R   0.500010 0.319680 0.381230 -0.585888
C1    C     C_R   0.497206 0.262220 0.499699 0.803813
O3    O     O_R   0.348990 0.499960 0.599490 -0.582266
O4    O     O_R   0.349000 0.500000 0.361910 -0.585925
C2    C     C_R   0.300813 0.504448 0.474260 0.793134
Cu1   Cu    Cu3+1 0.499990 0.499980 0.640670 0.928712
Cu2   Cu    Cu3+1 0.500010 0.500020 0.359330 0.924943
O5    O     O_R   0.499990 0.680320 0.618770 -0.582362
O6    O     O_R   0.500000 0.680360 0.381190 -0.584786
O7    O     O_R   0.651000 0.500000 0.638090 -0.580152
O8    O     O_R   0.651010 0.500040 0.400510 -0.594749
C3    C     C_R   0.496500 0.737625 0.499485 0.785373
C4    C     C_R   0.699063 0.502698 0.525885 0.796834
C5    C     C_R   0.810659 0.516490 0.539516 -0.045231
C6    C     C_R   0.188037 0.507863 0.460558 -0.073215
C7    C     C_R   0.028727 0.420174 0.348795 -0.223912
C8    C     C_R   0.135114 0.433646 0.356241 -0.230843
C9    C     C_R   0.133388 0.576644 0.555676 0.007775
C10   C     C_R   0.024849 0.558897 0.550950 0.150497
C11   C     C_R   0.973635 0.479415 0.446888 0.152190
C12   C     C_R   0.867170 0.460096 0.441241 -0.268847
C13   C     C_R   0.859699 0.594601 0.642527 -0.214805
C14   C     C_R   0.965428 0.617307 0.647175 -0.220404
H1    H     H_    0.828032 0.400529 0.360641 0.136547
H2    H     H_    0.815578 0.641734 0.716302 0.140962
H3    H     H_    0.998616 0.680943 0.726743 0.141079
H4    H     H_    0.176840 0.382218 0.282930 0.152717
C15   C     C_R   0.487330 0.063204 0.624680 0.123473
C16   C     C_R   0.484408 0.129035 0.498404 -0.100836
C17   C     C_R   0.462992 0.064325 0.370664 -0.225347
H5    H     H_    0.452651 0.112753 0.270775 0.159720
C18   C     C_R   0.461381 0.935043 0.370752 -0.219650
H6    H     H_    0.449154 0.886564 0.271168 0.163891
C19   C     C_R   0.482776 0.870340 0.498217 -0.104267
C20   C     C_R   0.486565 0.935932 0.624479 0.133291
C21   C     C_3   0.561299 0.928846 0.753903 -0.492732
C22   C     C_3   0.562549 0.069578 0.754099 -0.459903
H7    H     H_    0.524854 0.888157 0.844055 0.190532
H8    H     H_    0.636611 0.887669 0.733645 0.189141
H9    H     H_    0.527551 0.109997 0.845102 0.196161
H10   H     H_    0.638556 0.110367 0.733579 0.197448
C23   C     C_R   0.558032 0.585353 0.081869 0.237870
N1    N     N_R   0.500660 0.500930 0.148010 -0.196825
C24   C     C_R   0.436705 0.422791 0.065691 -0.086217
C25   C     C_R   0.436991 0.422472 0.916908 -0.081746
H11   H     H_    0.387414 0.358022 0.854208 0.132174
N2    N     N_R   0.500660 0.500890 0.852110 -0.177270
C26   C     C_R   0.558340 0.584733 0.934086 0.215114
C27   C     C_3   0.673256 0.599065 0.942852 -0.513130
C28   C     C_3   0.673652 0.599386 0.102327 -0.156597
H12   H     H_    0.711534 0.515908 0.904209 0.203453
H13   H     H_    0.696979 0.687153 0.895261 0.179768
H14   H     H_    0.711644 0.515393 0.150574 0.170038
H15   H     H_    0.386846 0.358685 0.114728 0.133140
C29   C     C_3   0.714338 0.719165 0.178748 -0.332515
C30   C     C_3   0.662091 0.840004 0.124644 -0.350045
C31   C     C_3   0.698129 0.949073 0.219506 -0.847545
H16   H     H_    0.680026 0.931914 0.329176 0.261725
H17   H     H_    0.782968 0.963653 0.219562 0.248093
H18   H     H_    0.657873 0.034485 0.179853 0.245384
H19   H     H_    0.682317 0.861240 0.017104 0.215897
H20   H     H_    0.576654 0.831140 0.121125 0.213792
H21   H     H_    0.704199 0.708583 0.292304 0.220985
H22   H     H_    0.798965 0.726795 0.170422 0.192102
H23   H     H_    0.989726 0.360478 0.268405 0.139402
C32   C     C_3   0.189590 0.672695 0.654081 -0.395005
C33   C     C_3   0.212684 0.623605 0.805538 -0.299498
C34   C     C_3   0.284915 0.711539 0.895079 -0.847521
H24   H     H_    0.359618 0.722395 0.848881 0.261693
H25   H     H_    0.248465 0.803759 0.901522 0.243357
H26   H     H_    0.300862 0.673490 0.003273 0.241594
H27   H     H_    0.140199 0.612144 0.856531 0.198652
H28   H     H_    0.249012 0.531173 0.804897 0.236680
H29   H     H_    0.262786 0.703264 0.613241 0.203101
H30   H     H_    0.143614 0.758960 0.653908 0.175725

loop_
_geom_bond_atom_site_label_1
_geom_bond_atom_site_label_2
_geom_bond_distance
_ccdc_geom_bond_type
C1    C16   1.446000 S    
C9    C10   1.415996 A    
C14   H3    1.078264 S    
Cu1   Cu2   2.684125 S    
C24   C25   1.419847 A    
Cu1   O7    1.962481 S    
C15   C20   1.374100 A    
C7    H23   1.084170 S    
C21   C22   1.519423 S    
C20   C21   1.491960 S    
C3    C19   1.445410 S    
C21   H8    1.112272 S    
C16   C17   1.407000 A    
O7    C4    1.293362 A    
C31   H17   1.110788 S    
C29   H22   1.111588 S    
C29   C30   1.539661 S    
C28   C29   1.547226 S    
C13   H2    1.082245 S    
C34   H25   1.110655 S    
O5    C3    1.291531 A    
C5    C12   1.392335 A    
C19   C20   1.394419 A    
C33   C34   1.526871 S    
C12   H1    1.085368 S    
C15   C22   1.494415 S    
C27   H12   1.111454 S    
C13   C14   1.387923 A    
C17   C18   1.395833 A    
C9    C32   1.528734 S    
C31   H18   1.110657 S    
C5    C13   1.395006 A    
C11   C12   1.391066 A    
O3    Cu1   1.958643 S    
C18   H6    1.081930 S    
C25   N2    1.368561 A    
C27   H13   1.108096 S    
C32   C33   1.539620 S    
C10   C14   1.411036 A    
C30   H19   1.108053 S    
C8    H4    1.083994 S    
C22   H9    1.111841 S    
O3    C2    1.291287 A    
C23   C26   1.410355 A    
C27   C28   1.520944 S    
C33   H27   1.108513 S    
C7    C11   1.394096 A    
O1    C1    1.292267 A    
C34   H26   1.110651 S    
C23   N1    1.366168 A    
C15   C16   1.395309 A    
C17   H5    1.083162 S    
Cu2   O8    1.958643 S    
C29   H21   1.110307 S    
C7    C8    1.381567 A    
Cu2   O6    1.958536 S    
N2    C26   1.364095 A    
O8    C4    1.291045 A    
C32   H29   1.110542 S    
N1    C24   1.368415 A    
Cu1   O5    1.958036 S    
C25   H11   1.081633 S    
O1    Cu1   1.958538 S    
O2    Cu2   1.958036 S    
Cu2   N1    2.016975 S    
C30   H20   1.109136 S    
O6    C3    1.292636 A    
O4    Cu2   1.962479 S    
C22   H10   1.112208 S    
C28   H14   1.112497 S    
Cu1   N2    2.016386 S    
O2    C1    1.292243 A    
C31   H16   1.110652 S    
C21   H7    1.111503 S    
C23   C28   1.499445 S    
C30   C31   1.526574 S    
O4    C2    1.296469 A    
C6    C9    1.421816 A    
C18   C19   1.405625 A    
C34   H24   1.110693 S    
C2    C6    1.456769 S    
C10   C11   1.421304 A    
C24   H15   1.081682 S    
C6    C8    1.398548 A    
C26   C27   1.491768 S    
C4    C5    1.447087 S    
C32   H30   1.110530 S    
C33   H28   1.107858 S    
