data_mof_unit_63242.cif
_audit_creation_date              2012-12-11T15:00:53-0500
_audit_creation_method            fapswitch 2.2
_symmetry_space_group_name_H-M    P1
_symmetry_Int_Tables_number       1
_space_group_crystal_system       triclinic
_cell_length_a                    13.275179
_cell_length_b                    13.275739
_cell_length_c                    26.821618
_cell_angle_alpha                 96.835134
_cell_angle_beta                  97.070125
_cell_angle_gamma                 61.242644
_cell_volume                      4102.74558

loop_
_atom_site_label
_atom_site_type_symbol
_atom_type_description
_atom_site_fract_x
_atom_site_fract_y
_atom_site_fract_z
_atom_type_partial_charge
Br1   Br    Br    0.633764 0.259090 0.283174 -0.313482
Br2   Br    Br    0.380434 0.601426 0.159453 -0.442542
Br3   Br    Br    0.570786 0.222551 0.827307 -0.334273
Br4   Br    Br    0.415986 0.082850 0.783773 -0.327245
Br5   Br    Br    0.200243 0.586896 0.821137 -0.403905
C1    C     C_R   0.379115 0.722862 0.435148 0.557260
C2    C     C_3   0.722641 0.329293 0.203901 0.166277
C3    C     C_3   0.844707 0.311928 0.197019 0.000815
C4    C     C_R   0.394548 0.373123 0.417675 0.548467
C5    C     C_3   0.856425 0.416515 0.223731 -0.294461
C6    C     C_3   0.842067 0.426014 0.280708 -0.321707
C7    C     C_1   0.864963 0.302934 0.143937 -0.009938
C8    C     C_1   0.799451 0.345057 0.347506 0.020757
C9    C     C_1   0.773202 0.365372 0.390114 0.041479
C10   C     C_3   0.423389 0.690086 0.263241 0.159267
C11   C     C_3   0.396053 0.891887 0.284073 -0.275792
C12   C     C_1   0.328215 0.339134 0.268304 0.076524
C13   C     C_3   0.386582 0.909405 0.227297 -0.268230
C14   C     C_1   0.307026 0.885660 0.100086 0.025833
C15   C     C_3   0.349412 0.808690 0.292033 0.034067
C16   C     C_R   0.724460 0.399293 0.437398 0.549371
C17   C     C_3   0.418960 0.706291 0.205828 0.105237
C18   C     C_3   0.337631 0.834835 0.195442 0.030718
C19   C     C_3   0.216365 0.872039 0.212586 -0.200592
C20   C     C_3   0.222832 0.859971 0.269622 -0.188107
C21   C     C_1   0.326572 0.856218 0.142274 -0.014983
C22   C     C_1   0.355329 0.794101 0.345718 -0.012699
C23   C     C_1   0.342321 0.346728 0.321189 0.020803
C24   C     C_1   0.363186 0.769871 0.388153 0.035197
C25   C     C_3   0.451847 0.320703 0.729303 0.165944
C26   C     C_3   0.300659 0.250965 0.704821 0.145399
C27   C     C_3   0.305020 0.236757 0.762107 0.080406
C28   C     C_R   0.381570 0.724480 0.575525 0.552469
C29   C     C_1   0.297456 0.310044 0.888530 0.072918
C30   C     C_3   0.335267 0.345137 0.698024 -0.010923
C31   C     C_3   0.436460 0.330979 0.786755 0.109529
C32   C     C_3   0.319153 0.336489 0.794526 -0.029479
C33   C     C_3   0.220666 0.452801 0.774981 0.015806
C34   C     C_1   0.361536 0.355865 0.365992 0.034257
C35   C     C_3   0.237914 0.462745 0.719175 0.053516
C36   C     C_1   0.308051 0.328121 0.847314 0.060497
C37   C     C_1   0.345639 0.351513 0.644905 0.074799
C38   C     C_1   0.363126 0.359755 0.603236 0.074421
C39   C     C_1   0.888157 0.294390 0.864565 0.031711
C40   C     C_R   0.395586 0.375835 0.557584 0.542763
C41   C     C_1   0.859999 0.306202 0.820305 0.005249
C42   C     C_1   0.836688 0.320213 0.768083 0.040642
C43   C     C_1   0.819647 0.333747 0.723597 0.036159
C44   C     C_1   0.797421 0.352860 0.671798 -0.008026
C45   C     C_3   0.704010 0.345632 0.261432 0.148809
C46   C     C_1   0.770764 0.373318 0.628120 0.019314
C47   C     C_1   0.293273 0.893614 0.862832 0.045028
C48   C     C_1   0.312938 0.865930 0.819226 0.033505
C49   C     C_1   0.330557 0.842491 0.767400 0.091498
C50   C     C_1   0.342738 0.824759 0.722877 0.099639
C51   C     C_1   0.355348 0.801019 0.670662 0.047891
C52   C     C_R   0.723974 0.403813 0.577770 0.544514
C53   C     C_1   0.366399 0.772795 0.626463 0.051259
C54   C     C_R   0.941865 0.277981 0.055877 0.547670
C55   C     C_R   0.287994 0.271239 0.073262 0.555560
C56   C     C_3   0.922105 0.212324 0.279507 0.138017
C57   C     C_R   0.270866 0.937022 0.053171 0.546669
C58   C     C_R   0.936737 0.279118 0.915614 0.551360
C59   C     C_R   0.281855 0.274351 0.933476 0.555952
C60   C     C_R   0.262634 0.940991 0.912932 0.551582
C61   C     C_1   0.304669 0.302342 0.125230 0.046129
C62   C     C_1   0.313350 0.319605 0.170159 0.027187
C63   C     C_1   0.320659 0.332024 0.223057 0.074654
C64   C     C_3   0.937263 0.201591 0.222344 -0.168549
C65   C     C_1   0.892740 0.293485 0.102117 0.027417
C66   C     C_3   0.816750 0.329987 0.293756 0.039646
Cl1   Cl    Cl    0.699327 0.215405 0.170551 -0.487194
Cl2   Cl    Cl    0.382907 0.584143 0.275302 -0.577943
Cl3   Cl    Cl    0.571020 0.187504 0.708322 -0.407970
Cl4   Cl    Cl    0.375086 0.118144 0.667221 -0.467030
Cl5   Cl    Cl    0.264553 0.580704 0.711210 -0.577521
Cl6   Cl    Cl    0.915035 0.090146 0.297440 -0.555511
Cr1   Cr    Cr6+3 0.585490 0.589720 0.509170 1.068207
Cr2   Cr    Cr6+3 0.329280 0.580760 0.494920 1.075095
Cr3   Cr    Cr6+3 0.585250 0.329540 0.495950 1.094972
Cr4   Cr    Cr6+3 0.077160 0.074530 0.981700 1.093600
Cr5   Cr    Cr6+3 0.079310 0.333830 0.996170 1.068415
Cr6   Cr    Cr6+3 0.334250 0.081620 0.994710 1.086772
H1    H     H_    0.637173 0.436459 0.268845 0.122739
H2    H     H_    0.184458 0.804763 0.276046 0.205581
H3    H     H_    0.170536 0.946145 0.288778 0.154690
H4    H     H_    0.179210 0.818825 0.191353 0.195145
H5    H     H_    0.156741 0.963185 0.204310 0.111943
H6    H     H_    0.209332 0.283140 0.689562 0.081195
H7    H     H_    0.001000 0.209550 0.300577 0.111756
H8    H     H_    0.220478 0.244541 0.769149 0.083819
H9    H     H_    0.155579 0.482132 0.696273 0.141473
H10   H     H_    0.475744 0.387209 0.722365 0.154463
H11   H     H_    0.431409 0.414764 0.802114 0.164061
H12   H     H_    0.657580 0.409405 0.186127 0.146168
H13   H     H_    0.137437 0.451338 0.774791 0.114580
H14   H     H_    0.932572 0.124482 0.203604 0.215225
H15   H     H_    0.024867 0.188418 0.217205 0.065323
H16   H     H_    0.770704 0.512577 0.291345 0.125513
H17   H     H_    0.921930 0.419017 0.302492 0.136228
H18   H     H_    0.790089 0.497331 0.206868 0.133370
H19   H     H_    0.942317 0.407443 0.218338 0.146219
H20   H     H_    0.507334 0.684466 0.197076 0.091910
H21   H     H_    0.514604 0.656463 0.278828 0.087949
H22   H     H_    0.346386 0.976581 0.304924 0.137104
H23   H     H_    0.487681 0.856510 0.299202 0.131174
H24   H     H_    0.473097 0.886177 0.215531 0.139888
H25   H     H_    0.329557 0.002138 0.220845 0.132289
O1    O     O_R   0.700490 0.499650 0.456540 -0.512568
O2    O     O_R   0.362200 0.173970 0.055450 -0.486604
O3    O     O_R   0.326660 0.983110 0.039170 -0.499136
O4    O     O_R   0.479270 0.682700 0.457880 -0.496322
O5    O     O_R   0.165170 0.960730 0.925500 -0.480904
O6    O     O_R   0.978790 0.179600 0.932440 -0.480529
O7    O     O_R   0.960680 0.356080 0.937360 -0.499107
O8    O     O_R   0.182750 0.328100 0.950670 -0.495798
O9    O     O_R   0.356720 0.175530 0.946790 -0.474260
O10   O     O_R   0.321590 0.984560 0.938450 -0.489188
O11   O     O_3   0.163570 0.163330 0.990860 -0.282276
O12   O     O_R   0.339040 0.474950 0.540330 -0.496865
O13   O     O_R   0.304400 0.696100 0.445190 -0.487807
O14   O     O_R   0.337880 0.472540 0.439600 -0.492675
O15   O     O_R   0.493250 0.300300 0.435260 -0.486435
O16   O     O_R   0.681040 0.341130 0.451400 -0.472595
O17   O     O_R   0.701750 0.502250 0.565200 -0.498320
O18   O     O_R   0.480430 0.685110 0.558610 -0.488006
O19   O     O_R   0.305650 0.698700 0.553850 -0.490326
O20   O     O_R   0.494500 0.302900 0.543920 -0.483836
O21   O     O_R   0.682200 0.343540 0.552130 -0.486340
O22   O     O_3   0.500010 0.500010 0.500010 -0.271840
O23   O     O_R   0.170650 0.959160 0.034150 -0.491523
O24   O     O_R   0.983870 0.178140 0.033160 -0.486149
O25   O     O_R   0.966160 0.354510 0.046020 -0.505256
O26   O     O_R   0.187830 0.326650 0.051390 -0.495952

loop_
_geom_bond_atom_site_label_1
_geom_bond_atom_site_label_2
_ccdc_geom_bond_type
C50   C51   S    
C28   C53   S    
C59   O8    A    
C22   C24   T    
C28   O19   A    
C45   H1    S    
C2    C3    S    
C48   C49   S    
C56   H7    S    
Cr2   O13   S    
C3    C64   S    
C25   C30   S    
C9    C16   S    
C52   O21   A    
C31   C32   S    
Cr5   O7    S    
C25   H10   S    
C52   O17   A    
C25   Cl3   S    
C6    C66   S    
Cr4   O23   S    
C27   H8    S    
C15   C20   S    
C14   C57   S    
C4    C34   S    
C6    H16   S    
C18   C21   S    
Cr6   O11   S    
C30   C37   S    
C14   C21   T    
C13   H24   S    
C20   H3    S    
Cr2   O19   S    
C49   C50   T    
C58   O6    A    
C10   C17   S    
C57   O3    A    
C42   C43   T    
C56   Cl6   S    
C26   H6    S    
Cr4   O6    S    
Br2   C17   S    
C60   O10   A    
C46   C52   S    
C10   H21   S    
Br1   C45   S    
C11   H23   S    
C58   O7    A    
C64   H15   S    
C56   C66   S    
C61   C62   T    
C55   C61   S    
C8    C9    T    
C29   C36   T    
C60   O5    A    
Cr5   O11   S    
C29   C59   S    
C39   C41   T    
C39   C58   S    
C10   C15   S    
Cr2   O14   S    
C54   O24   A    
Cr3   O22   S    
C62   C63   S    
C5    H19   S    
C19   C20   S    
C2    Cl1   S    
Cr4   O24   S    
Cr3   O20   S    
C23   C34   T    
C44   C46   T    
Cr2   O22   S    
C54   O25   A    
C17   H20   S    
C13   C18   S    
C6    H17   S    
Cr5   O26   S    
C45   C66   S    
C32   C33   S    
C31   H11   S    
C38   C40   S    
C26   Cl4   S    
C26   C27   S    
C11   C15   S    
Cr2   O12   S    
C20   H2    S    
C4    O14   A    
Cr6   O2    S    
C27   C32   S    
C35   H9    S    
C19   H5    S    
Br4   C27   S    
C11   H22   S    
C40   O12   A    
C11   C13   S    
C43   C44   S    
C10   Cl2   S    
Cr6   O3    S    
C37   C38   T    
C33   H13   S    
Cr1   O18   S    
C55   O26   A    
C2    H12   S    
C47   C48   T    
Cr6   O10   S    
Cr3   O16   S    
C56   C64   S    
C7    C65   T    
C41   C42   S    
C12   C63   T    
Cr3   O21   S    
C18   C19   S    
C12   C23   S    
C1    O4    A    
C57   O23   A    
C5    H18   S    
C2    C45   S    
C16   O1    A    
C15   C22   S    
C8    C66   S    
Cr4   O11   S    
C25   C31   S    
Cr6   O9    S    
C16   O16   A    
C30   C35   S    
Cr1   O22   S    
Cr5   O8    S    
C33   C35   S    
Br3   C31   S    
Cr5   O25   S    
C28   O18   A    
C4    O15   A    
C51   C53   T    
Cr1   O1    S    
C26   C30   S    
C32   C36   S    
C19   H4    S    
C13   H25   S    
C55   O2    A    
C5    C6    S    
C59   O9    A    
C54   C65   S    
C35   Cl5   S    
C1    C24   S    
C3    C5    S    
Cr4   O5    S    
C17   C18   S    
Cr1   O4    S    
C40   O20   A    
C1    O13   A    
Br5   C33   S    
Cr1   O17   S    
C47   C60   S    
C3    C7    S    
Cr3   O15   S    
C64   H14   S    
