data_mof_unit_11037.cif
_audit_creation_date              2013-03-05T15:56:36-0500
_audit_creation_method            fapswitch 2.2
_symmetry_space_group_name_H-M    P1
_symmetry_Int_Tables_number       1
_space_group_crystal_system       triclinic
_cell_length_a                    6.966579
_cell_length_b                    14.518267
_cell_length_c                    16.026963
_cell_angle_alpha                 90.275952
_cell_angle_beta                  89.795167
_cell_angle_gamma                 89.85151
_cell_volume                      1620.97489736

loop_
_atom_site_label
_atom_site_type_symbol
_atom_site_description
_atom_site_fract_x
_atom_site_fract_y
_atom_site_fract_z
_atom_type_partial_charge
O1    O     O_R   0.361600 0.167310 0.164620 -0.597924
O2    O     O_R   0.638400 0.832690 0.835380 -0.618770
O3    O     O_R   0.691080 0.157570 0.338750 -0.615928
O4    O     O_R   0.308920 0.842430 0.661250 -0.604928
O5    O     O_R   0.861410 0.336420 0.339360 -0.591416
O6    O     O_R   0.138590 0.663580 0.660640 -0.592353
C1    C     C_R   0.522124 0.135439 0.367396 0.903784
C2    C     C_R   0.477786 0.864581 0.632834 0.949083
O7    O     O_R   0.691320 0.156280 0.165240 -0.576409
O8    O     O_R   0.308680 0.843720 0.834760 -0.587735
O9    O     O_R   0.861640 0.335130 0.164600 -0.558748
O10   O     O_R   0.138360 0.664870 0.835400 -0.556488
C3    C     C_R   0.522755 0.134264 0.136125 1.022211
C4    C     C_R   0.477366 0.865779 0.864119 0.979778
O11   O     O_R   0.361370 0.168600 0.339370 -0.609349
O12   O     O_R   0.638630 0.831400 0.660630 -0.594215
O13   O     O_3   0.527990 0.310540 0.251980 -0.256953
O14   O     O_3   0.472010 0.689460 0.748020 -0.256006
V1    V     V_3+5 0.802830 0.240980 0.251990 1.207319
V2    V     V_3+5 0.197170 0.759020 0.748010 1.206031
O15   O     O_R   0.191360 0.346160 0.165220 -0.578004
O16   O     O_R   0.808640 0.653840 0.834780 -0.585208
C5    C     C_R   0.022646 0.367434 0.135755 1.095978
C6    C     C_R   0.977289 0.632514 0.864212 1.078430
O17   O     O_R   0.191130 0.347440 0.338740 -0.610175
O18   O     O_R   0.808870 0.652560 0.661260 -0.604193
C7    C     C_R   0.021867 0.368331 0.367768 1.027007
C8    C     C_R   0.978168 0.631804 0.632102 1.040938
V3    V     V_3+5 0.302840 0.262750 0.251990 1.201187
V4    V     V_3+5 0.697160 0.737250 0.748010 1.197809
O19   O     O_3   0.027820 0.193180 0.251990 -0.303333
O20   O     O_3   0.972180 0.806820 0.748010 -0.304972
C9    C     C_3   0.870830 0.433904 0.512695 -0.107295
C10   C     C_3   0.129389 0.566553 0.486869 -0.105147
C11   C     C_3   0.035992 0.458851 0.571790 0.367701
C12   C     C_3   0.964394 0.541514 0.427722 0.368447
C13   C     C_3   0.990850 0.563015 0.562509 -0.305452
C14   C     C_3   0.009407 0.437373 0.437111 -0.299150
C15   C     C_3   0.826137 0.537825 0.502624 -0.071554
C16   C     C_3   0.174133 0.462694 0.496888 -0.071758
C17   C     C_R   0.858778 0.490294 0.937666 -0.047012
C18   C     C_R   0.140624 0.509712 0.062366 -0.048192
C19   C     C_R   0.871004 0.425233 0.002834 0.311347
C20   C     C_R   0.128304 0.574766 0.997226 0.317236
C21   C     C_R   0.012312 0.434644 0.065652 -0.317575
C22   C     C_R   0.987276 0.565313 0.934343 -0.316416
C23   C     C_R   0.623716 0.984541 0.431931 0.002678
C24   C     C_R   0.375423 0.014306 0.568642 0.012604
C25   C     C_R   0.611618 0.919000 0.496329 0.005920
C26   C     C_R   0.386710 0.080359 0.504666 0.000891
C27   C     C_R   0.488119 0.933647 0.564928 -0.190614
C28   C     C_R   0.511375 0.066167 0.435513 -0.216334
C29   C     C_R   0.641409 0.990973 0.062579 0.010688
C30   C     C_R   0.358904 0.010181 0.938362 -0.014271
C31   C     C_R   0.630192 0.925813 0.997222 0.013980
C32   C     C_R   0.371860 0.075122 0.003812 0.040084
C33   C     C_R   0.488264 0.934480 0.934012 -0.194459
C34   C     C_R   0.512394 0.065845 0.066495 -0.178071
N1    N     N_R   0.077742 0.410754 0.649332 0.225757
O21   O     O_R   0.115634 0.323013 0.647894 -0.423818
O22   O     O_R   0.078009 0.454944 0.720082 -0.443265
N2    N     N_R   0.923571 0.589022 0.349775 0.225989
O23   O     O_R   0.891298 0.677245 0.350204 -0.435030
O24   O     O_R   0.920894 0.543988 0.279477 -0.442281
N3    N     N_3   0.739864 0.358141 0.528987 -0.209245
H1    H     H_    0.703629 0.360797 0.592290 0.145305
H2    H     H_    0.816244 0.296791 0.520166 0.129654
N4    N     N_3   0.260336 0.642332 0.470618 -0.207092
H3    H     H_    0.296438 0.639776 0.407298 0.144763
H4    H     H_    0.183981 0.703668 0.479554 0.129876
N5    N     N_3   0.645573 0.586969 0.501682 -0.190392
H5    H     H_    0.573444 0.564250 0.448785 0.127616
H6    H     H_    0.568902 0.570003 0.555400 0.143461
N6    N     N_3   0.355252 0.414064 0.497665 -0.195495
H7    H     H_    0.427377 0.436990 0.550489 0.129448
H8    H     H_    0.431454 0.431245 0.443877 0.141953
N7    N     N_3   0.722523 0.477510 0.871636 -0.162893
H9    H     H_    0.742855 0.412130 0.845372 0.169711
H10   H     H_    0.584073 0.481447 0.896699 0.191217
N8    N     N_3   0.276891 0.522527 0.128390 -0.163775
H11   H     H_    0.415345 0.518661 0.103320 0.191336
H12   H     H_    0.256441 0.587888 0.154682 0.170648
N9    N     N_R   0.745807 0.346799 0.002121 0.226338
O25   O     O_R   0.816904 0.264049 0.996520 -0.444612
O26   O     O_R   0.560763 0.357777 0.007404 -0.429968
N10   N     N_R   0.253695 0.653076 0.997873 0.225667
O27   O     O_R   0.438569 0.641825 0.992143 -0.443311
O28   O     O_R   0.182991 0.735920 0.003464 -0.442427
N11   N     N_3   0.746557 0.964641 0.361999 -0.205783
H13   H     H_    0.859752 0.011676 0.361450 0.141307
H14   H     H_    0.667428 0.970906 0.307009 0.101889
N12   N     N_3   0.251738 0.030163 0.639067 -0.210719
H15   H     H_    0.292203 0.091955 0.667715 0.138574
H16   H     H_    0.111135 0.037485 0.617407 0.131965
N13   N     N_3   0.720974 0.835255 0.490939 -0.201371
H17   H     H_    0.866431 0.852097 0.486115 0.128524
H18   H     H_    0.680429 0.800279 0.436679 0.168016
N14   N     N_3   0.274385 0.162973 0.513175 -0.194068
H19   H     H_    0.364138 0.220041 0.506327 0.129690
H20   H     H_    0.169085 0.163916 0.466954 0.129522
N15   N     N_3   0.782877 0.979819 0.126669 -0.207419
H21   H     H_    0.762066 0.915862 0.154972 0.134309
H22   H     H_    0.918797 0.979968 0.098750 0.135315
N16   N     N_3   0.216015 0.025086 0.875520 -0.211716
H23   H     H_    0.281489 0.023549 0.816770 0.106656
H24   H     H_    0.112580 0.973315 0.879459 0.145405
N17   N     N_3   0.762346 0.849752 0.998496 -0.195747
H25   H     H_    0.859269 0.856136 0.949001 0.149153
H26   H     H_    0.686495 0.788030 0.993054 0.180203
N18   N     N_3   0.243376 0.152584 0.005628 -0.173660
H27   H     H_    0.260747 0.189742 0.950399 0.169562
H28   H     H_    0.102635 0.127858 0.008049 0.150534

loop_
_geom_bond_atom_site_label_1
_geom_bond_atom_site_label_2
_geom_bond_distance
_ccdc_geom_bond_type
V4    O20   2.168192 S    
C18   N8    1.435869 S    
N15   H21   1.045591 S    
C5    C21   1.493462 S    
C10   C13   1.547979 S    
C19   N9    1.436188 S    
C29   C31   1.410561 A    
N13   H17   1.045717 S    
O4    C2    1.301668 A    
V1    O19   1.712523 S    
N16   H24   1.044567 S    
C9    N3    1.454915 S    
C23   C25   1.409627 A    
N7    H9    1.045602 S    
O9    V1    2.003788 S    
C9    C15   1.549064 S    
N6    H8    1.042427 S    
C10   C16   1.548174 S    
C30   N16   1.435378 S    
C11   C13   1.551792 S    
C1    C28   1.489725 S    
O3    C1    1.303442 A    
C17   N7    1.435821 S    
C9    C11   1.535830 S    
N10   O28   1.301080 A    
C7    C14   1.495175 S    
O12   V4    2.003875 S    
O13   V3    1.716772 S    
C11   N1    1.458279 S    
C32   N18   1.435652 S    
O7    C3    1.305129 A    
N18   H27   1.045623 S    
N2    O24   1.300134 A    
C1    O11   1.300233 A    
O5    C7    1.294516 A    
O7    V1    2.011191 S    
C24   C27   1.409071 A    
O6    C8    1.294343 A    
C29   N15   1.435479 S    
N4    H3    1.045126 S    
N3    H2    1.045103 S    
C26   C28   1.419536 A    
C17   C22   1.412701 A    
O3    V1    2.004842 S    
O14   V4    1.716773 S    
N11   H14   1.045405 S    
C10   C12   1.535786 S    
C24   C26   1.409405 A    
N1    O21   1.300317 A    
C2    O12   1.299595 A    
V3    O19   2.168195 S    
C17   C19   1.414238 A    
C18   C20   1.413878 A    
C20   N10   1.435586 S    
N12   H16   1.045713 S    
N16   H23   1.044883 S    
C20   C22   1.416427 A    
O11   V3    2.003877 S    
N7    H10   1.044816 S    
O17   V3    2.005326 S    
C30   C32   1.410312 A    
C26   N14   1.436087 S    
N1    O22   1.300134 A    
N6    H7    1.039803 S    
N8    H12   1.045622 S    
O8    C4    1.307449 A    
C10   N4    1.454877 S    
N5    H6    1.042412 S    
N10   O27   1.300707 A    
C3    C34   1.492491 S    
C25   C27   1.408627 A    
O15   V3    2.005642 S    
C31   N17   1.436161 S    
C12   N2    1.458442 S    
C18   C21   1.412399 A    
N2    O23   1.299839 A    
N9    O25   1.300878 A    
N17   H25   1.044496 S    
O10   V2    2.003790 S    
O1    V3    2.005633 S    
C25   N13   1.435201 S    
C19   C21   1.416982 A    
C2    C27   1.485054 S    
N4    H4    1.045099 S    
N9    O26   1.300933 A    
C23   N11   1.435535 S    
N14   H20   1.044516 S    
C31   C33   1.423907 A    
O16   C6    1.304707 A    
O1    C3    1.300237 A    
C12   C14   1.551466 S    
V2    O20   1.712524 S    
C16   N6    1.444396 S    
C4    C33   1.498551 S    
O16   V4    2.005645 S    
C12   C15   1.537620 S    
N8    H11   1.044840 S    
C29   C34   1.409696 A    
N13   H18   1.045057 S    
O18   V4    2.005324 S    
C23   C28   1.419308 A    
O5    V1    2.008880 S    
O17   C7    1.300681 A    
O6    V2    2.008880 S    
O10   C6    1.301594 A    
O18   C8    1.301188 A    
C9    C14   1.547403 S    
O2    V4    2.005636 S    
C6    C22   1.493599 S    
O15   C5    1.305133 A    
C11   C16   1.537206 S    
N5    H5    1.039831 S    
C13   C15   1.542181 S    
C14   C16   1.541612 S    
N17   H26   1.044912 S    
O8    V2    2.011191 S    
C8    C13   1.495782 S    
O9    C5    1.301119 A    
N12   H15   1.045636 S    
O13   V1    2.162386 S    
C32   C34   1.411940 A    
O14   V2    2.162387 S    
N3    H1    1.045124 S    
O2    C4    1.301102 A    
N18   H28   1.045659 S    
O4    V2    2.004839 S    
N15   H22   1.045854 S    
N14   H19   1.045248 S    
C24   N12   1.434896 S    
C15   N5    1.444729 S    
N11   H13   1.044536 S    
C30   C33   1.420770 A    
