data_mof_unit_20273.cif
_audit_creation_date              2012-12-11T16:09:00-0500
_audit_creation_method            fapswitch 2.2
_symmetry_space_group_name_H-M    P1
_symmetry_Int_Tables_number       1
_space_group_crystal_system       triclinic
_cell_length_a                    12.955768
_cell_length_b                    13.291914
_cell_length_c                    27.733043
_cell_angle_alpha                 94.976654
_cell_angle_beta                  90.375158
_cell_angle_gamma                 119.160735
_cell_volume                      4148.24810693

loop_
_atom_site_label
_atom_site_type_symbol
_atom_type_description
_atom_site_fract_x
_atom_site_fract_y
_atom_site_fract_z
_atom_type_partial_charge
C1    C     C_R   0.627861 0.894265 0.427652 0.559957
C2    C     C_R   0.187472 0.750906 0.297958 0.011758
C3    C     C_R   0.176023 0.746346 0.197456 0.014014
C4    C     C_R   0.600806 0.221754 0.440507 0.545330
C5    C     C_R   0.188912 0.661063 0.218684 -0.122356
C6    C     C_R   0.192515 0.662196 0.268768 -0.127754
C7    C     C_R   0.160699 0.738822 0.147576 -0.125977
C8    C     C_R   0.128348 0.812396 0.126654 -0.006672
C9    C     C_R   0.196485 0.938701 0.356831 -0.135731
C10   C     C_R   0.177652 0.931009 0.306587 0.014917
C11   C     C_R   0.178143 0.839175 0.277055 0.061971
C12   C     C_R   0.657555 0.422148 0.237802 -0.104530
C13   C     C_R   0.164094 0.015917 0.285097 -0.126663
C14   C     C_R   0.150201 0.009205 0.234684 -0.126781
C15   C     C_R   0.152803 0.919220 0.205220 0.014199
C16   C     C_R   0.269141 0.876023 0.425515 0.545278
C17   C     C_R   0.169934 0.835560 0.226567 0.061185
C18   C     C_R   0.131356 0.906780 0.155040 -0.134338
C19   C     C_R   0.212060 0.853579 0.377189 -0.004805
C20   C     C_R   0.752829 0.928575 0.358390 -0.167855
C21   C     C_R   0.758803 0.918215 0.308548 0.004180
C22   C     C_R   0.763313 0.909258 0.207970 0.001933
C23   C     C_R   0.649154 0.405872 0.287094 -0.105036
C24   C     C_R   0.857398 0.999269 0.236861 -0.126198
C25   C     C_R   0.855738 0.003063 0.286928 -0.124259
C26   C     C_R   0.768724 0.902950 0.158213 -0.158380
C27   C     C_R   0.683128 0.806356 0.128643 -0.001456
C28   C     C_R   0.627045 0.899312 0.565205 0.541751
C29   C     C_R   0.560035 0.753283 0.352638 0.129871
C30   C     C_R   0.564805 0.742112 0.301758 0.021178
C31   C     C_R   0.663284 0.826930 0.279833 0.035220
C32   C     C_R   0.471525 0.651900 0.272097 -0.151389
C33   C     C_R   0.473699 0.647957 0.221874 -0.130220
C34   C     C_R   0.671073 0.321854 0.304497 0.036172
C35   C     C_R   0.571552 0.730933 0.199576 0.042516
C36   C     C_R   0.666133 0.821851 0.229085 0.032005
C37   C     C_R   0.578944 0.723923 0.148679 0.127051
C38   C     C_R   0.650249 0.853064 0.380136 0.015285
C39   C     C_R   0.742195 0.296575 0.651023 -0.138857
C40   C     C_R   0.604018 0.228202 0.578127 0.544912
C41   C     C_R   0.758427 0.322288 0.701625 0.025980
C42   C     C_R   0.769709 0.352186 0.803614 -0.002521
C43   C     C_R   0.856405 0.337512 0.779290 -0.118480
C44   C     C_R   0.851795 0.321495 0.728505 0.019727
C45   C     C_R   0.687451 0.354246 0.205549 0.036429
C46   C     C_R   0.776257 0.369087 0.854222 -0.136367
C47   C     C_R   0.689428 0.384144 0.878257 -0.012937
C48   C     C_R   0.572909 0.328039 0.650325 -0.133220
C49   C     C_R   0.583473 0.348786 0.700366 -0.022103
C50   C     C_R   0.674016 0.342926 0.726385 0.034632
C51   C     C_R   0.499173 0.367593 0.724478 -0.111196
C52   C     C_R   0.272494 0.879811 0.563584 0.544747
C53   C     C_R   0.499071 0.375345 0.775095 0.138245
C54   C     C_R   0.588490 0.367538 0.801361 0.019862
C55   C     C_R   0.677600 0.354468 0.777090 0.025154
C56   C     C_1   0.696501 0.373143 0.154969 -0.064413
C57   C     C_R   0.592279 0.375320 0.851729 -0.121724
C58   C     C_R   0.645267 0.292245 0.626104 -0.007319
C59   C     C_1   0.226961 0.864324 0.610974 -0.019870
C60   C     C_R   0.228094 0.781563 0.729290 0.034451
C61   C     C_R   0.212623 0.776924 0.779579 -0.080720
C62   C     C_R   0.114900 0.892504 0.778289 -0.109168
C63   C     C_R   0.129267 0.898101 0.728577 -0.117706
C64   C     C_1   0.633250 0.269770 0.394989 -0.018280
C65   C     C_R   0.184817 0.842789 0.703865 0.036404
C66   C     C_R   0.156609 0.832129 0.803853 0.019531
C67   C     C_1   0.653471 0.298122 0.354432 -0.061747
C68   C     C_1   0.132581 0.817851 0.854183 -0.059291
C69   C     C_1   0.202502 0.853966 0.652791 -0.069258
C70   C     C_1   0.104310 0.798959 0.895161 -0.012420
C71   C     C_1   0.641084 0.868024 0.612038 -0.023524
C72   C     C_R   0.647294 0.916947 0.738611 -0.117996
C73   C     C_R   0.648738 0.903851 0.788042 -0.114617
C74   C     C_R   0.646671 0.721330 0.768783 -0.112129
C75   C     C_R   0.645569 0.734612 0.719290 -0.112156
C76   C     C_R   0.701870 0.254512 0.272317 -0.104089
C77   C     C_R   0.647126 0.833139 0.704141 0.029981
C78   C     C_1   0.704934 0.397663 0.113746 -0.022095
C79   C     C_R   0.648943 0.806264 0.803281 0.025916
C80   C     C_1   0.662276 0.797690 0.854103 -0.065691
C81   C     C_1   0.645944 0.848794 0.653453 -0.071284
C82   C     C_1   0.681432 0.789431 0.895775 -0.017370
C83   C     C_R   0.065692 0.773132 0.079012 0.546613
C84   C     C_R   0.717315 0.441756 0.067415 0.548371
C85   C     C_R   0.719810 0.783158 0.080822 0.546750
C86   C     C_R   0.056610 0.766160 0.941344 0.545766
C87   C     C_R   0.710269 0.434913 0.928689 0.545578
C88   C     C_R   0.710318 0.270826 0.222980 -0.105083
C89   C     C_R   0.197925 0.755702 0.347831 -0.126315
C90   C     C_R   0.715951 0.775978 0.942987 0.545156
C91   C     C_3   0.459506 0.520231 0.115466 -0.273946
C92   C     C_3   0.476728 0.573922 0.389474 -0.303524
C93   C     C_3   0.947484 0.303503 0.704838 -0.283497
C94   C     C_3   0.907177 0.174731 0.693770 -0.436386
C95   C     C_3   0.300163 0.360753 0.776016 -0.313156
C96   C     C_3   0.289892 0.723387 0.701854 -0.269470
C97   C     C_3   0.327901 0.653869 0.731448 -0.451219
Cr1   Cr    Cr6+3 0.416430 0.829200 0.492370 1.032690
Cr2   Cr    Cr6+3 0.674630 0.087020 0.504170 1.014569
Cr3   Cr    Cr6+3 0.408920 0.083740 0.503490 1.017483
Cr4   Cr    Cr6+3 0.914010 0.832750 0.013970 1.019595
Cr5   Cr    Cr6+3 0.922310 0.578600 0.003000 1.021617
Cr6   Cr    Cr6+3 0.656280 0.574630 0.003870 1.002587
H1    H     H_    0.717825 0.188391 0.285259 0.118577
H2    H     H_    0.394982 0.584105 0.287051 0.105087
H3    H     H_    0.733933 0.218145 0.198500 0.111734
H4    H     H_    0.851263 0.375648 0.874695 0.123870
H5    H     H_    0.798476 0.270983 0.631112 0.133174
H6    H     H_    0.927307 0.336868 0.800040 0.102394
H7    H     H_    0.523698 0.383841 0.870623 0.163244
H8    H     H_    0.432469 0.374192 0.703423 0.106901
H9    H     H_    0.500056 0.327986 0.630780 0.129443
H10   H     H_    0.640109 0.487295 0.224781 0.111303
H11   H     H_    0.242491 0.729805 0.800343 0.113597
H12   H     H_    0.137257 0.074105 0.218753 0.097988
H13   H     H_    0.069983 0.934136 0.796696 0.118858
H14   H     H_    0.096924 0.945673 0.709323 0.110976
H15   H     H_    0.647389 0.993001 0.727272 0.118115
H16   H     H_    0.651607 0.970549 0.814318 0.116475
H17   H     H_    0.647942 0.645984 0.780189 0.120782
H18   H     H_    0.644334 0.668745 0.692999 0.113428
H19   H     H_    0.624172 0.457660 0.311443 0.105210
H20   H     H_    0.161195 0.667409 0.125643 0.135632
H21   H     H_    0.207093 0.688081 0.363286 0.128139
H22   H     H_    0.192855 0.591805 0.196556 0.106241
H23   H     H_    0.163492 0.086898 0.307241 0.101488
H24   H     H_    0.200954 0.594750 0.284698 0.093853
H25   H     H_    0.108135 0.964892 0.138776 0.122072
H26   H     H_    0.468282 0.663688 0.085390 0.253157
H27   H     H_    0.463309 0.489020 0.077466 0.176108
H28   H     H_    0.369272 0.463215 0.127163 0.118389
H29   H     H_    0.525091 0.512559 0.138757 0.157324
H30   H     H_    0.379833 0.645226 0.361138 0.240184
H31   H     H_    0.479626 0.521812 0.356471 0.127616
H32   H     H_    0.400885 0.517416 0.410462 0.137835
H33   H     H_    0.559522 0.606716 0.412491 0.155172
H34   H     H_    0.205988 0.013697 0.379521 0.122287
H35   H     H_    0.825880 0.130865 0.669337 0.164412
H36   H     H_    0.978137 0.164095 0.675849 0.138225
H37   H     H_    0.888971 0.132522 0.727930 0.155477
H38   H     H_    0.974370 0.348214 0.671409 0.138134
H39   H     H_    0.028958 0.343329 0.729279 0.130915
H40   H     H_    0.449235 0.473597 0.821746 0.246696
H41   H     H_    0.238687 0.363427 0.803143 0.141591
H42   H     H_    0.261127 0.270697 0.758291 0.158758
H43   H     H_    0.309926 0.420986 0.748849 0.126721
H44   H     H_    0.393325 0.711058 0.761222 0.169242
H45   H     H_    0.846662 0.969236 0.143009 0.136312
H46   H     H_    0.249738 0.582717 0.746470 0.136407
H47   H     H_    0.370389 0.614849 0.707591 0.145357
H48   H     H_    0.229287 0.663367 0.671270 0.150917
H49   H     H_    0.369979 0.791036 0.686263 0.160586
H50   H     H_    0.823884 0.002766 0.379724 0.134689
H51   H     H_    0.932790 0.066225 0.220706 0.096589
H52   H     H_    0.929079 0.073739 0.308733 0.101260
H53   H     H_    0.398087 0.578656 0.200937 0.135614
N1    N     N_2   0.480874 0.638354 0.118034 -0.527127
N2    N     N_2   0.462518 0.669448 0.376245 -0.489302
N3    N     N_2   0.413740 0.395790 0.800192 -0.526596
O1    O     O_R   0.296680 0.802170 0.437540 -0.516808
O2    O     O_R   0.637200 0.461990 0.052510 -0.528561
O3    O     O_R   0.664790 0.681920 0.057970 -0.493159
O4    O     O_R   0.525380 0.838530 0.443500 -0.459056
O5    O     O_R   0.815840 0.852920 0.961840 -0.506239
O6    O     O_R   0.012100 0.822630 0.963670 -0.494288
O7    O     O_R   0.037010 0.668460 0.953040 -0.512075
O8    O     O_R   0.813390 0.478970 0.949660 -0.499034
O9    O     O_R   0.632250 0.456930 0.945520 -0.524331
O10   O     O_R   0.660200 0.677230 0.958780 -0.500432
O11   O     O_3   0.830870 0.661990 0.006950 -0.240198
O12   O     O_R   0.662610 0.183990 0.557860 -0.505817
O13   O     O_R   0.702130 0.995190 0.446810 -0.529801
O14   O     O_R   0.661770 0.181390 0.458760 -0.493907
O15   O     O_R   0.499820 0.198480 0.455280 -0.512906
O16   O     O_R   0.311660 0.976250 0.449080 -0.501388
O17   O     O_R   0.297580 0.804960 0.544440 -0.512426
O18   O     O_R   0.526220 0.841130 0.542590 -0.496356
O19   O     O_R   0.703030 0.997990 0.553710 -0.515222
O20   O     O_R   0.500730 0.201280 0.562180 -0.518576
O21   O     O_R   0.312500 0.978850 0.548170 -0.493901
O22   O     O_3   0.499990 0.999990 0.500010 -0.244947
O23   O     O_R   0.820790 0.857990 0.068830 -0.526923
O24   O     O_R   0.016700 0.827330 0.062850 -0.502509
O25   O     O_R   0.041970 0.673520 0.060040 -0.519639
O26   O     O_R   0.817980 0.483660 0.048840 -0.490005

loop_
_geom_bond_atom_site_label_1
_geom_bond_atom_site_label_2
_ccdc_geom_bond_type
Cr5   O11   S    
C15   C18   A    
C66   C68   S    
C63   C65   A    
C52   O17   A    
C76   H1    S    
C85   O23   A    
C73   H16   S    
C16   O1    A    
C8    C83   S    
C94   H37   S    
C35   C36   A    
C86   O7    A    
H26   N1    S    
Cr1   O4    S    
C33   H53   S    
C7    C8    A    
C39   C41   A    
C91   H27   S    
C2    C6    A    
C53   C54   A    
C21   C31   A    
C12   C23   A    
C26   C27   A    
Cr5   O8    S    
C95   N3    S    
C35   C37   A    
C6    H24   S    
C3    C7    A    
C30   C31   A    
C63   H14   S    
C91   H28   S    
C25   H52   S    
C53   N3    S    
C14   H12   S    
C96   H49   S    
C56   C78   T    
C92   N2    S    
H30   N2    S    
C42   C46   A    
C37   N1    S    
C27   C85   S    
C44   C93   S    
C18   H25   S    
C46   C47   A    
C9    H34   S    
C61   C66   A    
C9    C19   A    
C87   O8    A    
C62   C63   A    
C57   H7    S    
C45   C56   S    
C49   C51   A    
C95   H42   S    
C29   C38   A    
Cr6   O11   S    
C97   H47   S    
C29   C30   A    
C28   O18   A    
C76   C88   A    
Cr4   O24   S    
C95   H41   S    
Cr5   O7    S    
C4    O15   A    
C13   C14   A    
C96   C97   S    
C85   O3    A    
C97   H44   S    
C84   O26   A    
C92   H33   S    
C86   O6    A    
C2    C11   A    
C24   H51   S    
C88   H3    S    
C23   H19   S    
C4    O14   A    
C39   H5    S    
Cr6   O2    S    
Cr5   O26   S    
C40   C58   S    
C20   H50   S    
C62   C66   A    
C64   C67   T    
C45   C88   A    
C24   C25   A    
Cr2   O19   S    
C80   C82   T    
C74   C75   A    
C72   C73   A    
C91   H29   S    
C96   H48   S    
C8    C18   A    
C79   C80   S    
C90   O5    A    
C60   C61   A    
C51   C53   A    
C47   C87   S    
C2    C89   A    
C26   H45   S    
C43   C44   A    
C52   O21   A    
C62   H13   S    
C72   C77   A    
C19   C89   A    
C52   C59   S    
C42   C55   A    
C47   C57   A    
C40   O20   A    
C20   C38   A    
C87   O9    A    
Cr2   O14   S    
C77   C81   S    
C23   C34   A    
C46   H4    S    
Cr3   O16   S    
C14   C15   A    
C73   C79   A    
C83   O24   A    
Cr4   O11   S    
C84   O2    A    
C93   C94   S    
Cr1   O18   S    
Cr4   O6    S    
Cr3   O22   S    
C75   C77   A    
C1    C38   S    
C59   C69   T    
C13   H23   S    
C60   C96   S    
C16   O16   A    
C48   C49   A    
C48   H9    S    
Cr1   O1    S    
C60   C65   A    
C32   H2    S    
Cr3   O15   S    
C94   H35   S    
C41   C44   A    
C22   C24   A    
C92   H32   S    
C42   C43   A    
C72   H15   S    
C70   C86   S    
C41   C50   A    
C93   H38   S    
C12   H10   S    
C9    C10   A    
C94   H36   S    
C15   C17   A    
C97   H46   S    
C21   C25   A    
C54   C55   A    
C11   C17   A    
Cr6   O3    S    
C51   H8    S    
Cr1   O17   S    
C75   H18   S    
Cr4   O5    S    
C92   H31   S    
C7    H20   S    
C12   C45   A    
C3    C5    A    
C10   C13   A    
C34   C67   S    
C48   C58   A    
C29   N2    S    
Cr2   O13   S    
C89   H21   S    
C22   C36   A    
C4    C64   S    
C1    O13   A    
C50   C55   A    
C82   C90   S    
C74   C79   A    
Cr5   O25   S    
C32   C33   A    
Cr1   O22   S    
C30   C32   A    
C39   C58   A    
C5    C6    A    
C27   C37   A    
C16   C19   S    
C65   C69   S    
C90   O10   A    
C33   C35   A    
C83   O25   A    
C3    C17   A    
H40   N3    S    
C91   N1    S    
C10   C11   A    
C93   H39   S    
C74   H17   S    
C28   C71   S    
C78   C84   S    
Cr6   O9    S    
Cr2   O12   S    
C20   C21   A    
C1    O4    A    
C68   C70   T    
C49   C50   A    
C22   C26   A    
C5    H22   S    
C61   H11   S    
Cr6   O10   S    
C95   H43   S    
C31   C36   A    
Cr2   O22   S    
C43   H6    S    
Cr3   O20   S    
C28   O19   A    
C40   O12   A    
Cr4   O23   S    
C34   C76   A    
C71   C81   T    
C54   C57   A    
Cr3   O21   S    
