data_mof_unit_50994.cif
_audit_creation_date              2012-12-10T19:26:45-0500
_audit_creation_method            fapswitch 2.2
_symmetry_space_group_name_H-M    P1
_symmetry_Int_Tables_number       1
_space_group_crystal_system       triclinic
_cell_length_a                    19.17286
_cell_length_b                    10.493673
_cell_length_c                    9.748545
_cell_angle_alpha                 89.536281
_cell_angle_beta                  89.226618
_cell_angle_gamma                 90.008566
_cell_volume                      1961.10309483

loop_
_atom_site_label
_atom_site_type_symbol
_atom_type_description
_atom_site_fract_x
_atom_site_fract_y
_atom_site_fract_z
_atom_type_partial_charge
C1    C     C_R   0.500021 0.257450 0.500583 0.862939
C2    C     C_3   0.557495 0.043066 0.434071 -0.177654
C3    C     C_3   0.450919 0.427951 0.050639 -0.072635
C4    C     C_3   0.549083 0.572044 0.949361 -0.071507
C5    C     C_3   0.509573 0.386321 0.952104 -0.072838
C6    C     C_3   0.490428 0.613677 0.047894 -0.073131
C7    C     C_3   0.441293 0.541653 0.952655 -0.076992
C8    C     C_3   0.558708 0.458343 0.047343 -0.075831
C9    C     C_R   0.365535 0.499819 0.501019 0.862769
C10   C     C_R   0.634409 0.497759 0.498988 0.861911
C11   C     C_R   0.253549 0.505834 0.629629 -0.230693
C12   C     C_R   0.499997 0.742554 0.499416 0.863891
C13   C     C_R   0.744190 0.454268 0.372394 -0.228093
C14   C     C_R   0.180806 0.499296 0.635399 0.123554
C15   C     C_R   0.816246 0.436446 0.368122 0.120192
C16   C     C_R   0.144545 0.480955 0.511317 0.073117
C17   C     C_R   0.853965 0.451631 0.490411 0.066713
C18   C     C_R   0.181088 0.473632 0.386162 -0.201690
C19   C     C_R   0.819286 0.478936 0.613934 -0.199949
C20   C     C_R   0.253048 0.481165 0.382424 -0.209136
C21   C     C_R   0.747681 0.495192 0.616946 -0.205459
C22   C     C_R   0.289649 0.496258 0.504120 -0.057326
C23   C     C_3   0.499904 0.038968 0.631119 -0.140389
C24   C     C_R   0.709916 0.484471 0.495932 -0.059283
C25   C     C_R   0.929507 0.451610 0.491140 0.266370
C26   C     C_R   0.069058 0.471001 0.506190 0.267486
C27   C     C_3   0.144742 0.516569 0.773677 -0.438749
C28   C     C_3   0.106622 0.644948 0.781731 -0.330552
C29   C     C_3   0.074556 0.665150 0.924031 -0.868260
C30   C     C_3   0.849973 0.395581 0.234127 -0.432877
C31   C     C_3   0.855876 0.507780 0.132881 -0.323394
C32   C     C_3   0.892502 0.467721 0.000234 -0.884744
C33   C     C_3   0.500137 0.961055 0.368876 -0.141347
C34   C     C_3   0.557374 0.956994 0.563277 -0.179109
C35   C     C_3   0.442666 0.043028 0.436720 -0.178979
C36   C     C_3   0.500014 0.877683 0.498246 0.030111
C37   C     C_3   0.500024 0.122334 0.501751 0.031102
C38   C     C_3   0.442545 0.956960 0.565926 -0.177610
H1    H     H_    0.282134 0.519717 0.723484 0.146957
H2    H     H_    0.590370 0.632632 0.901594 0.113664
H3    H     H_    0.036903 0.587811 0.949081 0.268846
H4    H     H_    0.115886 0.666468 0.002791 0.259373
H5    H     H_    0.046501 0.757680 0.926367 0.250852
H6    H     H_    0.144052 0.723551 0.759141 0.221526
H7    H     H_    0.064393 0.649523 0.705081 0.233256
H8    H     H_    0.108531 0.436447 0.795796 0.219305
H9    H     H_    0.183728 0.513268 0.857156 0.191460
H10   H     H_    0.945315 0.429810 0.022111 0.267342
H11   H     H_    0.861632 0.393259 0.948067 0.260713
H12   H     H_    0.714824 0.441958 0.279187 0.149406
H13   H     H_    0.897991 0.551570 0.930747 0.246450
H14   H     H_    0.803009 0.544083 0.108112 0.210795
H15   H     H_    0.885907 0.586565 0.179501 0.241310
H16   H     H_    0.902305 0.353507 0.251182 0.213140
H17   H     H_    0.818029 0.318732 0.188360 0.193108
H18   H     H_    0.279936 0.473590 0.284374 0.155853
H19   H     H_    0.722103 0.517506 0.713571 0.156515
H20   H     H_    0.603999 0.917066 0.614509 0.130615
H21   H     H_    0.396042 0.082972 0.385497 0.131384
H22   H     H_    0.395819 0.917002 0.619298 0.131145
H23   H     H_    0.391892 0.576760 0.907805 0.112137
H24   H     H_    0.604220 0.083054 0.380715 0.130762
H25   H     H_    0.517666 0.290594 0.906930 0.115151
H26   H     H_    0.482339 0.709406 0.093066 0.115148
H27   H     H_    0.608109 0.423214 0.092166 0.110966
H28   H     H_    0.153784 0.460108 0.290711 0.150058
H29   H     H_    0.848060 0.491764 0.707531 0.151842
H30   H     H_    0.499808 0.074721 0.738011 0.132839
H31   H     H_    0.500233 0.925306 0.261982 0.132840
H32   H     H_    0.409636 0.367357 0.098413 0.113737
N1    N     N_R   0.034235 0.532639 0.405574 -0.183152
N2    N     N_R   0.964229 0.389400 0.591510 -0.177696
N3    N     N_R   0.965424 0.523735 0.398728 -0.179305
N4    N     N_R   0.033159 0.398038 0.598047 -0.181992
N5    N     N_3   0.499950 0.500030 0.863290 -0.071592
N6    N     N_3   0.500050 0.499970 0.136710 -0.071666
O1    O     O_R   0.500000 0.313960 0.616610 -0.627043
O2    O     O_R   0.500000 0.686040 0.383390 -0.626690
O3    O     O_R   0.500030 0.313950 0.383350 -0.620557
O4    O     O_R   0.499970 0.686050 0.616650 -0.619789
O5    O     O_R   0.398120 0.499990 0.616660 -0.623771
O6    O     O_R   0.601880 0.500010 0.383340 -0.624145
O7    O     O_R   0.398150 0.499980 0.383410 -0.621323
O8    O     O_R   0.601850 0.500020 0.616590 -0.620710
Zn1   Zn    Zn3+2 0.499980 0.500010 0.655740 0.934920
Zn2   Zn    Zn3+2 0.500020 0.499990 0.344260 0.934087

loop_
_geom_bond_atom_site_label_1
_geom_bond_atom_site_label_2
_ccdc_geom_bond_type
C29   H4    S    
C1    O1    A    
C31   H14   S    
C4    C8    S    
C30   H16   S    
C28   C29   S    
C35   C37   S    
C3    C7    S    
C30   C31   S    
C11   C14   A    
C9    C22   S    
C8    N6    S    
C33   C36   S    
C5    H25   S    
C18   C20   A    
C35   H21   S    
C6    H26   S    
C7    H23   S    
C4    N5    S    
C17   C19   A    
N5    Zn1   S    
C4    H2    S    
C12   O2    A    
C19   H29   S    
C14   C27   S    
C12   C36   S    
C25   N3    A    
C1    C37   S    
O2    Zn2   S    
O1    Zn1   S    
C8    H27   S    
C29   H5    S    
C26   N1    A    
C32   H10   S    
C16   C26   S    
C28   H7    S    
C3    H32   S    
O8    Zn1   S    
N2    N4    A    
N1    N3    A    
C7    N5    S    
C10   C24   S    
O6    Zn2   S    
C28   H6    S    
C13   C24   A    
C23   H30   S    
C5    N5    S    
C32   H13   S    
C21   H19   S    
O4    Zn1   S    
C31   C32   S    
C23   C34   S    
C35   C38   S    
C25   N2    A    
C31   H15   S    
C11   H1    S    
C3    N6    S    
C9    O7    A    
C38   H22   S    
C2    C33   S    
C4    C6    S    
C20   C22   A    
C13   C15   A    
C1    O3    A    
C14   C16   A    
N6    Zn2   S    
C27   H8    S    
C15   C30   S    
C27   H9    S    
C15   C17   A    
C29   H3    S    
C16   C18   A    
C3    C5    S    
C5    C8    S    
C6    N6    S    
C6    C7    S    
C33   H31   S    
C18   H28   S    
C23   C38   S    
C30   H17   S    
C11   C22   A    
C17   C25   S    
C36   C38   S    
C23   C37   S    
C2    C37   S    
C2    C34   S    
C12   O4    A    
C10   O8    A    
C33   C35   S    
C10   O6    A    
C34   C36   S    
C20   H18   S    
C32   H11   S    
C13   H12   S    
O7    Zn2   S    
C26   N4    A    
C21   C24   A    
C27   C28   S    
C34   H20   S    
O3    Zn2   S    
O5    Zn1   S    
C2    H24   S    
C9    O5    A    
C19   C21   A    
