data_mof_unit_12563.cif
_audit_creation_date              2012-10-26T19:46:09-0400
_audit_creation_method            fapswitch 2.2
_symmetry_space_group_name_H-M    P1
_symmetry_Int_Tables_number       1
_space_group_crystal_system       triclinic
_cell_length_a                    10.814615
_cell_length_b                    9.525048
_cell_length_c                    15.883813
_cell_angle_alpha                 89.957485
_cell_angle_beta                  90.193277
_cell_angle_gamma                 90.102353
_cell_volume                      1636.1748773

loop_
_atom_site_label
_atom_site_type_symbol
_atom_type_description
_atom_site_fract_x
_atom_site_fract_y
_atom_site_fract_z
_atom_type_partial_charge
C1    C     C_R   0.262555 0.499872 0.499899 0.544708
C2    C     C_R   0.938239 0.594525 0.552655 -0.023630
C3    C     C_R   0.872549 0.500060 0.499858 0.047696
C4    C     C_R   0.129493 0.499604 0.499969 -0.004887
C5    C     C_R   0.430671 0.074317 0.442994 0.013154
C6    C     C_R   0.430791 0.925549 0.442929 0.014472
C7    C     C_R   0.500143 0.500036 0.340151 0.545466
C8    C     C_R   0.568734 0.925739 0.557379 0.009543
C9    C     C_R   0.569125 0.074471 0.557178 0.009971
C10   C     C_R   0.737948 0.500072 0.499944 0.548659
C11   C     C_R   0.500279 0.499965 0.659869 0.546760
C12   C     C_3   0.635247 0.498857 0.951556 -0.214404
C13   C     C_3   0.434732 0.632693 0.048550 -0.213700
C14   C     C_3   0.432617 0.368470 0.048714 -0.214248
C15   C     C_3   0.432663 0.368420 0.951139 -0.212714
C16   C     C_3   0.434783 0.632644 0.950975 -0.213270
C17   C     C_1   0.500634 0.499906 0.749559 -0.045246
C18   C     C_3   0.500825 0.500043 0.082747 0.074258
C19   C     C_3   0.500905 0.499955 0.917279 0.073735
C20   C     C_3   0.872137 0.307053 0.386773 -0.382158
C21   C     C_3   0.874446 0.693781 0.612439 -0.390079
C22   C     C_3   0.635200 0.498908 0.049146 -0.213249
C23   C     C_1   0.500852 0.499912 0.825119 -0.082210
C24   C     C_1   0.500696 0.500087 0.174906 -0.082631
C25   C     C_1   0.500461 0.500095 0.250464 -0.046296
C26   C     C_R   0.065803 0.405012 0.448989 -0.122431
C27   C     C_R   0.066749 0.594238 0.550948 -0.121419
C28   C     C_R   0.937202 0.405211 0.447143 -0.027404
Cu1   Cu    Cu3+1 0.500020 0.640660 0.500000 0.928809
Cu2   Cu    Cu3+1 0.500020 0.359340 0.500000 0.926079
H1    H     H_    0.337818 0.635841 0.927328 0.111120
H2    H     H_    0.482250 0.728811 0.927634 0.110414
H3    H     H_    0.686260 0.592681 0.072618 0.111080
H4    H     H_    0.684752 0.404325 0.072737 0.109829
H5    H     H_    0.686330 0.592604 0.928217 0.108905
H6    H     H_    0.684819 0.404248 0.928337 0.109878
H7    H     H_    0.116937 0.333176 0.409269 0.115837
H8    H     H_    0.118574 0.666084 0.590622 0.124732
H9    H     H_    0.374819 0.130243 0.397431 0.105558
H10   H     H_    0.375071 0.869520 0.397290 0.109791
H11   H     H_    0.938166 0.254830 0.343533 0.105715
H12   H     H_    0.335658 0.366815 0.927498 0.111767
H13   H     H_    0.823264 0.223329 0.422161 0.162036
H14   H     H_    0.805122 0.366449 0.347440 0.138255
H15   H     H_    0.940841 0.744018 0.656674 0.108503
H16   H     H_    0.828734 0.778788 0.576266 0.148554
H17   H     H_    0.805204 0.636169 0.650769 0.132969
H18   H     H_    0.623237 0.869939 0.603665 0.100801
H19   H     H_    0.624687 0.130494 0.602905 0.109314
H20   H     H_    0.337743 0.635907 0.071701 0.109851
H21   H     H_    0.335591 0.366886 0.071871 0.109254
H22   H     H_    0.478512 0.271527 0.072292 0.110222
H23   H     H_    0.482169 0.728888 0.072012 0.110806
H24   H     H_    0.478577 0.271450 0.927915 0.110917
N1    N     N_R   0.500030 0.852070 0.500020 -0.222230
N2    N     N_R   0.500030 0.147930 0.500020 -0.223816
O1    O     O_R   0.319660 0.618740 0.500000 -0.502315
O2    O     O_R   0.319660 0.381260 0.500000 -0.499934
O3    O     O_R   0.500020 0.618840 0.379440 -0.497127
O4    O     O_R   0.500020 0.381160 0.379440 -0.504095
O5    O     O_R   0.680370 0.618830 0.500010 -0.503092
O6    O     O_R   0.680370 0.381170 0.500010 -0.508717
O7    O     O_R   0.500010 0.618730 0.620560 -0.502131
O8    O     O_R   0.500010 0.381270 0.620560 -0.495979

loop_
_geom_bond_atom_site_label_1
_geom_bond_atom_site_label_2
_ccdc_geom_bond_type
C19   C23   S    
C8    H18   S    
C26   H7    S    
C2    C27   A    
Cu2   O8    S    
C16   H2    S    
C20   C28   S    
C14   C18   S    
C5    N2    A    
C26   C28   A    
C14   H21   S    
C7    C25   S    
C6    N1    A    
C1    C4    S    
C4    C27   A    
C2    C21   S    
Cu1   O7    S    
C2    C3    A    
C9    N2    A    
C10   O6    A    
C1    O2    A    
C16   H1    S    
C15   C19   S    
Cu1   Cu2   S    
Cu2   N2    S    
C17   C23   T    
C22   H3    S    
C16   C19   S    
C18   C24   S    
C13   C18   S    
C12   C19   S    
C7    O3    A    
C3    C28   A    
C20   H14   S    
Cu1   O1    S    
C20   H11   S    
C1    O1    A    
Cu2   O6    S    
C5    C6    A    
C22   H4    S    
C12   C22   S    
C6    H10   S    
C4    C26   A    
C21   H15   S    
C10   O5    A    
C12   H6    S    
C13   H23   S    
C27   H8    S    
C13   H20   S    
C15   H24   S    
Cu2   O2    S    
C7    O4    A    
C20   H13   S    
C9    H19   S    
C24   C25   T    
C8    N1    A    
C21   H16   S    
C13   C16   S    
C3    C10   S    
C5    H9    S    
C14   C15   S    
C11   C17   S    
Cu1   N1    S    
Cu1   O5    S    
C21   H17   S    
C18   C22   S    
C11   O7    A    
C11   O8    A    
C14   H22   S    
Cu1   O3    S    
C15   H12   S    
C8    C9    A    
C12   H5    S    
Cu2   O4    S    
