data_mof_unit_12931.cif
_audit_creation_date              2012-12-10T19:03:03-0500
_audit_creation_method            fapswitch 2.2
_symmetry_space_group_name_H-M    P1
_symmetry_Int_Tables_number       1
_space_group_crystal_system       triclinic
_cell_length_a                    10.739288
_cell_length_b                    10.810259
_cell_length_c                    9.550529
_cell_angle_alpha                 90.097757
_cell_angle_beta                  90.141669
_cell_angle_gamma                 90.298446
_cell_volume                      1108.74367419

loop_
_atom_site_label
_atom_site_type_symbol
_atom_type_description
_atom_site_fract_x
_atom_site_fract_y
_atom_site_fract_z
_atom_type_partial_charge
C1    C     C_R   0.497292 0.262329 0.499879 0.791689
C2    C     C_3   0.878393 0.500178 0.500756 0.143532
C3    C     C_3   0.929051 0.615903 0.423417 -0.353923
C4    C     C_3   0.927324 0.382533 0.426269 -0.383000
C5    C     C_R   0.487297 0.063806 0.625547 0.124269
C6    C     C_R   0.483829 0.129206 0.499852 -0.097321
C7    C     C_R   0.460799 0.064142 0.374714 -0.237353
C8    C     C_R   0.459847 0.935068 0.375001 -0.226109
C9    C     C_R   0.483041 0.870637 0.500077 -0.096580
C10   C     C_R   0.487086 0.936625 0.625513 0.133341
C11   C     C_3   0.577672 0.930287 0.743839 -0.491604
C12   C     C_R   0.259875 0.499726 0.500059 0.745628
C13   C     C_3   0.578103 0.070771 0.744053 -0.473075
C14   C     C_R   0.562709 0.589869 0.074453 0.182146
C15   C     C_R   0.428563 0.418850 0.074027 -0.092467
C16   C     C_R   0.428395 0.418972 0.925191 -0.077409
C17   C     C_R   0.563718 0.589194 0.926637 0.176579
C18   C     C_3   0.700553 0.613832 0.920150 -0.577567
C19   C     C_3   0.699963 0.614338 0.079722 0.313268
C20   C     C_R   0.496991 0.737650 0.499999 0.809138
C21   C     C_R   0.740252 0.500291 0.500257 0.765792
C22   C     C_3   0.071917 0.498903 0.653053 -0.364983
C23   C     C_3   0.929522 0.502223 0.652946 -0.382686
C24   C     C_3   0.072766 0.617084 0.425977 -0.391867
C25   C     C_3   0.071113 0.383460 0.423821 -0.380344
C26   C     C_3   0.122001 0.499778 0.500593 0.163908
Cu1   Cu    Cu3+1 0.499990 0.499980 0.640670 0.930719
Cu2   Cu    Cu3+1 0.500010 0.500020 0.359330 0.942383
H1    H     H_    0.108325 0.580428 0.712076 0.170830
H2    H     H_    0.891381 0.377962 0.316957 0.162764
H3    H     H_    0.108365 0.621385 0.316708 0.175549
H4    H     H_    0.896848 0.615278 0.312847 0.209517
H5    H     H_    0.449269 0.112207 0.276157 0.157339
H6    H     H_    0.446873 0.886459 0.276863 0.159923
H7    H     H_    0.534569 0.889627 0.838839 0.190957
H8    H     H_    0.668330 0.889527 0.712614 0.190306
H9    H     H_    0.536075 0.111166 0.839926 0.193131
H10   H     H_    0.669003 0.111851 0.712799 0.193697
H11   H     H_    0.372632 0.351501 0.129547 0.133371
H12   H     H_    0.103826 0.414198 0.708554 0.162523
H13   H     H_    0.372281 0.351765 0.869110 0.131622
H14   H     H_    0.751850 0.533238 0.877963 0.178839
H15   H     H_    0.722969 0.702681 0.868181 0.191774
H16   H     H_    0.751521 0.533974 0.122864 0.102527
H17   H     H_    0.893293 0.421432 0.712783 0.163691
H18   H     H_    0.898790 0.588161 0.706666 0.167678
H19   H     H_    0.893144 0.701676 0.473368 0.156961
H20   H     H_    0.103734 0.382521 0.313270 0.166808
H21   H     H_    0.106823 0.298191 0.474948 0.146901
H22   H     H_    0.893456 0.298384 0.481687 0.150526
N1    N     N_R   0.500800 0.500930 0.147930 -0.207664
N2    N     N_R   0.500800 0.500890 0.852020 -0.170820
O1    O     O_R   0.500000 0.319640 0.618810 -0.581252
O2    O     O_R   0.500010 0.319680 0.381230 -0.589307
O3    O     O_R   0.317690 0.499960 0.618790 -0.591252
O4    O     O_R   0.317700 0.500000 0.381210 -0.588879
O5    O     O_R   0.499990 0.680320 0.618770 -0.576167
O6    O     O_R   0.500000 0.680360 0.381190 -0.563415
O7    O     O_R   0.682300 0.500000 0.618790 -0.585949
O8    O     O_R   0.682310 0.500040 0.381210 -0.580573
O9    O     O_3   0.736671 0.725808 0.149173 -0.568199
C27   C     C_3   0.679048 0.834579 0.099200 -0.283456
H23   H     H_    0.578116 0.823003 0.077663 0.134673
H24   H     H_    0.728587 0.870196 0.005706 0.161404
H25   H     H_    0.687703 0.906808 0.181331 0.185168
H26   H     H_    0.106664 0.701496 0.481421 0.152351

loop_
_geom_bond_atom_site_label_1
_geom_bond_atom_site_label_2
_ccdc_geom_bond_type
C2    C4    S    
C1    O2    A    
Cu1   O1    S    
C27   H23   S    
C23   H17   S    
C22   H1    S    
C15   N1    A    
C2    C3    S    
C11   C13   S    
C9    C10   A    
C9    C20   S    
C5    C13   S    
C14   N1    A    
C14   C17   A    
C24   H26   S    
C22   H12   S    
O9    C27   S    
C2    C21   S    
C11   H7    S    
C17   C18   S    
C3    C24   S    
C24   H3    S    
C7    C8    A    
C23   H18   S    
Cu1   O7    S    
C18   H15   S    
C19   H16   S    
C7    H5    S    
C25   H20   S    
C15   H11   S    
C13   H10   S    
C12   O4    A    
Cu2   O8    S    
C19   O9    S    
C5    C6    A    
C14   C19   S    
C17   N2    A    
C3    H19   S    
C11   H8    S    
C24   C26   S    
C21   O7    A    
C6    C7    A    
Cu2   O6    S    
C18   H14   S    
Cu1   O5    S    
C3    H4    S    
Cu2   N1    S    
Cu1   O3    S    
C12   O3    A    
C10   C11   S    
C20   O6    A    
C1    C6    S    
C4    C25   S    
C5    C10   A    
Cu1   N2    S    
C21   O8    A    
C27   H24   S    
C18   C19   S    
C22   C26   S    
C12   C26   S    
C2    C23   S    
C20   O5    A    
C1    O1    A    
C22   C23   S    
C8    H6    S    
C27   H25   S    
C25   C26   S    
Cu2   O2    S    
C13   H9    S    
C16   H13   S    
C15   C16   A    
C4    H2    S    
Cu2   O4    S    
C16   N2    A    
C4    H22   S    
C8    C9    A    
Cu1   Cu2   S    
C25   H21   S    
