data_mof_unit_25432.cif
_audit_creation_date              2012-12-11T14:21:16-0500
_audit_creation_method            fapswitch 2.2
_symmetry_space_group_name_H-M    P1
_symmetry_Int_Tables_number       1
_space_group_crystal_system       triclinic
_cell_length_a                    22.040449
_cell_length_b                    7.186895
_cell_length_c                    14.959581
_cell_angle_alpha                 89.994851
_cell_angle_beta                  107.388657
_cell_angle_gamma                 90.003442
_cell_volume                      2261.3400094

loop_
_atom_site_label
_atom_site_type_symbol
_atom_type_description
_atom_site_fract_x
_atom_site_fract_y
_atom_site_fract_z
_atom_type_partial_charge
O1    O     O_R   0.584770 0.505770 0.002090 -0.544938
O2    O     O_R   0.415230 0.005770 0.997910 -0.544827
O3    O     O_R   0.467060 0.173340 0.861950 -0.537657
O4    O     O_R   0.532940 0.673340 0.138050 -0.537682
C1    C     C_R   0.454303 0.344037 0.825438 0.719950
C2    C     C_R   0.545698 0.844024 0.174562 0.720014
O5    O     O_R   0.587510 0.175890 0.993210 -0.537311
O6    O     O_R   0.412490 0.675890 0.006790 -0.537424
O7    O     O_R   0.536540 0.008150 0.130100 -0.498777
O8    O     O_R   0.463460 0.508150 0.869900 -0.498745
C3    C     C_R   0.612510 0.345395 0.996314 0.778995
C4    C     C_R   0.387489 0.845373 0.003673 0.779111
O9    O     O_3   0.483140 0.340040 0.044760 -0.380096
O10   O     O_3   0.516860 0.840040 0.955240 -0.380063
V1    V     V_3+5 0.503130 0.064190 0.991700 1.591504
V2    V     V_3+5 0.496870 0.564190 0.008300 1.591363
C5    C     C_2   0.218724 0.734621 0.016785 0.208045
C6    C     C_2   0.781110 0.235225 0.982304 0.207410
C7    C     C_2   0.177862 0.880650 0.984400 -0.002036
C8    C     C_2   0.822137 0.380501 0.015515 -0.001909
C9    C     C_2   0.282290 0.719622 0.001565 0.017834
C10   C     C_2   0.717576 0.219684 0.997605 0.016956
C11   C     C_2   0.322484 0.863491 0.011125 -0.311636
C12   C     C_2   0.677520 0.363664 0.988870 -0.310563
H1    H     H_    0.298436 0.580968 0.990740 0.160858
H2    H     H_    0.701326 0.080770 0.007730 0.159882
H3    H     H_    0.308268 0.000515 0.027856 0.154591
H4    H     H_    0.691850 0.501010 0.972757 0.154634
C13   C     C_R   0.925830 0.884865 0.723711 -0.046345
C14   C     C_R   0.074156 0.384834 0.276294 -0.046486
C15   C     C_R   0.572591 0.843586 0.277454 -0.105788
C16   C     C_R   0.427411 0.343653 0.722546 -0.105921
C17   C     C_R   0.936464 0.899734 0.568092 -0.014940
C18   C     C_R   0.063513 0.399307 0.431921 -0.015104
C19   C     C_R   0.963778 0.900173 0.664661 -0.146663
C20   C     C_R   0.036193 0.399648 0.335347 -0.146280
C21   C     C_R   0.859710 0.864214 0.686703 0.158106
C22   C     C_R   0.140291 0.364673 0.313308 0.158375
C23   C     C_R   0.831405 0.846532 0.587618 -0.002981
C24   C     C_R   0.168602 0.346960 0.412385 -0.002778
C25   C     C_R   0.870321 0.876942 0.527877 -0.064395
C26   C     C_R   0.129680 0.377091 0.472132 -0.064824
C27   C     C_R   0.765710 0.805218 0.545617 0.058462
C28   C     C_R   0.234305 0.305772 0.454360 0.058469
C29   C     C_R   0.736541 0.846993 0.449668 -0.003305
C30   C     C_R   0.263478 0.347464 0.550312 -0.003097
C31   C     C_R   0.776043 0.872805 0.392454 -0.112959
C32   C     C_R   0.223980 0.373306 0.607531 -0.112613
C33   C     C_R   0.842114 0.883660 0.429520 0.376470
C34   C     C_R   0.157905 0.384046 0.570480 0.376218
C35   C     C_R   0.729923 0.705179 0.593337 -0.171632
C36   C     C_R   0.270084 0.205855 0.406597 -0.171702
C37   C     C_R   0.665972 0.667450 0.551612 -0.181452
C38   C     C_R   0.334028 0.168031 0.448315 -0.181592
C39   C     C_R   0.635108 0.732227 0.461644 0.114060
C40   C     C_R   0.364892 0.232620 0.538314 0.113846
C41   C     C_R   0.669062 0.835010 0.411078 -0.021174
C42   C     C_R   0.330955 0.335387 0.588897 -0.021091
C43   C     C_R   0.571157 0.687533 0.420348 -0.153426
C44   C     C_R   0.428827 0.187750 0.579621 -0.153541
C45   C     C_R   0.541439 0.734077 0.327625 -0.193990
C46   C     C_R   0.458539 0.234115 0.672366 -0.193827
C47   C     C_R   0.634081 0.914023 0.323054 0.310838
C48   C     C_R   0.365947 0.414267 0.676939 0.311059
H5    H     H_    0.494007 0.681420 0.293965 0.126076
H6    H     H_    0.505952 0.181329 0.706029 0.126160
H7    H     H_    0.640670 0.585218 0.589739 0.119462
H8    H     H_    0.359321 0.085855 0.410162 0.119466
H9    H     H_    0.968113 0.918288 0.525921 0.221106
H10   H     H_    0.031848 0.417401 0.474099 0.221250
H11   H     H_    0.014742 0.917504 0.693659 0.170822
H12   H     H_    0.985214 0.416573 0.306350 0.170691
H13   H     H_    0.755578 0.874005 0.317374 0.220685
H14   H     H_    0.244449 0.374544 0.682609 0.220635
H15   H     H_    0.751793 0.641517 0.660365 0.131428
H16   H     H_    0.248208 0.142342 0.339535 0.131478
H17   H     H_    0.545368 0.605278 0.457735 0.125082
H18   H     H_    0.454601 0.105496 0.542222 0.125111
O11   O     O_R   0.036450 0.233070 0.130130 -0.538153
O12   O     O_R   0.963550 0.733070 0.869870 -0.538147
O13   O     O_R   0.912470 0.560570 0.006790 -0.543410
O14   O     O_R   0.087530 0.060570 0.993210 -0.543424
C49   C     C_R   0.887070 0.391058 0.003500 0.666975
C50   C     C_R   0.112926 0.891061 0.996451 0.667212
O15   O     O_R   0.032920 0.562940 0.138050 -0.532713
O16   O     O_R   0.967080 0.062940 0.861950 -0.532874
O17   O     O_R   0.084790 0.730500 0.002090 -0.541994
O18   O     O_R   0.915210 0.230500 0.997910 -0.541851
C51   C     C_R   0.044755 0.394247 0.174661 0.742083
C52   C     C_R   0.955234 0.894260 0.825342 0.742164
O19   O     O_3   0.016820 0.396170 0.955260 -0.372163
O20   O     O_3   0.983180 0.896170 0.044740 -0.371998
V3    V     V_3+5 0.996880 0.672090 0.008300 1.499141
V4    V     V_3+5 0.003120 0.172090 0.991700 1.498965
N1    N     N_3   0.202726 0.582551 0.067753 -0.689517
H19   H     H_    0.187769 0.635480 0.122719 0.245618
H20   H     H_    0.166886 0.502419 0.022701 0.263970
N2    N     N_3   0.796903 0.084598 0.930289 -0.689099
H21   H     H_    0.811986 0.139084 0.875740 0.244964
H22   H     H_    0.832625 0.003267 0.974809 0.263741
N3    N     N_3   0.822810 0.892726 0.750183 -0.705239
H23   H     H_    0.779366 0.957212 0.717410 0.247260
H24   H     H_    0.817308 0.767136 0.782049 0.225761
N4    N     N_3   0.177182 0.393758 0.249861 -0.705741
H25   H     H_    0.220608 0.458287 0.282697 0.246926
H26   H     H_    0.182728 0.268382 0.217863 0.225771
N5    N     N_3   0.195541 0.025694 0.930909 -0.623740
H27   H     H_    0.161146 0.031980 0.865384 0.279604
H28   H     H_    0.194945 0.152354 0.965009 0.244464
N6    N     N_3   0.804661 0.524311 0.069854 -0.623266
H29   H     H_    0.839077 0.529031 0.135402 0.279218
H30   H     H_    0.805420 0.651726 0.036477 0.244854
S1    S     S_3+6 0.887390 0.912132 0.350080 0.012534
O21   O     O_2   0.933986 0.754488 0.362685 -0.331740
O22   O     O_2   0.845509 0.913522 0.250167 -0.316171
O23   O     O_3   0.927806 0.113678 0.372806 -0.500096
H31   H     H_    0.894897 0.210571 0.367095 0.349912
S2    S     S_3+6 0.112639 0.412569 0.649930 0.012619
O24   O     O_2   0.066370 0.254169 0.637821 -0.331921
O25   O     O_2   0.154570 0.415337 0.749807 -0.316008
O26   O     O_3   0.071807 0.613357 0.626719 -0.499831
H32   H     H_    0.104490 0.710705 0.631823 0.349685
S3    S     S_3+6 0.658535 0.125697 0.281451 -0.003591
O27   O     O_2   0.680195 0.085577 0.197239 -0.324172
O28   O     O_2   0.603485 0.258905 0.253361 -0.330569
O29   O     O_3   0.717809 0.230375 0.363946 -0.490491
H33   H     H_    0.698684 0.268452 0.413218 0.334358
S4    S     S_3+6 0.341559 0.626015 0.718533 -0.003699
O30   O     O_2   0.319876 0.585986 0.802735 -0.324457
O31   O     O_2   0.396650 0.759089 0.746630 -0.330711
O32   O     O_3   0.282318 0.730807 0.636027 -0.490495
H34   H     H_    0.301531 0.769580 0.586955 0.334551

loop_
_geom_bond_atom_site_label_1
_geom_bond_atom_site_label_2
_ccdc_geom_bond_type
C33   S1    S    
O29   H33   S    
O14   V4    S    
C39   C43   A    
C15   C45   A    
N1    H19   S    
O1    C3    A    
C50   O17   A    
O2    C4    A    
S4    O30   D    
C43   H17   S    
C2    O7    A    
N4    H26   S    
S3    O27   D    
C31   C33   A    
O5    C3    A    
C4    C11   S    
C44   H18   S    
N3    H23   S    
C22   C24   A    
C35   H15   S    
S3    O28   D    
C38   H8    S    
C3    C12   S    
O23   H31   S    
C14   C22   A    
C44   C46   A    
C29   C31   A    
S2    O24   D    
C13   C52   S    
C22   N4    S    
O16   V4    S    
C17   C19   A    
N6    H29   S    
O15   V3    S    
C36   C38   A    
C48   S4    S    
C18   C26   A    
N5    H27   S    
C5    N1    S    
C11   H3    S    
C18   H10   S    
C18   C20   A    
C17   H9    S    
C1    C16   S    
C28   C36   A    
C32   C34   A    
C49   O18   A    
C19   H11   S    
O6    V2    S    
C6    C10   S    
C30   C42   A    
N5    H28   S    
C14   C51   S    
C25   C33   A    
N4    H25   S    
O13   C49   A    
C28   C30   A    
C41   C47   A    
C30   C32   A    
C37   C39   A    
C42   C48   A    
C38   C40   A    
C43   C45   A    
C46   H6    S    
C15   C47   A    
C31   H13   S    
O11   V4    S    
C23   C25   A    
O16   C52   A    
O15   C51   A    
S3    O29   S    
C23   C27   A    
O5    V1    S    
O3    C1    A    
C5    C9    S    
C40   C44   A    
C35   C37   A    
S2    O26   S    
O4    V2    S    
C32   H14   S    
O13   V3    S    
O6    C4    A    
C29   C41   A    
O1    V2    S    
O2    V1    S    
C27   C29   A    
C16   C48   A    
O26   H32   S    
C26   C34   A    
C8    N6    S    
S2    O25   D    
O4    C2    A    
O14   C50   A    
C9    C11   D    
C10   C12   D    
C8    C49   S    
O32   H34   S    
S4    O32   S    
O3    V1    S    
S1    O21   D    
C9    H1    S    
C34   S2    S    
C12   H4    S    
C7    C50   S    
C36   H16   S    
S4    O31   D    
C47   S3    S    
N1    H20   S    
C13   C19   A    
N2    H22   S    
C14   C20   A    
C17   C25   A    
S1    O23   S    
C39   C41   A    
O7    V1    S    
C16   C46   A    
C1    O8    A    
C21   C23   A    
O8    V2    S    
O19   V4    S    
C21   N3    S    
C27   C35   A    
O17   V3    S    
C24   C26   A    
O20   V3    S    
C5    C7    D    
C40   C42   A    
C2    C15   S    
C6    C8    D    
O12   C52   A    
C37   H7    S    
N6    H30   S    
O11   C51   A    
C45   H5    S    
C24   C28   A    
N3    H24   S    
N2    H21   S    
C10   H2    S    
O9    V2    S    
C13   C21   A    
O18   V4    S    
O10   V1    S    
C6    N2    S    
O12   V3    S    
C20   H12   S    
S1    O22   D    
C7    N5    S    
