data_mof_unit_12159.cif
_audit_creation_date              2012-10-26T20:12:47-0400
_audit_creation_method            fapswitch 2.2
_symmetry_space_group_name_H-M    P1
_symmetry_Int_Tables_number       1
_space_group_crystal_system       triclinic
_cell_length_a                    15.136818
_cell_length_b                    13.842725
_cell_length_c                    10.852869
_cell_angle_alpha                 88.536891
_cell_angle_beta                  89.646349
_cell_angle_gamma                 90.335368
_cell_volume                      2273.2280279

loop_
_atom_site_label
_atom_site_type_symbol
_atom_type_description
_atom_site_fract_x
_atom_site_fract_y
_atom_site_fract_z
_atom_type_partial_charge
C1    C     C_R   0.329821 0.499882 0.499297 0.517893
C2    C     C_R   0.439771 0.788787 0.569656 0.046510
C3    C     C_R   0.422586 0.207535 0.510533 0.016517
C4    C     C_R   0.561182 0.792139 0.431687 0.020889
C5    C     C_R   0.500519 0.053986 0.500247 0.026285
C6    C     C_R   0.500663 0.944938 0.500583 0.024911
C7    C     C_R   0.486521 0.501475 0.263524 0.550381
C8    C     C_R   0.497749 0.498608 0.738848 0.538531
C9    C     C_R   0.481708 0.685579 0.100531 0.136732
C10   C     C_R   0.380257 0.354859 0.876024 0.125533
C11   C     C_R   0.587317 0.642130 0.896447 0.135080
C12   C     C_R   0.670110 0.500236 0.499601 0.552164
C13   C     C_R   0.376108 0.350941 0.130605 0.122744
C14   C     C_R   0.535041 0.756953 0.044368 -0.112068
C15   C     C_R   0.351318 0.272120 0.939931 -0.097077
C16   C     C_R   0.592052 0.733385 0.948772 -0.102074
C17   C     C_R   0.350287 0.269711 0.066928 -0.093833
C18   C     C_R   0.523006 0.573986 0.942148 0.001409
C19   C     C_R   0.425983 0.426175 0.068806 0.002485
C20   C     C_R   0.487687 0.589027 0.059682 0.007135
C21   C     C_R   0.432105 0.425517 0.937422 0.002135
C22   C     C_R   0.487528 0.496272 0.874567 -0.038401
C23   C     C_R   0.048467 0.500120 0.496123 0.034590
C24   C     C_R   0.462012 0.506573 0.130793 -0.050500
C25   C     C_R   0.095987 0.584533 0.464126 -0.117906
C26   C     C_R   0.904162 0.420272 0.454641 -0.117752
C27   C     C_R   0.905150 0.580985 0.538818 -0.114978
C28   C     C_R   0.094288 0.415313 0.528067 -0.110680
C29   C     C_R   0.187776 0.584478 0.465681 -0.131830
C30   C     C_R   0.812382 0.420014 0.456560 -0.127024
C31   C     C_R   0.813306 0.581329 0.538812 -0.127323
C32   C     C_R   0.186083 0.414872 0.527663 -0.110302
C33   C     C_R   0.233343 0.499675 0.497586 0.018177
C34   C     C_R   0.951332 0.500527 0.496411 0.033978
C35   C     C_R   0.766494 0.500595 0.498392 0.016845
C36   C     C_R   0.579328 0.107914 0.488915 -0.141203
C37   C     C_R   0.438921 0.890294 0.571213 -0.141144
C38   C     C_R   0.421439 0.105992 0.510891 -0.138346
C39   C     C_R   0.562429 0.893719 0.430247 -0.145942
C40   C     C_R   0.577651 0.209504 0.488763 0.052813
Cu1   Cu    Cu3+1 0.500000 0.596430 0.500000 0.905919
Cu2   Cu    Cu3+1 0.500000 0.403570 0.500000 0.909793
H1    H     H_    0.315664 0.211029 0.114792 0.124682
H2    H     H_    0.777373 0.357394 0.423588 0.114061
H3    H     H_    0.778989 0.644038 0.572139 0.124520
H4    H     H_    0.219896 0.348586 0.552659 0.126165
H5    H     H_    0.642440 0.072074 0.481890 0.087265
H6    H     H_    0.390918 0.925466 0.628895 0.090960
H7    H     H_    0.358467 0.068729 0.517428 0.090354
H8    H     H_    0.610638 0.931634 0.372717 0.090938
H9    H     H_    0.639550 0.247976 0.479551 0.123410
H10   H     H_    0.392225 0.747906 0.624883 0.129786
H11   H     H_    0.360326 0.244383 0.517550 0.106042
H12   H     H_    0.638568 0.786982 0.912972 0.123395
H13   H     H_    0.608618 0.753884 0.376493 0.129150
H14   H     H_    0.370136 0.658288 0.206400 0.238447
H15   H     H_    0.439601 0.743872 0.260391 0.257302
H16   H     H_    0.335474 0.449093 0.741077 0.246278
H17   H     H_    0.361468 0.332991 0.695488 0.266334
H18   H     H_    0.657251 0.543311 0.795647 0.234490
H19   H     H_    0.645200 0.655196 0.727430 0.260895
H20   H     H_    0.365941 0.323456 0.313651 0.273650
H21   H     H_    0.326152 0.435982 0.266524 0.236928
H22   H     H_    0.316403 0.215979 0.891886 0.118580
H23   H     H_    0.533080 0.830488 0.075994 0.118451
H24   H     H_    0.062275 0.650352 0.436725 0.105478
H25   H     H_    0.938141 0.358110 0.419216 0.105496
H26   H     H_    0.939938 0.643118 0.573498 0.106804
H27   H     H_    0.059241 0.349631 0.554987 0.104128
H28   H     H_    0.223025 0.650493 0.440612 0.125310
N1    N     N_R   0.500000 0.258690 0.500000 -0.224601
N2    N     N_R   0.500000 0.741310 0.500000 -0.234054
N3    N     N_3   0.411906 0.715909 0.181051 -0.623013
N4    N     N_3   0.334639 0.375440 0.763786 -0.633427
N5    N     N_3   0.655720 0.617498 0.810591 -0.630499
N6    N     N_3   0.332415 0.363137 0.246167 -0.627849
O1    O     O_R   0.371460 0.581430 0.500010 -0.514619
O2    O     O_R   0.628540 0.418570 0.499990 -0.509559
O3    O     O_R   0.628540 0.581430 0.499990 -0.512945
O4    O     O_R   0.371460 0.418570 0.500010 -0.546480
O5    O     O_R   0.499990 0.581440 0.319660 -0.502013
O6    O     O_R   0.500010 0.418560 0.680340 -0.492598
O7    O     O_R   0.500010 0.581440 0.680340 -0.499166
O8    O     O_R   0.499990 0.418560 0.319660 -0.489547

loop_
_geom_bond_atom_site_label_1
_geom_bond_atom_site_label_2
_ccdc_geom_bond_type
C12   O3    A    
C11   C18   A    
Cu2   O4    S    
C40   N1    A    
C8    O7    A    
C1    O1    A    
Cu1   Cu2   S    
C28   H27   S    
Cu2   O6    S    
C30   H2    S    
C1    C33   S    
C38   H7    S    
H19   N5    S    
C30   C35   A    
C8    O6    A    
C26   H25   S    
C19   C21   A    
C10   C15   A    
Cu1   O1    S    
C5    C6    S    
H21   N6    S    
C7    C24   S    
Cu1   O7    S    
C5    C36   A    
C29   C33   A    
C36   H5    S    
H15   N3    S    
C27   H26   S    
C26   C34   A    
C20   C24   A    
C3    C38   A    
C12   O2    A    
C8    C22   S    
C15   H22   S    
C13   N6    S    
C18   C20   A    
C7    O8    A    
C27   C34   A    
C5    C38   A    
C3    H11   S    
H20   N6    S    
C9    N3    S    
C2    N2    A    
C10   C21   A    
C25   C29   A    
C13   C19   A    
C27   C31   A    
C36   C40   A    
Cu2   O8    S    
C12   C35   S    
C3    N1    A    
C9    C14   A    
C17   H1    S    
C11   C16   A    
C9    C20   A    
C4    C39   A    
C28   C32   A    
C23   C34   S    
Cu1   O5    S    
C6    C37   A    
C23   C28   A    
C37   H6    S    
H17   N4    S    
C2    H10   S    
Cu1   N2    S    
C7    O5    A    
C26   C30   A    
C4    H13   S    
C31   C35   A    
C4    N2    A    
H16   N4    S    
C29   H28   S    
C15   C17   A    
H14   N3    S    
C18   C22   A    
C32   H4    S    
C25   H24   S    
Cu1   O3    S    
Cu2   O2    S    
C40   H9    S    
H18   N5    S    
C13   C17   A    
C32   C33   A    
C19   C24   A    
C11   N5    S    
C10   N4    S    
C2    C37   A    
Cu2   N1    S    
C14   H23   S    
C14   C16   A    
C23   C25   A    
C16   H12   S    
C39   H8    S    
C31   H3    S    
C1    O4    A    
C6    C39   A    
C21   C22   A    
