data_mof_unit_34675.cif
_audit_creation_date              2012-12-10T19:00:42-0500
_audit_creation_method            fapswitch 2.2
_symmetry_space_group_name_H-M    P1
_symmetry_Int_Tables_number       1
_space_group_crystal_system       triclinic
_cell_length_a                    15.069298
_cell_length_b                    10.855488
_cell_length_c                    9.546177
_cell_angle_alpha                 90.86178
_cell_angle_beta                  90.20711
_cell_angle_gamma                 90.743135
_cell_volume                      1561.28808349

loop_
_atom_site_label
_atom_site_type_symbol
_atom_type_description
_atom_site_fract_x
_atom_site_fract_y
_atom_site_fract_z
_atom_type_partial_charge
C1    C     C_R   0.497347 0.262486 0.498939 0.795074
C2    C     C_R   0.906828 0.517434 0.373617 0.106326
C3    C     C_R   0.953734 0.434209 0.743917 -0.185955
C4    C     C_R   0.046282 0.437095 0.744689 -0.212203
C5    C     C_R   0.092955 0.465584 0.622322 0.109061
C6    C     C_R   0.046401 0.491176 0.497798 0.065947
C7    C     C_R   0.092784 0.518954 0.373793 0.108216
C8    C     C_R   0.045954 0.544784 0.250742 -0.211139
C9    C     C_R   0.953427 0.544406 0.250760 -0.199753
C10   C     C_R   0.185435 0.469121 0.622293 -0.242384
C11   C     C_R   0.231711 0.496677 0.499157 -0.069755
C12   C     C_R   0.328612 0.499204 0.499771 0.808835
C13   C     C_R   0.185260 0.520892 0.375185 -0.247373
C14   C     C_R   0.474310 0.066573 0.620884 0.121993
C15   C     C_R   0.486518 0.129774 0.496486 -0.094460
C16   C     C_R   0.485121 0.062595 0.369602 -0.211331
C17   C     C_R   0.485593 0.934019 0.371158 -0.206854
C18   C     C_R   0.488032 0.871384 0.499475 -0.094016
C19   C     C_R   0.474865 0.939705 0.622814 0.121663
C20   C     C_3   0.523088 0.940673 0.759766 -0.478654
C21   C     C_3   0.522064 0.080014 0.757092 -0.442954
C22   C     C_R   0.571679 0.544230 0.075453 0.221416
C23   C     C_R   0.497971 0.737986 0.500589 0.814812
C24   C     C_R   0.433409 0.444633 0.073007 -0.083933
C25   C     C_R   0.433338 0.444752 0.924216 -0.086590
C26   C     C_R   0.572349 0.543629 0.927654 0.239505
C27   C     C_3   0.607714 0.672928 0.928686 -0.074308
C28   C     C_3   0.607910 0.671555 0.087024 -0.503697
C29   C     C_R   0.671335 0.497725 0.499905 0.836948
C30   C     C_R   0.814431 0.519115 0.375247 -0.234309
C31   C     C_R   0.768123 0.492494 0.498649 -0.067417
C32   C     C_R   0.814452 0.460290 0.620008 -0.202015
C33   C     C_R   0.906939 0.460767 0.621077 0.113366
C34   C     C_R   0.953364 0.489599 0.497445 0.060899
Cu1   Cu    Cu3+1 0.500000 0.499980 0.640670 0.954722
Cu2   Cu    Cu3+1 0.500000 0.500020 0.359330 0.944426
H1    H     H_    0.778723 0.542531 0.280733 0.156679
H2    H     H_    0.488542 0.884779 0.272074 0.157697
H3    H     H_    0.480979 0.903700 0.845125 0.190378
H4    H     H_    0.591152 0.903173 0.750752 0.228840
H5    H     H_    0.479784 0.121587 0.839994 0.195398
H6    H     H_    0.589237 0.122460 0.746431 0.208642
H7    H     H_    0.378750 0.401476 0.127528 0.138665
H8    H     H_    0.378658 0.401614 0.867650 0.137270
H9    H     H_    0.558018 0.735550 0.886299 0.157722
H10   H     H_    0.674983 0.674131 0.135674 0.213825
H11   H     H_    0.778571 0.436069 0.714109 0.169502
H12   H     H_    0.560161 0.737261 0.133390 0.193667
H13   H     H_    0.918768 0.412350 0.839580 0.151708
H14   H     H_    0.081339 0.417212 0.840899 0.140699
H15   H     H_    0.221298 0.449422 0.717894 0.145891
H16   H     H_    0.220980 0.542443 0.280038 0.152599
H17   H     H_    0.080872 0.565978 0.154840 0.145238
H18   H     H_    0.918331 0.565509 0.154935 0.161064
H19   H     H_    0.488658 0.108630 0.269857 0.166559
N1    N     N_R   0.500570 0.500930 0.147930 -0.183113
N2    N     N_R   0.500570 0.500890 0.852020 -0.199819
O1    O     O_R   0.500000 0.319640 0.618810 -0.583526
O2    O     O_R   0.500010 0.319680 0.381230 -0.584983
O3    O     O_R   0.370250 0.499950 0.618800 -0.592471
O4    O     O_R   0.370260 0.499990 0.381220 -0.592938
O5    O     O_R   0.499990 0.680320 0.618770 -0.573084
O6    O     O_R   0.500000 0.680360 0.381190 -0.588029
O7    O     O_R   0.629740 0.500010 0.618780 -0.563270
O8    O     O_R   0.629750 0.500050 0.381200 -0.586595
I1    I     I_    0.738514 0.695284 0.845907 -0.438326

loop_
_geom_bond_atom_site_label_1
_geom_bond_atom_site_label_2
_ccdc_geom_bond_type
C8    H17   S    
C11   C12   S    
C6    C7    A    
C1    C15   S    
C24   N1    A    
Cu2   O6    S    
C19   C20   S    
Cu1   N2    S    
C30   C31   A    
C2    C30   A    
Cu2   O2    S    
C32   C33   A    
C27   H9    S    
C23   O6    A    
C17   C18   A    
C3    H13   S    
C16   H19   S    
C5    C10   A    
C29   C31   S    
C27   I1    S    
C22   C28   S    
C1    O1    A    
C24   C25   A    
C12   O4    A    
C11   C13   A    
C28   H10   S    
C26   C27   S    
Cu1   O7    S    
C25   N2    A    
Cu1   O1    S    
C29   O8    A    
C10   H15   S    
C14   C21   S    
Cu2   N1    S    
C32   H11   S    
C33   C34   A    
Cu1   O5    S    
C17   H2    S    
C1    O2    A    
Cu2   O4    S    
C5    C6    A    
C20   H4    S    
C26   N2    A    
C21   H5    S    
C29   O7    A    
C7    C8    A    
C10   C11   A    
C3    C33   A    
C18   C23   S    
C13   H16   S    
C6    C34   A    
C7    C13   A    
C20   C21   S    
C25   H8    S    
C9    H18   S    
C18   C19   A    
C22   C26   A    
C27   C28   S    
C24   H7    S    
C20   H3    S    
C30   H1    S    
Cu2   O8    S    
Cu1   O3    S    
C22   N1    A    
C21   H6    S    
C23   O5    A    
C2    C34   A    
C14   C15   A    
C2    C9    A    
C4    C5    A    
C14   C19   A    
C31   C32   A    
C28   H12   S    
C3    C4    A    
C15   C16   A    
C16   C17   A    
C4    H14   S    
C8    C9    A    
Cu1   Cu2   S    
C12   O3    A    
