data_mof_unit_52880.cif
_audit_creation_date              2012-12-11T18:44:39-0500
_audit_creation_method            fapswitch 2.2
_symmetry_space_group_name_H-M    P1
_symmetry_Int_Tables_number       1
_space_group_crystal_system       triclinic
_cell_length_a                    8.2617
_cell_length_b                    14.344691
_cell_length_c                    18.752547
_cell_angle_alpha                 97.296141
_cell_angle_beta                  90.979057
_cell_angle_gamma                 91.785416
_cell_volume                      2202.8318057

loop_
_atom_site_label
_atom_site_type_symbol
_atom_type_description
_atom_site_fract_x
_atom_site_fract_y
_atom_site_fract_z
_atom_type_partial_charge
Ba1   Ba    Ba6+2 0.843240 0.541620 0.463500 1.608504
Ba2   Ba    Ba6+2 0.346570 0.458460 0.536510 1.564978
C1    C     C_3   0.542006 0.858107 0.229951 0.299663
C2    C     C_3   0.578439 0.784073 0.280398 0.627750
C3    C     C_3   0.631274 0.258780 0.308110 0.244071
C4    C     C_3   0.647476 0.186395 0.241666 -0.398494
C5    C     C_3   0.052984 0.200635 0.735380 0.293904
C6    C     C_3   0.103544 0.172849 0.808774 -0.141452
C7    C     C_3   0.601860 0.222385 0.702499 0.369280
C8    C     C_3   0.595125 0.127648 0.730588 -0.332308
C9    C     C_R   0.002017 0.457023 0.051185 0.015614
C10   C     C_R   0.911185 0.412762 0.101080 0.038096
C11   C     C_R   0.754012 0.378640 0.082524 -0.072085
C12   C     C_3   0.071466 0.722646 0.254990 0.368032
C13   C     C_R   0.687352 0.387820 0.015251 -0.073056
C14   C     C_R   0.779695 0.426431 0.962702 0.020608
C15   C     C_R   0.937801 0.462046 0.981064 -0.000523
C16   C     C_R   0.715741 0.430361 0.892742 0.362958
C17   C     C_R   0.812644 0.465081 0.838962 -0.026607
C18   C     C_R   0.968856 0.505954 0.859035 0.000009
C19   C     C_R   0.029805 0.504794 0.930446 0.043342
C20   C     C_R   0.762215 0.457972 0.765250 -0.012797
C21   C     C_R   0.864654 0.492653 0.714793 -0.256034
C22   C     C_R   0.012460 0.540034 0.734256 0.064110
C23   C     C_3   0.038755 0.741651 0.178093 -0.364818
C24   C     C_R   0.065119 0.547668 0.807984 -0.027768
C25   C     C_R   0.156002 0.496709 0.071723 0.007782
C26   C     C_R   0.214782 0.497388 0.143539 -0.003047
C27   C     C_R   0.120696 0.454499 0.194259 -0.058557
C28   C     C_R   0.974907 0.406651 0.170037 -0.040623
C29   C     C_R   0.212204 0.594454 0.832197 -0.041845
C30   C     C_R   0.274509 0.592203 0.902540 -0.007221
C31   C     C_R   0.184384 0.544972 0.951227 0.020362
C32   C     C_R   0.247661 0.539946 0.021535 0.011273
C33   C     C_R   0.428149 0.633886 0.925099 0.398190
C34   C     C_3   0.184479 0.746223 0.606112 0.228350
C35   C     C_R   0.492727 0.623319 0.992791 -0.029096
C36   C     C_R   0.402459 0.579002 0.041909 -0.034475
C37   C     C_R   0.366755 0.541872 0.164551 -0.057262
C38   C     C_R   0.462452 0.577690 0.112179 -0.100766
C39   C     C_R   0.415112 0.552441 0.237847 0.002580
C40   C     C_R   0.310590 0.520726 0.288600 -0.215122
C41   C     C_R   0.171671 0.465079 0.267964 0.023199
C42   C     C_R   0.698323 0.936480 0.534250 0.046531
C43   C     C_R   0.516169 0.797319 0.491958 0.031009
C44   C     C_R   0.376053 0.762149 0.453045 -0.320417
C45   C     C_3   0.182496 0.853778 0.615400 -0.255593
C46   C     C_R   0.275786 0.821523 0.419656 -0.063206
C47   C     C_R   0.323516 0.916121 0.418433 0.302773
C48   C     C_R   0.463723 0.952953 0.457000 0.055063
C49   C     C_R   0.560570 0.894789 0.494952 -0.022202
C50   C     C_R   0.641866 0.089458 0.497371 -0.044113
C51   C     C_R   0.741595 0.032131 0.534224 0.019822
C52   C     C_R   0.682039 0.186252 0.499830 -0.009215
C53   C     C_R   0.819019 0.224374 0.539353 -0.268285
C54   C     C_R   0.925744 0.166917 0.570297 -0.016656
C55   C     C_R   0.885797 0.070936 0.568941 -0.134051
C56   C     C_3   0.031440 0.251776 0.391778 0.223872
C57   C     C_R   0.505442 0.048717 0.458882 -0.000604
C58   C     C_3   0.004566 0.145592 0.378574 -0.349920
C59   C     C_3   0.678411 0.721958 0.688940 0.975954
C60   C     C_3   0.678303 0.787368 0.760592 -0.323124
H1    H     H_    0.200300 0.879260 0.562577 0.068742
H2    H     H_    0.063036 0.877892 0.634903 0.020962
H3    H     H_    0.929497 0.284162 0.422028 -0.027051
H4    H     H_    0.141921 0.267876 0.424529 0.116900
H5    H     H_    0.879019 0.127139 0.358827 0.093086
H6    H     H_    0.024869 0.114747 0.429127 0.123723
H7    H     H_    0.090406 0.114998 0.337857 0.179614
H8    H     H_    0.744779 0.854639 0.755330 0.063145
H9    H     H_    0.738845 0.754297 0.803891 0.114059
H10   H     H_    0.552217 0.804333 0.775245 0.092771
H11   H     H_    0.460198 0.757052 0.298100 -0.019976
H12   H     H_    0.446469 0.903480 0.255080 0.014703
H13   H     H_    0.752391 0.274898 0.331575 0.036907
H14   H     H_    0.527709 0.169808 0.214324 0.129276
H15   H     H_    0.732610 0.213595 0.203360 0.068761
H16   H     H_    0.695233 0.120384 0.257520 0.181428
H17   H     H_    0.101360 0.689827 0.140096 0.072296
H18   H     H_    0.005696 0.273062 0.742205 0.038892
H19   H     H_    0.956284 0.149386 0.712519 -0.058776
H20   H     H_    0.156056 0.101949 0.799465 -0.034735
H21   H     H_    0.730569 0.242851 0.695115 -0.116374
H22   H     H_    0.535784 0.215017 0.649843 0.081834
H23   H     H_    0.656031 0.074748 0.692770 0.104725
H24   H     H_    0.467062 0.104603 0.736394 0.158776
H25   H     H_    0.013709 0.653517 0.261920 0.084623
H26   H     H_    0.656960 0.132962 0.783921 0.116021
H27   H     H_    0.680331 0.347085 0.120889 0.060262
H28   H     H_    0.562790 0.363653 0.005384 0.088485
H29   H     H_    0.825328 0.485670 0.658983 0.097323
H30   H     H_    0.904478 0.368319 0.205286 0.085805
H31   H     H_    0.281766 0.630272 0.795393 0.103517
H32   H     H_    0.611393 0.654535 0.008296 0.109999
H33   H     H_    0.581248 0.609090 0.126142 0.092974
H34   H     H_    0.204289 0.719430 0.262848 -0.110279
H35   H     H_    0.343974 0.533976 0.345083 0.107012
H36   H     H_    0.337912 0.689403 0.453547 0.073932
H37   H     H_    0.968058 0.026738 0.593795 0.068494
H38   H     H_    0.849392 0.298644 0.541658 0.056330
H39   H     H_    0.774161 0.895975 0.565191 0.075617
H40   H     H_    0.428766 0.091786 0.430550 0.157426
H41   H     H_    0.907505 0.734850 0.164749 0.149011
H42   H     H_    0.083765 0.813561 0.170952 0.115726
H43   H     H_    0.302761 0.721987 0.586762 0.012532
H44   H     H_    0.090022 0.720215 0.565041 0.089208
O1    O     O_2   0.887710 0.436190 0.327560 -0.452396
O2    O     O_3   0.604974 0.770034 0.637569 -0.646012
O3    O     O_3   0.007489 0.794530 0.303405 -0.549554
O4    O     O_2   0.301980 0.563840 0.672490 -0.394755
O5    O     O_3   0.054330 0.556590 0.583490 -0.473253
O6    O     O_3   0.555270 0.390630 0.635330 -0.474573
O7    O     O_3   0.154769 0.713556 0.672244 -0.606220
O8    O     O_3   0.637720 0.384870 0.467990 -0.422578
O9    O     O_3   0.145220 0.339960 0.601250 -0.445677
O10   O     O_2   0.257718 0.171691 0.556303 -0.471864
O11   O     O_3   0.187248 0.196012 0.690287 -0.546144
O12   O     O_3   0.135370 0.443490 0.416520 -0.447043
O13   O     O_3   0.551980 0.615210 0.532020 -0.421011
O14   O     O_2   0.394410 0.269100 0.474240 -0.449378
O15   O     O_3   0.527423 0.221374 0.356065 -0.638231
O16   O     O_2   0.419685 0.456848 0.755930 -0.394849
O17   O     O_3   0.527692 0.288461 0.751977 -0.540323
O18   O     O_3   0.634420 0.609440 0.364670 -0.448468
O19   O     O_2   0.750256 0.537510 0.240849 -0.478399
O20   O     O_3   0.047320 0.286365 0.325631 -0.589731
O21   O     O_3   0.671868 0.712336 0.244659 -0.628868
O22   O     O_2   0.795290 0.730930 0.525800 -0.467312
O23   O     O_3   0.044470 0.660110 0.398750 -0.496944
O24   O     O_2   0.945271 0.830071 0.440819 -0.459265
P1    P     P_3+3 0.061800 0.409390 0.339760 0.953876
P2    P     P_3+3 0.622760 0.718740 0.547830 1.037439
P3    P     P_3+3 0.069408 0.778289 0.390759 0.960051
P4    P     P_3+3 0.127890 0.590690 0.660240 1.034748
P5    P     P_3+3 0.125219 0.218116 0.604476 0.935898
P6    P     P_3+3 0.616228 0.602920 0.271292 0.965099
P7    P     P_3+3 0.572380 0.265225 0.446591 0.974775
P8    P     P_3+3 0.567432 0.400811 0.728206 1.074916
O25   O     O_3   0.665373 0.829148 0.340335 -0.637815
H45   H     H_    0.688095 0.780215 0.371398 0.319014
C61   C     C_2   0.310416 0.896632 0.668011 0.534667
H46   H     H_    0.307722 0.882973 0.723576 0.003929
O26   O     O_2   0.417365 0.947782 0.648871 -0.614852
O27   O     O_3   0.836992 0.702987 0.670977 -0.747911
H47   H     H_    0.886209 0.764096 0.661989 0.269732
O28   O     O_3   0.591123 0.637953 0.693806 -0.670655
H48   H     H_    0.620304 0.616587 0.740394 0.267334
O29   O     O_3   0.678999 0.916580 0.222313 -0.673998
H49   H     H_    0.766868 0.875963 0.202610 0.341527
C62   C     C_2   0.562303 0.346349 0.287652 0.568877
H50   H     H_    0.515583 0.350556 0.233726 -0.133351
O30   O     O_2   0.555654 0.414054 0.333393 -0.560713
C63   C     C_2   0.476107 0.813378 0.157842 0.437291
H51   H     H_    0.371461 0.765817 0.155266 -0.081914
O31   O     O_2   0.538810 0.829846 0.102084 -0.525227
C64   C     C_2   0.230679 0.239801 0.846159 0.610626
H52   H     H_    0.342794 0.212609 0.864677 -0.044283
O32   O     O_2   0.208246 0.324092 0.857171 -0.541572
C65   C     C_2   0.959959 0.166142 0.856244 0.380945
H53   H     H_    0.926603 0.099435 0.874432 0.006960
O33   O     O_2   0.879743 0.234801 0.874560 -0.575971
O34   O     O_3   0.556616 0.403475 0.877993 -0.649168
H54   H     H_    0.541979 0.338737 0.890392 0.313675
O35   O     O_3   0.517981 0.686889 0.883176 -0.753033
H55   H     H_    0.441887 0.727820 0.861604 0.282463
O36   O     O_3   0.232964 0.975396 0.382484 -0.737708
H56   H     H_    0.171200 0.938202 0.342567 0.313131

loop_
_geom_bond_atom_site_label_1
_geom_bond_atom_site_label_2
_ccdc_geom_bond_type
C12   O3    S    
C53   C54   A    
C8    H23   S    
C16   O34   S    
C39   C40   A    
C5    O11   S    
C17   C18   A    
Ba1   O22   S    
Ba1   P2    S    
Ba2   O12   S    
C5    C6    S    
C37   C39   A    
O10   P5    D    
C43   C44   A    
C10   C11   A    
O17   P8    S    
C8    H26   S    
Ba2   P4    S    
O9    P5    S    
C6    H20   S    
C48   C57   A    
O13   P2    S    
C26   C27   A    
C33   C35   A    
C35   C36   A    
C22   C24   A    
C12   H25   S    
Ba1   Ba2   S    
Ba1   O23   S    
C61   O26   D    
C45   H1    S    
C3    C4    S    
C4    H16   S    
C52   P7    S    
C19   C31   A    
C43   C49   A    
C56   C58   S    
C13   C14   A    
C55   H37   S    
C3    O15   S    
C1    C63   S    
O20   P1    S    
C54   C55   A    
C60   H8    S    
C34   C45   S    
C16   C17   A    
Ba1   O13   S    
O8    P7    S    
O15   P7    S    
C1    H12   S    
C59   O2    S    
O12   P1    S    
C56   H3    S    
C42   C51   A    
C56   H4    S    
C8    H24   S    
C65   H53   S    
C58   H5    S    
C14   C15   A    
C53   H38   S    
C60   H9    S    
C21   C22   A    
C65   O33   D    
C63   O31   D    
C7    C8    S    
C10   C28   A    
C44   H36   S    
C1    O29   S    
C32   C36   A    
C27   C41   A    
C34   O7    S    
O22   P2    D    
C12   H34   S    
C50   C52   A    
C48   C49   A    
C25   C32   A    
O25   H45   S    
C44   C46   A    
Ba2   O5    S    
O18   P6    S    
O3    P3    S    
C30   C33   A    
O6    P8    S    
C46   P3    S    
C17   C20   A    
O29   H49   S    
O16   P8    D    
C28   H30   S    
C40   H35   S    
C37   C38   A    
Ba2   O14   S    
C23   H41   S    
C4    H15   S    
C26   C37   A    
C29   H31   S    
C34   H44   S    
C15   C19   A    
C3    C62   S    
C64   H52   S    
C3    H13   S    
C59   O28   S    
C27   C28   A    
C50   C57   A    
Ba2   O9    S    
C59   O27   S    
C29   C30   A    
C9    C25   A    
C9    C10   A    
Ba2   O6    S    
C31   C32   A    
C60   H10   S    
C23   H42   S    
O21   P6    S    
C2    H11   S    
Ba1   O1    S    
O23   P3    S    
O19   P6    D    
O1    P1    D    
C46   C47   A    
C5    H19   S    
C7    H21   S    
C56   O20   S    
O7    P4    S    
C11   C13   A    
O36   H56   S    
C21   H29   S    
O4    P4    D    
O24   P3    D    
C40   C41   A    
C38   H33   S    
C1    C2    S    
O11   P5    S    
C45   H2    S    
C54   P5    S    
C50   C51   A    
C42   C49   A    
O28   H48   S    
C22   P4    S    
C45   C61   S    
C52   C53   A    
O35   H55   S    
C51   C55   A    
C2    O21   S    
C11   H27   S    
C34   H43   S    
C23   H17   S    
C57   H40   S    
O27   H47   S    
Ba1   P1    S    
C9    C15   A    
C42   H39   S    
O5    P4    S    
C4    H14   S    
O34   H54   S    
C20   P8    S    
C33   O35   S    
C62   H50   S    
C30   C31   A    
C41   P1    S    
Ba1   O18   S    
C47   O36   S    
C61   H46   S    
Ba1   O5    S    
C13   H28   S    
C36   C38   A    
Ba2   O8    S    
C18   C24   A    
C58   H7    S    
Ba2   O13   S    
C64   O32   D    
C7    O17   S    
C35   H32   S    
C62   O30   D    
Ba1   O12   S    
C12   C23   S    
C59   C60   S    
C6    C64   S    
O2    P2    S    
C7    H22   S    
C24   C29   A    
C18   C19   A    
C58   H6    S    
C43   P2    S    
C14   C16   A    
C47   C48   A    
Ba1   O8    S    
C25   C26   A    
C20   C21   A    
O14   P7    D    
C63   H51   S    
C6    C65   S    
C39   P6    S    
C5    H18   S    
C2    O25   S    
Ba2   O4    S    
