data_mof_unit_59495.cif
_audit_creation_date              2012-12-10T18:43:43-0500
_audit_creation_method            fapswitch 2.2
_symmetry_space_group_name_H-M    P1
_symmetry_Int_Tables_number       1
_space_group_crystal_system       triclinic
_cell_length_a                    10.66445
_cell_length_b                    10.641589
_cell_length_c                    9.948499
_cell_angle_alpha                 89.866681
_cell_angle_beta                  102.156288
_cell_angle_gamma                 91.666479
_cell_volume                      1103.23085874

loop_
_atom_site_label
_atom_site_type_symbol
_atom_type_description
_atom_site_fract_x
_atom_site_fract_y
_atom_site_fract_z
_atom_type_partial_charge
C1    C     C_R   0.497849 0.260539 0.499806 0.927108
C2    C     C_R   0.502498 0.739167 0.500355 0.975724
C3    C     C_R   0.258270 0.495041 0.444099 0.934156
C4    C     C_R   0.740859 0.494759 0.554991 0.923060
C5    C     C_R   0.574541 0.585083 0.088484 0.315487
C6    C     C_R   0.436338 0.407434 0.915993 0.300906
C7    C     C_R   0.572152 0.586948 0.944589 0.341615
C8    C     C_R   0.428384 0.413588 0.056150 0.343512
C9    C     C_2   0.118794 0.478087 0.415948 -0.037075
C10   C     C_2   0.877986 0.476828 0.578256 0.025359
C11   C     C_2   0.062849 0.401986 0.497938 0.090336
C12   C     C_2   0.925211 0.403785 0.488736 0.199380
C13   C     C_R   0.609191 0.069468 0.568322 0.347307
C14   C     C_R   0.389397 0.929145 0.437459 0.358708
C15   C     C_R   0.615040 0.939670 0.562375 0.054364
C16   C     C_R   0.385926 0.059200 0.435466 0.053857
C17   C     C_R   0.503219 0.871508 0.499597 -0.174834
C18   C     C_R   0.496985 0.127740 0.500954 -0.163775
N1    N     N_R   0.499970 0.499970 0.857200 -0.186929
N2    N     N_R   0.500030 0.500030 0.142800 -0.192363
O1    O     O_R   0.499990 0.316750 0.614620 -0.534382
O2    O     O_R   0.500010 0.683250 0.385380 -0.546088
O3    O     O_R   0.499990 0.316780 0.385290 -0.588005
O4    O     O_R   0.500010 0.683220 0.614710 -0.570659
O5    O     O_R   0.317810 0.500000 0.571850 -0.617119
O6    O     O_R   0.682190 0.500000 0.428150 -0.609218
O7    O     O_R   0.317810 0.500030 0.342520 -0.563201
O8    O     O_R   0.682190 0.499970 0.657480 -0.556278
Zn1   Zn    Zn3+2 0.500000 0.499980 0.653120 1.067287
Zn2   Zn    Zn3+2 0.500000 0.500020 0.346880 1.057707
C19   C     C_3   0.843927 0.322141 0.376528 -0.758280
H1    H     H_    0.903881 0.252661 0.337958 0.243543
H2    H     H_    0.768522 0.268756 0.415574 0.258042
H3    H     H_    0.798854 0.380362 0.287747 0.250781
C20   C     C_3   0.134959 0.319944 0.609231 -0.716415
H4    H     H_    0.070681 0.245712 0.639163 0.270288
H5    H     H_    0.213464 0.272657 0.574632 0.239341
H6    H     H_    0.173419 0.379059 0.700788 0.274238
Cl1   Cl    Cl    0.677121 0.691206 0.198352 -0.501472
Cl2   Cl    Cl    0.383443 0.266083 0.829541 -0.510855
C21   C     C_3   0.963358 0.547516 0.696390 -0.849875
H7    H     H_    0.907262 0.612294 0.746561 0.271171
H8    H     H_    0.009948 0.480292 0.775363 0.271663
H9    H     H_    0.037444 0.605131 0.658991 0.254430
C22   C     C_3   0.040188 0.549351 0.297241 -0.725842
H10   H     H_    0.102170 0.608604 0.244396 0.283530
H11   H     H_    0.984794 0.482320 0.220342 0.248191
H12   H     H_    0.973341 0.611893 0.334952 0.270742
Cl3   Cl    Cl    0.672282 0.695475 0.881342 -0.519229
Cl4   Cl    Cl    0.324770 0.308198 0.118315 -0.525151
Cl5   Cl    Cl    0.742829 0.158927 0.660723 -0.608566
Cl6   Cl    Cl    0.250027 0.837534 0.363790 -0.613973
C23   C     C_3   0.741406 0.877500 0.618641 -0.631093
H13   H     H_    0.815840 0.916124 0.565639 0.247091
H14   H     H_    0.772299 0.897012 0.730429 0.297588
H15   H     H_    0.737535 0.774308 0.603389 0.203794
C24   C     C_3   0.262393 0.120625 0.367401 -0.660498
H16   H     H_    0.184280 0.090435 0.419613 0.243630
H17   H     H_    0.268563 0.224417 0.370242 0.213204
H18   H     H_    0.235231 0.091274 0.257881 0.304042

loop_
_geom_bond_atom_site_label_1
_geom_bond_atom_site_label_2
_ccdc_geom_bond_type
C2    O2    A    
C4    O6    A    
C11   C12   S    
C19   H2    S    
C1    O1    A    
C3    C9    S    
O2    Zn2   S    
C21   H8    S    
C21   H7    S    
C19   H1    S    
C13   C15   A    
C20   H6    S    
C23   H14   S    
C24   H16   S    
C19   H3    S    
C5    N2    A    
N2    Zn2   S    
C22   H10   S    
O7    Zn2   S    
O5    Zn1   S    
C6    N1    A    
C9    C11   D    
C14   C17   A    
C1    C18   S    
C8    N2    A    
C10   C12   D    
C13   C18   A    
C10   C21   S    
C9    C22   S    
C15   C23   S    
C11   C20   S    
O8    Zn1   S    
C4    O8    A    
C1    O3    A    
C7    N1    A    
C16   C24   S    
C22   H11   S    
C12   C19   S    
C2    O4    A    
C21   H9    S    
C14   C16   A    
C24   H17   S    
C3    O7    A    
C15   C17   A    
C4    C10   S    
N1    Zn1   S    
O3    Zn2   S    
C8    Cl4   S    
C3    O5    A    
C6    Cl2   S    
C13   Cl5   S    
C7    Cl3   S    
C16   C18   A    
C23   H15   S    
C5    C7    A    
C5    Cl1   S    
O4    Zn1   S    
C24   H18   S    
C6    C8    A    
C22   H12   S    
C20   H5    S    
C23   H13   S    
O1    Zn1   S    
C14   Cl6   S    
C20   H4    S    
C2    C17   S    
O6    Zn2   S    
