data_mof_unit_58413.cif
_audit_creation_date              2012-12-10T17:46:29-0500
_audit_creation_method            fapswitch 2.2
_symmetry_space_group_name_H-M    P1
_symmetry_Int_Tables_number       1
_space_group_crystal_system       triclinic
_cell_length_a                    20.582162
_cell_length_b                    21.678596
_cell_length_c                    14.749635
_cell_angle_alpha                 89.786131
_cell_angle_beta                  128.194895
_cell_angle_gamma                 90.287581
_cell_volume                      5172.15726941

loop_
_atom_site_label
_atom_site_type_symbol
_atom_type_description
_atom_site_fract_x
_atom_site_fract_y
_atom_site_fract_z
_atom_type_partial_charge
C1    C     C_R   0.605301 0.916067 0.634726 0.866756
C2    C     C_R   0.394672 0.084042 0.365380 0.865725
C3    C     C_R   0.401775 0.910334 0.374590 0.873374
C4    C     C_R   0.598135 0.089778 0.625197 0.876062
C5    C     C_R   0.105327 0.415958 0.634619 0.865718
C6    C     C_R   0.894698 0.583932 0.365272 0.866756
C7    C     C_R   0.901864 0.410222 0.374803 0.876058
C8    C     C_R   0.098226 0.589666 0.625412 0.873372
C9    C     C_R   0.363535 0.699323 0.008449 -0.162721
C10   C     C_R   0.636830 0.301867 0.990814 -0.149172
C11   C     C_R   0.650017 0.661189 0.925930 -0.168885
C12   C     C_R   0.354941 0.334566 0.068957 -0.151925
C13   C     C_R   0.863162 0.198120 0.009205 -0.149166
C14   C     C_R   0.136469 0.800678 0.991551 -0.162715
C15   C     C_R   0.145057 0.165434 0.931041 -0.151915
C16   C     C_R   0.849972 0.838810 0.074060 -0.168884
C17   C     C_R   0.322841 0.018476 0.665488 -0.260734
C18   C     C_R   0.680049 0.005517 0.336871 -0.256192
C19   C     C_R   0.819951 0.494499 0.663128 -0.256195
C20   C     C_R   0.177154 0.481512 0.334508 -0.260736
C21   C     C_R   0.352178 0.010959 0.603150 0.143698
C22   C     C_R   0.649197 0.001858 0.398065 0.142432
C23   C     C_R   0.850804 0.498149 0.601936 0.142431
C24   C     C_R   0.147819 0.489034 0.396847 0.143699
C25   C     C_R   0.487872 0.995633 0.775772 0.099400
C26   C     C_R   0.512266 0.999599 0.223993 0.103530
C27   C     C_R   0.987732 0.500397 0.776007 0.103538
C28   C     C_R   0.012129 0.504372 0.224229 0.099401
C29   C     C_R   0.463582 0.009142 0.845636 -0.006395
C30   C     C_R   0.539278 0.008775 0.155963 -0.005763
C31   C     C_R   0.960719 0.491227 0.844035 -0.005759
C32   C     C_R   0.036415 0.490859 0.154362 -0.006390
C33   C     C_R   0.378071 0.017924 0.786288 0.109713
C34   C     C_R   0.625561 0.009147 0.216171 0.107261
C35   C     C_R   0.874437 0.490866 0.783827 0.107262
C36   C     C_R   0.121923 0.482067 0.213708 0.109713
C37   C     C_R   0.519155 0.012731 0.970319 0.007248
C38   C     C_R   0.485113 0.015497 0.031895 0.009654
C39   C     C_R   0.014882 0.484501 0.968102 0.009656
C40   C     C_R   0.980841 0.487274 0.029678 0.007251
C41   C     C_R   0.399460 0.029548 0.966627 0.123897
C42   C     C_R   0.606788 0.018428 0.036826 0.125388
C43   C     C_R   0.893207 0.481589 0.963171 0.125392
C44   C     C_R   0.100530 0.470439 0.033368 0.123897
C45   C     C_R   0.347846 0.028866 0.846762 -0.178118
C46   C     C_R   0.657648 0.015101 0.156761 -0.180120
C47   C     C_R   0.842349 0.484920 0.843236 -0.180122
C48   C     C_R   0.152145 0.471119 0.153232 -0.178119
C49   C     C_R   0.654040 0.142129 0.694643 -0.140833
C50   C     C_R   0.345756 0.858257 0.304567 -0.141260
C51   C     C_R   0.324667 0.122293 0.275298 -0.113116
C52   C     C_R   0.675534 0.878728 0.726199 -0.115400
C53   C     C_R   0.154247 0.641741 0.695437 -0.141265
C54   C     C_R   0.845959 0.357871 0.305357 -0.140845
C55   C     C_R   0.824462 0.621269 0.273796 -0.115400
C56   C     C_R   0.175331 0.377705 0.724699 -0.113119
C57   C     C_R   0.797842 0.170662 0.812215 -0.192280
C58   C     C_R   0.202377 0.828463 0.188806 -0.197317
C59   C     C_R   0.182229 0.116875 0.102694 -0.183468
C60   C     C_R   0.815052 0.888501 0.904005 -0.187467
C61   C     C_R   0.297625 0.671536 0.811193 -0.197320
C62   C     C_R   0.702160 0.329325 0.187809 -0.192281
C63   C     C_R   0.684944 0.611496 0.095987 -0.187468
C64   C     C_R   0.317770 0.383124 0.897303 -0.183475
C65   C     C_R   0.727333 0.150417 0.707202 0.176367
C66   C     C_R   0.272918 0.849433 0.293215 0.181190
C67   C     C_R   0.244104 0.097695 0.214229 0.113075
C68   C     C_R   0.755348 0.905002 0.789853 0.114941
C69   C     C_R   0.227083 0.650565 0.706786 0.181186
C70   C     C_R   0.772673 0.349575 0.292816 0.176372
C71   C     C_R   0.744649 0.594993 0.210141 0.114939
C72   C     C_R   0.255895 0.402303 0.785768 0.113072
C73   C     C_R   0.642896 0.177508 0.765336 0.093685
C74   C     C_R   0.356398 0.823620 0.232486 0.069381
C75   C     C_R   0.339073 0.173732 0.229871 0.070487
C76   C     C_R   0.660968 0.827578 0.771903 0.046432
C77   C     C_R   0.143607 0.676377 0.767521 0.069383
C78   C     C_R   0.857097 0.322494 0.234655 0.093684
C79   C     C_R   0.839023 0.672421 0.228092 0.046435
C80   C     C_R   0.160925 0.326267 0.770125 0.070490
C81   C     C_R   0.713773 0.207317 0.865008 0.045194
C82   C     C_R   0.285939 0.792776 0.134574 0.038898
C83   C     C_R   0.272508 0.196285 0.117270 0.055649
C84   C     C_R   0.726672 0.806126 0.885473 0.044915
C85   C     C_R   0.214066 0.707223 0.865429 0.038898
C86   C     C_R   0.786220 0.292679 0.134997 0.045182
C87   C     C_R   0.773318 0.693873 0.114520 0.044920
C88   C     C_R   0.227491 0.303714 0.882727 0.055653
C89   C     C_R   0.792114 0.192881 0.895309 0.078139
C90   C     C_R   0.207720 0.806296 0.105271 0.073002
C91   C     C_R   0.198261 0.161310 0.051006 0.092969
C92   C     C_R   0.798660 0.843275 0.954205 0.081819
C93   C     C_R   0.292285 0.693704 0.894729 0.073001
C94   C     C_R   0.707881 0.307108 0.104707 0.078136
C95   C     C_R   0.701331 0.656724 0.045787 0.081817
C96   C     C_R   0.301737 0.338690 0.948991 0.092967
C97   C     C_R   0.712882 0.245649 0.942563 0.093107
C98   C     C_R   0.287107 0.754562 0.057207 0.082434
C99   C     C_R   0.278599 0.247204 0.061430 0.091653
C100  C     C_R   0.721978 0.753172 0.938656 0.078864
C101  C     C_R   0.212899 0.745439 0.942795 0.082434
C102  C     C_R   0.787109 0.254345 0.057444 0.093106
C103  C     C_R   0.778011 0.746827 0.061336 0.078861
C104  C     C_R   0.221399 0.252795 0.938566 0.091655
C105  C     C_R   0.358090 0.722726 0.090782 -0.161282
C106  C     C_R   0.642248 0.278014 0.908805 -0.147685
C107  C     C_R   0.666193 0.704973 0.873814 -0.161654
C108  C     C_R   0.337469 0.293949 0.123711 -0.145122
C109  C     C_R   0.857742 0.221978 0.091208 -0.147689
C110  C     C_R   0.141916 0.777275 0.909219 -0.161281
C111  C     C_R   0.162529 0.206049 0.876286 -0.145120
C112  C     C_R   0.833796 0.795026 0.126176 -0.161655
Cu1   Cu    Cu3+1 0.526640 0.000000 0.436960 1.026887
Cu2   Cu    Cu3+1 0.473360 1.000000 0.563040 1.025820
Cu3   Cu    Cu3+1 0.026640 0.500000 0.436960 1.025820
Cu4   Cu    Cu3+1 0.973360 0.500000 0.563040 1.026886
H1    H     H_    0.422161 0.681691 0.034946 0.162722
H2    H     H_    0.578373 0.320126 0.963947 0.159767
H3    H     H_    0.600688 0.628064 0.872371 0.163570
H4    H     H_    0.406157 0.366535 0.120768 0.160372
H5    H     H_    0.921619 0.179858 0.036077 0.159766
H6    H     H_    0.077843 0.818311 0.965052 0.162721
H7    H     H_    0.093841 0.133464 0.879229 0.160374
H8    H     H_    0.899302 0.871935 0.127619 0.163569
H9    H     H_    0.356766 0.669536 0.827825 0.174770
H10   H     H_    0.642850 0.331561 0.170653 0.174186
H11   H     H_    0.627358 0.585792 0.043885 0.172353
H12   H     H_    0.376564 0.407334 0.947719 0.169748
H13   H     H_    0.857156 0.168422 0.829382 0.174187
H14   H     H_    0.143235 0.830463 0.172172 0.174770
H15   H     H_    0.123436 0.092664 0.052278 0.169748
H16   H     H_    0.872641 0.914204 0.956106 0.172353
H17   H     H_    0.409831 0.715800 0.180263 0.184052
H18   H     H_    0.591019 0.285622 0.819429 0.179036
H19   H     H_    0.634772 0.700470 0.782649 0.181669
H20   H     H_    0.369876 0.300105 0.214786 0.176719
H21   H     H_    0.908971 0.214375 0.180587 0.179029
H22   H     H_    0.090175 0.784200 0.819736 0.184051
H23   H     H_    0.130123 0.199893 0.785211 0.176717
H24   H     H_    0.865215 0.799531 0.217340 0.181672
H25   H     H_    0.282890 0.039586 0.799470 0.168452
H26   H     H_    0.723997 0.019237 0.205169 0.170320
H27   H     H_    0.775999 0.480793 0.794828 0.170321
H28   H     H_    0.217097 0.460391 0.200522 0.168452
H29   H     H_    0.448792 0.989569 0.184520 0.163377
H30   H     H_    0.549124 0.980117 0.813401 0.159681
H31   H     H_    0.950881 0.519896 0.186603 0.159681
H32   H     H_    0.051208 0.510420 0.815481 0.163373
H33   H     H_    0.691311 0.000614 0.490632 0.170052
H34   H     H_    0.310133 0.014434 0.510833 0.168462
H35   H     H_    0.189863 0.485555 0.489164 0.168463
H36   H     H_    0.808693 0.499393 0.509370 0.170052
H37   H     H_    0.257407 0.026517 0.619294 0.156673
H38   H     H_    0.746414 0.006603 0.384050 0.159452
H39   H     H_    0.753587 0.493420 0.615949 0.159451
H40   H     H_    0.242586 0.473464 0.380700 0.156674
N1    N     N_R   0.433280 0.000000 0.657760 -0.186225
N2    N     N_R   0.566720 0.000000 0.342240 -0.186564
N3    N     N_R   0.933280 0.500000 0.657760 -0.186567
N4    N     N_R   0.066720 0.500000 0.342240 -0.186228
O1    O     O_R   0.600040 0.935040 0.546740 -0.564681
O2    O     O_R   0.399960 0.064960 0.453260 -0.573664
O3    O     O_R   0.399960 0.935040 0.453260 -0.549899
O4    O     O_R   0.600040 0.064960 0.546740 -0.556623
O5    O     O_R   0.100040 0.435040 0.546740 -0.573671
O6    O     O_R   0.899960 0.564960 0.453260 -0.564684
O7    O     O_R   0.899960 0.435040 0.453260 -0.556623
O8    O     O_R   0.100040 0.564960 0.546740 -0.549897
O9    O     O_R   0.555010 0.935070 0.653220 -0.569342
O10   O     O_R   0.444990 0.064930 0.346780 -0.548944
O11   O     O_R   0.444990 0.935070 0.346780 -0.567615
O12   O     O_R   0.555010 0.064930 0.653220 -0.549501
O13   O     O_R   0.055010 0.435070 0.653220 -0.548945
O14   O     O_R   0.944990 0.564930 0.346780 -0.569342
O15   O     O_R   0.944990 0.435070 0.346780 -0.549497
O16   O     O_R   0.055010 0.564930 0.653220 -0.567612
I1    I     I_    0.341222 0.073155 0.028625 -0.387383
I2    I     I_    0.673798 0.051397 0.978923 -0.372804
I3    I     I_    0.826190 0.448631 0.021068 -0.372784
I4    I     I_    0.158754 0.426819 0.971362 -0.387375
I5    I     I_    0.474493 0.828320 0.263334 -0.353123
I6    I     I_    0.521814 0.176091 0.725540 -0.318265
I7    I     I_    0.533152 0.798430 0.678364 -0.325018
I8    I     I_    0.467477 0.201326 0.322858 -0.300224
I9    I     I_    0.978162 0.323926 0.274399 -0.318260
I10   I     I_    0.025520 0.671672 0.736694 -0.353122
I11   I     I_    0.032520 0.298671 0.677131 -0.300221
I12   I     I_    0.966835 0.701577 0.321644 -0.325031
I13   I     I_    0.261807 0.865083 0.425599 -0.258913
I14   I     I_    0.738077 0.137567 0.574206 -0.267207
I15   I     I_    0.788145 0.980862 0.735486 -0.378662
I16   I     I_    0.211910 0.019775 0.265160 -0.382927
I17   I     I_    0.761944 0.362418 0.425829 -0.267179
I18   I     I_    0.238193 0.634916 0.574400 -0.258908
I19   I     I_    0.288090 0.480216 0.734830 -0.382929
I20   I     I_    0.711852 0.519134 0.264525 -0.378660

loop_
_geom_bond_atom_site_label_1
_geom_bond_atom_site_label_2
_ccdc_geom_bond_type
Cu2   O9    S    
C23   H36   S    
C88   C96   A    
C82   C90   A    
C14   H6    S    
C29   C33   A    
C19   H39   S    
C112  H24   S    
C5    C56   S    
C53   C77   A    
C6    C55   S    
C53   C69   A    
C76   C84   A    
C72   I19   S    
C6    O6    A    
Cu2   O3    S    
C111  H23   S    
Cu1   O11   S    
C74   I5    S    
Cu2   O12   S    
C99   C108  A    
C59   H15   S    
C55   C79   A    
C98   C105  A    
C57   C89   A    
Cu4   O13   S    
C32   C36   A    
C57   H13   S    
C51   C75   A    
C108  H20   S    
Cu3   O14   S    
C50   C74   A    
Cu3   O8    S    
C61   C93   A    
Cu2   O2    S    
C10   C94   A    
C27   N3    A    
Cu3   Cu4   S    
C66   I13   S    
C63   C95   A    
C28   N4    A    
C33   C45   A    
C30   C38   A    
C109  H21   S    
C42   C46   A    
C37   C42   A    
C14   C90   A    
Cu3   O15   S    
C86   C94   A    
C59   C67   A    
C12   H4    S    
C85   C93   A    
C58   C66   A    
C40   C43   A    
C20   C24   A    
C27   H32   S    
C56   C72   A    
C21   N1    A    
C87   C95   A    
C107  H19   S    
C4    O4    A    
Cu4   O7    S    
C36   C48   A    
C25   H30   S    
C34   C46   A    
C5    O5    A    
Cu1   N2    S    
Cu3   O5    S    
C76   I7    S    
C8    O8    A    
C97   C102  A    
C18   H38   S    
C3    O3    A    
C81   C89   A    
C78   C86   A    
C32   C40   A    
C99   C104  A    
C22   H33   S    
C77   C85   A    
C83   C99   A    
C79   C87   A    
C45   H25   S    
C77   I10   S    
C82   C98   A    
C62   C70   A    
C44   I4    S    
C15   H7    S    
C17   C33   A    
C74   C82   A    
C75   I8    S    
C73   C81   A    
C88   C104  A    
C3    C50   S    
C60   C92   A    
C25   C29   A    
C79   I12   S    
Cu4   O16   S    
C4    O12   A    
C27   C31   A    
C84   C100  A    
C15   C111  A    
C6    O14   A    
C110  H22   S    
C52   C68   A    
C64   C96   A    
C38   C41   A    
C46   H26   S    
C11   H3    S    
C39   C40   A    
C12   C108  A    
C30   C34   A    
C67   I16   S    
C58   H14   S    
C51   C67   A    
C22   N2    A    
C48   H28   S    
C64   H12   S    
C17   H37   S    
C15   C91   A    
C100  C103  A    
C17   C21   A    
C23   N3    A    
C103  C112  A    
C26   H29   S    
C19   C23   A    
Cu2   N1    S    
C37   C38   A    
C10   H2    S    
C24   H35   S    
C7    O15   A    
C13   H5    S    
C54   C70   A    
C28   C32   A    
C43   I3    S    
C50   C66   A    
C24   N4    A    
C78   I9    S    
C59   C91   A    
C21   H34   S    
C18   C34   A    
C63   C71   A    
C49   C65   A    
Cu4   N3    S    
C87   C103  A    
C97   C106  A    
C2    O10   A    
C26   C30   A    
C62   C94   A    
C11   C107  A    
C49   C73   A    
C10   C106  A    
Cu1   O1    S    
C86   C102  A    
C9    C93   A    
C75   C83   A    
C85   C101  A    
C16   C112  A    
C62   H10   S    
Cu1   Cu2   S    
C41   I1    S    
C14   C110  A    
C7    O7    A    
C100  C107  A    
C60   H16   S    
C20   H40   S    
C13   C89   A    
C18   C22   A    
C105  H17   S    
C5    O13   A    
C47   H27   S    
C57   C65   A    
C43   C47   A    
C52   C76   A    
C56   C80   A    
C8    C53   S    
C104  C111  A    
C8    O16   A    
C16   C92   A    
C39   C44   A    
C13   C109  A    
C98   C101  A    
C83   C91   A    
Cu3   N4    S    
C68   I15   S    
C4    C49   S    
C58   C90   A    
C61   C69   A    
C101  C110  A    
C80   C88   A    
C19   C35   A    
Cu1   O4    S    
C25   N1    A    
C73   I6    S    
C3    O11   A    
C71   I20   S    
C81   C97   A    
C42   I2    S    
C70   I17   S    
C31   C35   A    
C1    O9    A    
C69   I18   S    
C80   I11   S    
C31   C39   A    
C26   N2    A    
Cu1   O10   S    
C64   C72   A    
C16   H8    S    
C1    C52   S    
C63   H11   S    
Cu4   O6    S    
C2    C51   S    
C1    O1    A    
C20   C36   A    
C106  H18   S    
C11   C95   A    
C65   I14   S    
C60   C68   A    
C29   C37   A    
C41   C45   A    
C12   C96   A    
C102  C109  A    
C61   H9    S    
C84   C92   A    
C7    C54   S    
C54   C78   A    
C35   C47   A    
C9    C105  A    
C55   C71   A    
C9    H1    S    
C44   C48   A    
C2    O2    A    
C28   H31   S    
