data_mof_unit_34434.cif
_audit_creation_date              2012-12-10T17:07:13-0500
_audit_creation_method            fapswitch 2.2
_symmetry_space_group_name_H-M    P1
_symmetry_Int_Tables_number       1
_space_group_crystal_system       triclinic
_cell_length_a                    17.214707
_cell_length_b                    10.990199
_cell_length_c                    9.954215
_cell_angle_alpha                 110.650413
_cell_angle_beta                  94.484634
_cell_angle_gamma                 93.73896
_cell_volume                      1748.16048507

loop_
_atom_site_label
_atom_site_type_symbol
_atom_type_description
_atom_site_fract_x
_atom_site_fract_y
_atom_site_fract_z
_atom_type_partial_charge
C1    C     C_R   0.499062 0.254462 0.441815 0.820258
C2    C     C_R   0.510540 0.744754 0.556922 0.942668
C3    C     C_2   0.502822 0.114384 0.415582 -0.165692
C4    C     C_2   0.543659 0.876019 0.578098 -0.193153
C5    C     C_2   0.534801 0.078904 0.524875 -0.037384
C6    C     C_2   0.498671 0.963201 0.550274 -0.082843
C7    C     C_2   0.513652 0.496601 0.074072 0.149868
C8    C     C_2   0.499800 0.475666 0.914745 0.164484
C9    C     C_R   0.351924 0.501400 0.519259 0.815906
C10   C     C_R   0.648254 0.496796 0.480618 0.931702
C11   C     C_R   0.267398 0.493293 0.530732 -0.155108
C12   C     C_R   0.732971 0.496378 0.467404 -0.104857
C13   C     C_R   0.220152 0.380881 0.437793 0.243708
C14   C     C_R   0.785232 0.595569 0.571447 0.248099
C15   C     C_R   0.139728 0.372571 0.442782 -0.183592
C16   C     C_R   0.864502 0.602307 0.552534 -0.175983
C17   C     C_R   0.105205 0.473938 0.538630 0.023638
C18   C     C_R   0.893145 0.511427 0.435329 0.053054
C19   C     C_R   0.151037 0.585889 0.636429 -0.002648
C20   C     C_R   0.842740 0.410284 0.330970 -0.042604
C21   C     C_R   0.233733 0.593329 0.636790 -0.092091
C22   C     C_R   0.761537 0.402997 0.346432 -0.069835
C23   C     C_2   0.019204 0.463414 0.526314 -0.164856
C24   C     C_2   0.978876 0.513989 0.438651 -0.165059
Cu1   Cu    Cu3+1 0.513640 0.521550 0.643210 0.976139
Cu2   Cu    Cu3+1 0.486360 0.478450 0.356790 1.008077
H1    H     H_    0.905768 0.674892 0.633359 0.154126
H2    H     H_    0.103466 0.286697 0.369832 0.161284
N1    N     N_2   0.465840 0.446060 0.141630 -0.131694
N2    N     N_2   0.534160 0.553940 0.858370 -0.131100
O1    O     O_R   0.507280 0.332200 0.576490 -0.588185
O2    O     O_R   0.492720 0.667800 0.423510 -0.566314
O3    O     O_R   0.484240 0.295800 0.334620 -0.568770
O4    O     O_R   0.515760 0.704200 0.665380 -0.612529
O5    O     O_R   0.399260 0.520290 0.634950 -0.640986
O6    O     O_R   0.600740 0.479710 0.365050 -0.597040
O7    O     O_R   0.376220 0.483890 0.393080 -0.551536
O8    O     O_R   0.623780 0.516110 0.606920 -0.551213
N3    N     N_2   0.253470 0.272722 0.342458 -0.445911
H3    H     H_    0.218124 0.223113 0.247437 0.262275
C25   C     C_3   0.282323 0.185024 0.409777 -0.676789
H4    H     H_    0.307811 0.104318 0.328920 0.216295
H5    H     H_    0.233704 0.142343 0.451665 0.255393
H6    H     H_    0.328571 0.237365 0.499696 0.203884
N4    N     N_2   0.757740 0.683962 0.697758 -0.426059
H7    H     H_    0.746345 0.641353 0.772140 0.266549
C26   C     C_3   0.796628 0.815408 0.762648 -0.593917
H8    H     H_    0.758352 0.878689 0.836348 0.223667
H9    H     H_    0.808219 0.856839 0.678375 0.266406
H10   H     H_    0.852328 0.815701 0.827147 0.224548
C27   C     C_2   0.707435 0.297192 0.237081 0.523492
H11   H     H_    0.713511 0.271754 0.122984 0.105974
O9    O     O_2   0.657413 0.234944 0.273680 -0.532845
C28   C     C_2   0.285430 0.701499 0.748753 0.490397
H12   H     H_    0.340106 0.737985 0.723159 0.107568
O10   O     O_2   0.269424 0.746419 0.873055 -0.508617
C29   C     C_2   0.018462 0.579880 0.351155 0.415582
H13   H     H_    0.081525 0.585551 0.350023 0.087773
O11   O     O_2   0.980308 0.628830 0.278432 -0.502967
C30   C     C_2   0.979607 0.394219 0.610829 0.425901
H14   H     H_    0.916313 0.377244 0.601366 0.094029
O12   O     O_2   0.018036 0.354571 0.692479 -0.508753
C31   C     C_2   0.110701 0.695353 0.730135 0.464774
H15   H     H_    0.055627 0.675168 0.767994 0.065766
O13   O     O_2   0.136261 0.809075 0.759795 -0.498630
C32   C     C_2   0.877326 0.310491 0.212571 0.362398
H16   H     H_    0.931552 0.336276 0.175941 0.111175
O14   O     O_2   0.847936 0.197556 0.158766 -0.545554
C33   C     C_2   0.411098 0.949750 0.543261 0.462610
H17   H     H_    0.378916 0.027788 0.531913 0.063998
O15   O     O_2   0.374003 0.854395 0.550794 -0.588539
C34   C     C_2   0.598118 0.164869 0.635052 0.456381
H18   H     H_    0.602505 0.165113 0.744483 0.082745
O16   O     O_2   0.647373 0.231855 0.602763 -0.508453
C35   C     C_2   0.630538 0.891339 0.588545 0.331803
H19   H     H_    0.664365 0.975173 0.669398 0.075440
O17   O     O_2   0.665416 0.807312 0.507204 -0.539412
C36   C     C_2   0.462786 0.017411 0.277839 0.348016
H20   H     H_    0.427445 0.050177 0.204491 0.085384
O18   O     O_2   0.470944 0.901086 0.242541 -0.519526
C37   C     C_2   0.453153 0.353984 0.820514 0.419011
H21   H     H_    0.404636 0.356165 0.745881 0.089372
O19   O     O_2   0.468295 0.249184 0.826870 -0.616738
C38   C     C_2   0.589765 0.565051 0.149649 0.455287
H22   H     H_    0.592490 0.648291 0.249290 0.147859
O20   O     O_2   0.650440 0.528365 0.100292 -0.572689
N5    N     N_2   0.545300 0.683427 0.948656 -0.346103
H23   H     H_    0.500200 0.735714 0.932412 0.286673
C39   C     C_3   0.621528 0.747643 0.950536 -0.494736
H24   H     H_    0.628344 0.846366 0.036117 0.219908
H25   H     H_    0.628376 0.758597 0.845720 0.227569
H26   H     H_    0.668418 0.691436 0.974315 0.247821
N6    N     N_2   0.389138 0.413598 0.080631 -0.359196
H27   H     H_    0.353577 0.484690 0.129482 0.279970
C40   C     C_3   0.357933 0.284857 0.070325 -0.485320
H28   H     H_    0.297635 0.262373 0.013795 0.196776
H29   H     H_    0.356424 0.279334 0.178480 0.249478
H30   H     H_    0.394644 0.209405 0.009688 0.252870

loop_
_geom_bond_atom_site_label_1
_geom_bond_atom_site_label_2
_ccdc_geom_bond_type
Cu1   O1    S    
C6    C33   S    
C32   O14   D    
N5    H23   S    
C31   O13   D    
Cu2   O2    S    
N6    H27   S    
C7    N1    D    
C25   H4    S    
C40   H28   S    
C37   H21   S    
C29   H13   S    
C40   H30   S    
C1    O3    A    
C7    C8    S    
N3    C25   S    
N4    H7    S    
C17   C23   S    
C18   C24   S    
C20   C32   S    
C19   C21   A    
C38   O20   D    
C5    C34   S    
C5    C6    S    
C36   O18   D    
C29   O11   D    
C12   C22   A    
C1    O1    A    
C2    O2    A    
C33   O15   D    
C4    C35   S    
C19   C31   S    
C24   C29   S    
C23   C24   D    
C14   N4    S    
Cu1   O4    S    
C2    O4    A    
C16   H1    S    
C7    C38   S    
N6    C40   S    
C25   H5    S    
C37   O19   D    
C26   H10   S    
N4    C26   S    
C23   C30   S    
C28   O10   D    
C8    C37   S    
C38   H22   S    
C34   O16   D    
N3    H3    S    
C36   H20   S    
Cu1   Cu2   S    
C11   C21   A    
C27   H11   S    
C30   H14   S    
C1    C3    S    
C2    C4    S    
C35   H19   S    
Cu1   O8    S    
C9    C11   S    
Cu2   O3    S    
C26   H8    S    
C9    O7    A    
C39   H26   S    
C35   O17   D    
C10   C12   S    
Cu1   O5    S    
C4    C6    D    
C12   C14   A    
C13   C15   A    
C25   H6    S    
C14   C16   A    
C39   H25   S    
Cu2   O6    S    
Cu1   N2    S    
C15   C17   A    
C28   H12   S    
C20   C22   A    
C34   H18   S    
C3    C5    D    
C40   H29   S    
Cu2   O7    S    
C26   H9    S    
C10   O8    A    
C8    N2    D    
N5    C39   S    
C39   H24   S    
C30   O12   D    
N1    N6    S    
C11   C13   A    
C15   H2    S    
C21   C28   S    
C17   C19   A    
C32   H16   S    
C18   C20   A    
C33   H17   S    
C13   N3    S    
C31   H15   S    
Cu2   N1    S    
C16   C18   A    
C9    O5    A    
C10   O6    A    
C27   O9    D    
N2    N5    S    
C3    C36   S    
C22   C27   S    
