data_mof_unit_42590.cif
_audit_creation_date              2012-12-10T16:46:47-0500
_audit_creation_method            fapswitch 2.2
_symmetry_space_group_name_H-M    P1
_symmetry_Int_Tables_number       1
_space_group_crystal_system       triclinic
_cell_length_a                    15.874085
_cell_length_b                    8.684137
_cell_length_c                    7.505035
_cell_angle_alpha                 103.18468
_cell_angle_beta                  94.829329
_cell_angle_gamma                 92.568625
_cell_volume                      1001.55401529

loop_
_atom_site_label
_atom_site_type_symbol
_atom_type_description
_atom_site_fract_x
_atom_site_fract_y
_atom_site_fract_z
_atom_type_partial_charge
C1    C     C_R   0.497405 0.199815 0.453162 0.867415
C2    C     C_3   0.958673 0.560475 0.700083 0.239870
C3    C     C_3   0.916192 0.495559 0.498072 0.063158
C4    C     C_3   0.949361 0.591374 0.360877 0.372638
C5    C     C_3   0.047492 0.618695 0.391575 -0.542039
C6    C     C_1   0.824032 0.496525 0.496577 0.039536
C7    C     C_1   0.175792 0.500302 0.503365 0.008757
C8    C     C_1   0.251226 0.500356 0.503538 -0.177235
C9    C     C_2   0.496042 0.031607 0.427234 -0.366297
C10   C     C_2   0.503943 0.968399 0.572811 -0.374731
C11   C     C_R   0.340543 0.499916 0.501328 0.808140
C12   C     C_R   0.502607 0.800186 0.546848 0.877570
C13   C     C_R   0.659436 0.499989 0.498655 0.812697
C14   C     C_3   0.056191 0.541685 0.703869 0.353427
C15   C     C_3   0.041243 0.329945 0.401964 -0.088391
C16   C     C_3   0.944671 0.321469 0.433127 -0.174415
C17   C     C_1   0.748668 0.498092 0.496258 -0.187240
C18   C     C_3   0.083673 0.499401 0.502773 0.031665
Cu1   Cu    Cu3+1 0.509300 0.517380 0.684380 0.954858
Cu2   Cu    Cu3+1 0.490700 0.482620 0.315620 0.978733
H1    H     H_    0.932080 0.481959 0.784311 0.031321
H2    H     H_    0.938633 0.507289 0.223672 0.143960
H3    H     H_    0.488434 0.959500 0.287246 0.177669
H4    H     H_    0.511444 0.040536 0.712834 0.177647
H5    H     H_    0.433659 0.377380 0.949009 0.199487
H6    H     H_    0.064273 0.433001 0.755304 0.054075
H7    H     H_    0.046412 0.315948 0.251827 0.189092
H8    H     H_    0.935187 0.256186 0.542631 0.147726
H9    H     H_    0.067810 0.742772 0.457476 0.194052
H10   H     H_    0.073398 0.596986 0.255236 0.177135
N1    N     N_2   0.476670 0.456430 0.038530 -0.154210
N2    N     N_2   0.523330 0.543570 0.961470 -0.048848
O1    O     O_R   0.506050 0.286130 0.619770 -0.589927
O2    O     O_R   0.490330 0.256780 0.308370 -0.592226
O3    O     O_R   0.387300 0.514690 0.655770 -0.584116
O4    O     O_R   0.371580 0.485340 0.344370 -0.577471
O5    O     O_R   0.509670 0.743220 0.691630 -0.597436
O6    O     O_R   0.493950 0.713870 0.380230 -0.551686
O7    O     O_R   0.628420 0.514660 0.655630 -0.589609
O8    O     O_R   0.612700 0.485310 0.344230 -0.550340
O9    O     O_3   0.107513 0.655664 0.842810 -0.574604
C19   C     C_3   0.127847 0.801687 0.799334 -0.236858
H11   H     H_    0.071527 0.860593 0.759687 0.185067
H12   H     H_    0.174013 0.789908 0.695155 0.152729
H13   H     H_    0.159688 0.882902 0.925283 0.168933
O10   O     O_3   0.940718 0.719952 0.766938 -0.608277
C20   C     C_3   0.923535 0.749608 0.951821 -0.246192
H14   H     H_    0.912372 0.876833 0.998458 0.175207
H15   H     H_    0.978605 0.724293 0.039580 0.221627
H16   H     H_    0.865052 0.680114 0.966929 0.185530
N3    N     N_3   0.582716 0.649912 0.077645 -0.390125
H17   H     H_    0.641988 0.622444 0.033030 0.218660
H18   H     H_    0.571357 0.762039 0.055878 0.205351
N4    N     N_3   0.082623 0.195821 0.453099 -0.610511
H19   H     H_    0.089045 0.207453 0.594992 0.207941
H20   H     H_    0.143043 0.189330 0.407305 0.227492
N5    N     N_3   0.894709 0.234523 0.263406 -0.606723
H21   H     H_    0.834161 0.204390 0.295142 0.222022
H22   H     H_    0.921678 0.126857 0.216712 0.239105
O11   O     O_3   0.902931 0.719968 0.325882 -0.624945
C21   C     C_3   0.902285 0.852184 0.473815 -0.195753
H23   H     H_    0.965180 0.889733 0.549644 0.178862
H24   H     H_    0.852977 0.832382 0.563818 0.208947
H25   H     H_    0.882553 0.953397 0.417026 0.142101

loop_
_geom_bond_atom_site_label_1
_geom_bond_atom_site_label_2
_ccdc_geom_bond_type
H5    N1    S    
C21   H25   S    
N2    N3    S    
C16   H8    S    
N3    H17   S    
C15   C18   S    
Cu2   O6    S    
O9    C19   S    
C14   C18   S    
C15   H7    S    
C20   H14   S    
C13   C17   S    
C7    C18   S    
Cu2   O2    S    
C4    O11   S    
C2    H1    S    
C11   O3    A    
C2    C3    S    
C3    C4    S    
C1    O1    A    
C7    C8    T    
C20   H15   S    
Cu1   O3    S    
C2    O10   S    
N5    H21   S    
C19   H12   S    
O11   C21   S    
C14   O9    S    
C2    C14   S    
Cu1   N2    S    
C10   C12   S    
C11   O4    A    
C1    O2    A    
C20   H16   S    
C5    H9    S    
C16   N5    S    
C8    C11   S    
C12   O6    A    
C21   H23   S    
Cu2   O8    S    
N4    H20   S    
N5    H22   S    
C13   O7    A    
C19   H11   S    
C3    C16   S    
C15   C16   S    
Cu2   O4    S    
C15   N4    S    
C4    H2    S    
Cu1   O7    S    
C5    H10   S    
C9    C10   D    
C3    C6    S    
C12   O5    A    
C21   H24   S    
C6    C17   T    
N4    H19   S    
C9    H3    S    
C13   O8    A    
C5    C18   S    
Cu1   O5    S    
C10   H4    S    
O10   C20   S    
Cu2   N1    S    
N1    N2    D    
C14   H6    S    
C1    C9    S    
Cu1   Cu2   S    
Cu1   O1    S    
C4    C5    S    
N3    H18   S    
C19   H13   S    
