data_mof_unit_5468.cif
_audit_creation_date              2012-12-11T18:34:22-0500
_audit_creation_method            fapswitch 2.2
_symmetry_space_group_name_H-M    P1
_symmetry_Int_Tables_number       1
_space_group_crystal_system       triclinic
_cell_length_a                    8.213458
_cell_length_b                    14.32106
_cell_length_c                    22.837457
_cell_angle_alpha                 93.663065
_cell_angle_beta                  89.437872
_cell_angle_gamma                 91.582728
_cell_volume                      2679.66764907

loop_
_atom_site_label
_atom_site_type_symbol
_atom_type_description
_atom_site_fract_x
_atom_site_fract_y
_atom_site_fract_z
_atom_type_partial_charge
Ba1   Ba    Ba6+2 0.846250 0.544220 0.470860 1.657822
Ba2   Ba    Ba6+2 0.343570 0.455860 0.529140 1.648586
C1    C     C_3   0.618995 0.888058 0.310260 -0.370152
C2    C     C_R   0.088028 0.584537 0.938212 -0.079285
C3    C     C_R   0.041442 0.581333 0.878471 0.602366
C4    C     C_3   0.085678 0.747766 0.303855 0.267154
C5    C     C_R   0.951019 0.421154 0.882922 0.572933
C6    C     C_R   0.998723 0.421838 0.942438 -0.007434
C7    C     C_R   0.067145 0.504247 0.970284 -0.056957
C8    C     C_R   0.153710 0.666779 0.966680 -0.132039
C9    C     C_R   0.200645 0.669822 0.025763 0.414379
C10   C     C_R   0.179359 0.589419 0.058719 -0.084278
C11   C     C_R   0.113524 0.506453 0.030490 -0.107204
C12   C     C_3   0.608121 0.790971 0.333504 0.362376
C13   C     C_R   0.979311 0.341809 0.974808 -0.078671
C14   C     C_R   0.026712 0.343443 0.033515 -0.074173
C15   C     C_R   0.093732 0.425438 0.062196 -0.007663
C16   C     C_3   0.053129 0.774898 0.241373 0.318872
C17   C     C_R   0.141944 0.427677 0.121709 0.587924
C18   C     C_R   0.222468 0.589706 0.118934 0.589893
C19   C     C_2   0.770800 0.473685 0.773182 -0.072556
C20   C     C_3   0.719429 0.481756 0.710040 -0.056667
C21   C     C_1   0.998906 0.523159 0.686227 -0.020029
C22   C     C_2   0.043946 0.526764 0.742374 -0.136878
C23   C     C_3   0.515311 0.319322 0.354949 0.296199
C24   C     C_2   0.925450 0.498622 0.789538 0.219280
C25   C     C_R   0.403432 0.551985 0.230079 -0.092065
C26   C     C_R   0.445244 0.559788 0.289591 -0.013152
C27   C     C_R   0.193123 0.480546 0.315105 0.032522
C28   C     C_3   0.193000 0.742261 0.682256 0.694934
C29   C     C_R   0.147398 0.474746 0.255431 -0.099906
C30   C     C_R   0.251277 0.511866 0.211950 0.191544
C31   C     C_2   0.864518 0.477721 0.669166 -0.254075
C32   C     C_R   0.696022 0.934941 0.530127 -0.040615
C33   C     C_R   0.511158 0.800969 0.497429 0.045644
C34   C     C_3   0.499276 0.292554 0.289696 -0.371395
C35   C     C_R   0.368382 0.769713 0.469075 -0.272564
C36   C     C_R   0.267588 0.832246 0.443831 0.020362
C37   C     C_R   0.313793 0.926486 0.443163 -0.159377
C38   C     C_R   0.459070 0.959503 0.470205 -0.012767
C39   C     C_R   0.557319 0.897650 0.499457 -0.037208
C40   C     C_3   0.055176 0.777984 0.722474 -0.374264
C41   C     C_R   0.642551 0.091064 0.499558 -0.019664
C42   C     C_R   0.740800 0.030290 0.529572 0.000393
C43   C     C_R   0.686324 0.187170 0.500656 0.025733
C44   C     C_R   0.823538 0.221386 0.531281 -0.281373
C45   C     C_3   0.101317 0.252424 0.696938 0.295540
C46   C     C_R   0.926789 0.161220 0.557329 0.017192
C47   C     C_R   0.884785 0.065604 0.557468 -0.139604
C48   C     C_R   0.503529 0.054361 0.469685 -0.044688
C49   C     C_3   0.022839 0.256466 0.410575 0.311263
C50   C     C_3   0.025008 0.150748 0.398263 -0.388666
C51   C     C_3   0.679535 0.675713 0.645039 0.322315
C52   C     C_3   0.653584 0.702026 0.710187 -0.362785
C53   C     C_3   0.166325 0.926465 0.243237 0.300106
C54   C     C_3   0.263136 0.991138 0.204700 -0.324591
C55   C     C_3   0.423886 0.766426 0.037246 0.317544
C56   C     C_3   0.146920 0.231447 0.758960 -0.330343
C57   C     C_3   0.494855 0.849373 0.074421 -0.271683
C58   C     C_3   0.255817 0.874954 0.629452 0.327970
C59   C     C_3   0.358484 0.964855 0.633407 -0.354642
C60   C     C_3   0.610632 0.221704 0.670902 0.349022
C61   C     C_3   0.650918 0.131813 0.698971 -0.377459
C62   C     C_R   0.338882 0.525861 0.331533 -0.305578
H1    H     H_    0.676931 0.792914 0.375243 0.081275
H2    H     H_    0.811568 0.671961 0.635753 -0.000312
H3    H     H_    0.617912 0.606967 0.633866 0.036195
H4    H     H_    0.748462 0.910186 0.304471 0.128173
H5    H     H_    0.681463 0.777655 0.720125 0.145016
H6    H     H_    0.732821 0.661615 0.737397 0.051673
H7    H     H_    0.525947 0.686846 0.722974 0.117941
H8    H     H_    0.477829 0.773464 0.342056 -0.056234
H9    H     H_    0.559784 0.939156 0.341673 0.069848
H10   H     H_    0.393656 0.338305 0.372616 0.020377
H11   H     H_    0.600890 0.380588 0.360660 0.059761
H12   H     H_    0.992293 0.718311 0.742184 0.086031
H13   H     H_    0.411498 0.232556 0.282710 0.130396
H14   H     H_    0.454733 0.352500 0.266560 0.071103
H15   H     H_    0.619608 0.272666 0.270907 0.128649
H16   H     H_    0.556411 0.887460 0.267414 0.130039
H17   H     H_    0.153334 0.322426 0.688316 0.097223
H18   H     H_    0.966813 0.253739 0.693937 -0.023872
H19   H     H_    0.280242 0.221912 0.761747 0.149599
H20   H     H_    0.113500 0.290736 0.789847 0.127685
H21   H     H_    0.081924 0.166700 0.771690 0.115999
H22   H     H_    0.719849 0.245223 0.646305 -0.049169
H23   H     H_    0.105376 0.825154 0.758774 0.131827
H24   H     H_    0.507668 0.206855 0.640138 0.088936
H25   H     H_    0.685186 0.077570 0.664543 0.065992
H26   H     H_    0.543679 0.106052 0.723782 0.128464
H27   H     H_    0.017114 0.681362 0.310555 0.051970
H28   H     H_    0.754391 0.144585 0.729626 0.133517
H29   H     H_    0.009758 0.280022 0.056539 0.119258
H30   H     H_    0.927603 0.277232 0.954754 0.120713
H31   H     H_    0.489043 0.577496 0.198086 0.107119
H32   H     H_    0.168453 0.729965 0.943262 0.131980
H33   H     H_    0.167811 0.547445 0.754317 0.109858
H34   H     H_    0.965502 0.816395 0.697919 0.081924
H35   H     H_    0.679759 0.456601 0.805871 0.102334
H36   H     H_    0.031782 0.441560 0.243087 0.128244
H37   H     H_    0.373484 0.530758 0.377235 0.083415
H38   H     H_    0.217856 0.736282 0.308878 -0.025715
H39   H     H_    0.865892 0.428827 0.630792 0.061650
H40   H     H_    0.331014 0.696690 0.469334 0.083244
H41   H     H_    0.235009 0.974031 0.422604 0.070259
H42   H     H_    0.964817 0.019117 0.578356 0.060775
H43   H     H_    0.856000 0.295186 0.531628 0.060233
H44   H     H_    0.770586 0.891180 0.555006 0.100819
H45   H     H_    0.898888 0.277344 0.423361 -0.002465
H46   H     H_    0.426708 0.099013 0.446195 0.095664
H47   H     H_    0.047194 0.709570 0.212620 0.065592
H48   H     H_    0.931006 0.805848 0.237997 0.046113
H49   H     H_    0.258285 0.691028 0.707092 -0.003244
H50   H     H_    0.218281 0.933685 0.288132 0.056221
H51   H     H_    0.038166 0.950192 0.244887 0.027956
H52   H     H_    0.211856 0.986770 0.159755 0.140319
H53   H     H_    0.256864 0.064483 0.223411 0.073059
H54   H     H_    0.392593 0.970968 0.202103 0.112377
H55   H     H_    0.437744 0.781166 0.990158 0.012170
H56   H     H_    0.108358 0.276302 0.446785 0.073537
H57   H     H_    0.495042 0.703635 0.046092 0.028670
H58   H     H_    0.484886 0.835733 0.121687 0.163546
H59   H     H_    0.625297 0.860561 0.062902 0.053423
H60   H     H_    0.427953 0.913639 0.066434 0.113692
H61   H     H_    0.126055 0.894059 0.634935 0.015010
H62   H     H_    0.273183 0.839895 0.585173 0.046093
H63   H     H_    0.329849 0.007783 0.596307 0.108286
H64   H     H_    0.331796 0.005365 0.675295 0.137143
H65   H     H_    0.489715 0.948422 0.631522 0.127016
H66   H     H_    0.933105 0.128361 0.364495 0.126376
H67   H     H_    0.996794 0.114584 0.438729 0.069290
H68   H     H_    0.147570 0.129793 0.382153 0.110163
N1    N     N_R   0.974229 0.500098 0.851157 -0.423806
N2    N     N_R   0.203564 0.509609 0.150053 -0.431818
O1    O     O_2   0.901900 0.448470 0.362340 -0.457825
O2    O     O_2   0.263376 0.167303 0.549618 -0.491507
O3    O     O_3   0.164438 0.183025 0.657598 -0.608346
O4    O     O_3   0.142240 0.449440 0.433360 -0.494172
O5    O     O_3   0.549340 0.612930 0.525560 -0.477804
O6    O     O_2   0.396530 0.270940 0.479440 -0.462852
O7    O     O_3   0.574299 0.242816 0.382823 -0.647173
O8    O     O_2   0.386553 0.432880 0.706376 -0.499634
O9    O     O_3   0.566915 0.289256 0.715071 -0.592458
O10   O     O_2   0.058599 0.651522 0.851061 -0.616162
O11   O     O_2   0.889302 0.349952 0.859374 -0.605181
O12   O     O_3   0.614324 0.745820 0.613560 -0.614605
O13   O     O_2   0.131325 0.355997 0.147945 -0.601167
O14   O     O_2   0.276424 0.661771 0.143801 -0.543229
O15   O     O_3   0.645560 0.619080 0.391970 -0.490862
O16   O     O_2   0.784951 0.556264 0.291446 -0.501249
O17   O     O_3   0.067952 0.298883 0.359320 -0.630500
O18   O     O_3   0.675749 0.726178 0.291924 -0.607117
O19   O     O_2   0.793170 0.729090 0.520590 -0.460335
O20   O     O_3   0.052800 0.667320 0.419180 -0.478609
O21   O     O_2   0.932041 0.833565 0.452038 -0.483553
O22   O     O_3   0.179628 0.833024 0.219926 -0.603570
O23   O     O_3   0.031288 0.818914 0.343826 -0.635027
O24   O     O_3   0.257715 0.753955 0.052020 -0.593750
O25   O     O_3   0.307434 0.816067 0.672815 -0.643416
O26   O     O_2   0.287790 0.551560 0.637690 -0.474388
O27   O     O_3   0.047460 0.550640 0.566640 -0.450710
O28   O     O_3   0.544140 0.380990 0.608030 -0.476474
O29   O     O_3   0.131188 0.701925 0.628344 -0.649598
O30   O     O_3   0.640350 0.387150 0.474440 -0.474571
O31   O     O_3   0.136890 0.332750 0.580830 -0.486466
P1    P     P_3+3 0.074990 0.420800 0.372080 0.993092
P2    P     P_3+3 0.618830 0.715330 0.538180 1.009614
P3    P     P_3+3 0.070921 0.788584 0.415102 0.953101
P4    P     P_3+3 0.114710 0.579280 0.627920 0.987163
P5    P     P_3+3 0.121817 0.210761 0.585968 0.928689
P6    P     P_3+3 0.639020 0.613479 0.315340 0.945716
P7    P     P_3+3 0.578451 0.270498 0.458541 0.937586
P8    P     P_3+3 0.554217 0.397943 0.684577 0.965339

loop_
_geom_bond_atom_site_label_1
_geom_bond_atom_site_label_2
_ccdc_geom_bond_type
C42   C47   A    
C53   C54   S    
C43   P7    S    
C54   H53   S    
C25   H31   S    
C1    H4    S    
C58   O25   S    
C60   O9    S    
O12   P2    S    
C20   P8    S    
C55   O24   S    
C5    C6    A    
O28   P8    S    
C43   C44   A    
C17   N2    Am   
C36   P3    S    
C60   H22   S    
C14   H29   S    
C35   C36   A    
C51   H3    S    
C10   C18   A    
Ba2   O5    S    
C58   H61   S    
C33   C35   A    
C16   H48   S    
C5    N1    Am   
C34   H13   S    
C40   H34   S    
C36   C37   A    
C19   H35   S    
C55   C57   S    
Ba1   P2    S    
C13   C14   A    
C48   H46   S    
Ba2   O27   S    
C23   H10   S    
C45   H18   S    
C7    C11   A    
C1    H9    S    
O1    P1    D    
C52   H7    S    
C29   C30   A    
Ba1   O30   S    
C14   C15   A    
C21   C31   D    
C21   P4    S    
C61   H28   S    
C33   P2    S    
O26   P4    D    
C18   O14   D    
Ba1   O15   S    
Ba1   O5    S    
C59   H65   S    
C55   H55   S    
O27   P4    S    
C57   H58   S    
C45   H17   S    
C27   C62   A    
C49   O17   S    
C49   H45   S    
O15   P6    S    
C19   C20   S    
O19   P2    D    
O20   P3    S    
C62   H37   S    
C32   C39   A    
C54   H54   S    
C28   O29   S    
C13   H30   S    
O29   P4    S    
C1    H16   S    
O23   P3    S    
C19   C24   D    
O8    P8    D    
C57   H59   S    
C28   O25   S    
C4    C16   S    
C44   C46   A    
C49   C50   S    
Ba2   O4    S    
C32   C42   A    
C16   H47   S    
Ba2   O30   S    
C37   C38   A    
O18   P6    S    
C6    C7    A    
C3    O10   D    
Ba2   P4    S    
C51   C52   S    
C60   H24   S    
O7    P7    S    
C17   O13   D    
C22   H33   S    
C58   C59   S    
C23   H11   S    
C50   H68   S    
C27   P1    S    
Ba1   O19   S    
C41   C42   A    
C60   C61   S    
C56   H20   S    
C26   P6    S    
O16   P6    D    
C52   H6    S    
C8    H32   S    
O21   P3    D    
C21   C22   D    
C44   H43   S    
C45   O3    S    
C49   H56   S    
C54   H52   S    
C59   H63   S    
C29   H36   S    
O5    P2    S    
C51   H2    S    
C41   C43   A    
Ba2   O31   S    
O3    P5    S    
C1    C12   S    
C3    N1    Am   
C46   P5    S    
C26   C62   A    
Ba2   O26   S    
C46   C47   A    
O2    P5    D    
C6    C13   A    
Ba1   O27   S    
O30   P7    S    
O9    P8    S    
C2    C8    A    
C56   H21   S    
C4    O23   S    
C16   O22   S    
C57   H60   S    
C37   H41   S    
C20   C31   S    
C38   C39   A    
C53   O22   S    
C25   C30   A    
C31   H39   S    
C50   H67   S    
C12   H8    S    
C23   O7    S    
C22   C24   S    
C2    C3    A    
C34   H15   S    
C35   H40   S    
C9    C10   A    
C41   C48   A    
C47   H42   S    
C53   H50   S    
O17   P1    S    
C40   H12   S    
C11   C15   A    
O4    P1    S    
Ba2   O6    S    
C58   H62   S    
C32   H44   S    
C27   C29   A    
C24   N1    S    
C34   H14   S    
C56   H19   S    
C45   C56   S    
C30   N2    S    
C50   H66   S    
C52   H5    S    
C53   H51   S    
Ba1   P1    S    
C38   C48   A    
Ba1   Ba2   S    
C61   H26   S    
C51   O12   S    
C15   C17   A    
C12   H1    S    
C59   H64   S    
C61   H25   S    
C4    H38   S    
Ba1   O20   S    
C33   C39   A    
C8    C9    A    
C23   C34   S    
C55   H57   S    
C10   C11   A    
O6    P7    D    
C12   O18   S    
C25   C26   A    
C28   C40   S    
C40   H23   S    
C18   N2    Am   
C2    C7    A    
Ba1   O1    S    
O31   P5    S    
Ba1   O4    S    
C4    H27   S    
C9    O24   S    
Ba2   O28   S    
C5    O11   D    
C28   H49   S    
