data_mof_unit_15050.cif
_audit_creation_date              2012-10-26T18:29:34-0400
_audit_creation_method            fapswitch 2.2
_symmetry_space_group_name_H-M    P1
_symmetry_Int_Tables_number       1
_space_group_crystal_system       triclinic
_cell_length_a                    11.657916
_cell_length_b                    12.928114
_cell_length_c                    11.834232
_cell_angle_alpha                 98.0575
_cell_angle_beta                  92.096785
_cell_angle_gamma                 92.430293
_cell_volume                      1762.76697825

loop_
_atom_site_label
_atom_site_type_symbol
_atom_type_description
_atom_site_fract_x
_atom_site_fract_y
_atom_site_fract_z
_atom_type_partial_charge
C1    C     C_R   0.505999 0.300660 0.479959 0.536136
C2    C     C_R   0.446502 0.477006 0.971574 -0.020041
C3    C     C_R   0.284421 0.499291 0.501293 0.532791
C4    C     C_R   0.715573 0.500544 0.498697 0.532006
C5    C     C_1   0.162670 0.498878 0.503308 -0.034650
C6    C     C_1   0.837318 0.500850 0.496636 -0.036603
C7    C     C_1   0.059961 0.499278 0.501635 -0.044386
C8    C     C_1   0.940022 0.500388 0.498264 -0.045225
C9    C     C_R   0.478833 0.810932 0.529220 0.008957
C10   C     C_R   0.521672 0.189050 0.471167 0.006671
C11   C     C_R   0.630509 0.034078 0.421612 0.011263
C12   C     C_R   0.494303 0.699344 0.520082 0.536480
C13   C     C_R   0.369924 0.965795 0.578695 0.010896
C14   C     C_R   0.618435 0.142160 0.420636 -0.001736
C15   C     C_R   0.381627 0.857604 0.578960 -0.003022
C16   C     C_R   0.440734 0.130684 0.521907 -0.147078
C17   C     C_R   0.560636 0.869556 0.479975 -0.140872
C18   C     C_R   0.452497 0.024348 0.525767 0.007617
C19   C     C_R   0.548458 0.975743 0.475397 0.008891
C20   C     C_3   0.287153 0.792780 0.626099 -0.274681
C21   C     C_3   0.185332 0.768929 0.540142 -0.421558
C22   C     C_3   0.712213 0.206672 0.372059 -0.276625
C23   C     C_R   0.364935 0.427867 0.037030 -0.060002
C24   C     C_3   0.815044 0.230731 0.456756 -0.422923
C25   C     C_1   0.727276 0.983509 0.367219 0.180123
C26   C     C_1   0.272373 0.015937 0.631975 0.169446
C27   C     C_3   0.410791 0.344712 0.795729 -0.212757
C28   C     C_3   0.295115 0.339904 0.728755 -0.360216
C29   C     C_3   0.678242 0.566470 0.193436 -0.212697
C30   C     C_3   0.693574 0.672127 0.270860 -0.357027
C31   C     C_1   0.253633 0.385403 0.990862 0.163988
C32   C     C_1   0.646729 0.714648 0.021221 0.161770
C33   C     C_R   0.589774 0.617533 0.968476 -0.060188
C34   C     C_R   0.383737 0.431412 0.155095 0.039260
C35   C     C_R   0.582525 0.602008 0.848799 0.037614
C36   C     C_R   0.554915 0.537282 0.149307 0.153213
C37   C     C_R   0.453552 0.454411 0.849731 0.152711
C38   C     C_R   0.530057 0.546694 0.031392 -0.018334
Cu1   Cu    Cu3+1 0.508350 0.507730 0.615930 0.923048
Cu2   Cu    Cu3+1 0.491650 0.492270 0.384070 0.923527
H1    H     H_    0.634437 0.830780 0.444966 0.110345
H2    H     H_    0.788515 0.277620 0.536660 0.163236
H3    H     H_    0.851892 0.157703 0.477902 0.177026
H4    H     H_    0.882862 0.275978 0.418626 0.149720
H5    H     H_    0.740514 0.164233 0.290389 0.163109
H6    H     H_    0.681929 0.281507 0.350116 0.177364
H7    H     H_    0.246494 0.410919 0.754081 0.176822
H8    H     H_    0.306095 0.329851 0.635763 0.164398
H9    H     H_    0.241998 0.270796 0.745392 0.165586
H10   H     H_    0.478428 0.302525 0.749091 0.169580
H11   H     H_    0.400931 0.293162 0.862562 0.114027
H12   H     H_    0.367921 0.169707 0.558753 0.113396
H13   H     H_    0.774638 0.713220 0.251740 0.159764
H14   H     H_    0.701509 0.663500 0.362133 0.164886
H15   H     H_    0.621133 0.722712 0.257333 0.176300
H16   H     H_    0.717831 0.501412 0.228749 0.164624
H17   H     H_    0.734919 0.570130 0.120621 0.112441
H18   H     H_    0.627218 0.656280 0.801792 0.146283
H19   H     H_    0.321321 0.394208 0.203801 0.146420
H20   H     H_    0.149118 0.842041 0.518475 0.177503
H21   H     H_    0.212728 0.721947 0.460665 0.163360
H22   H     H_    0.116751 0.723859 0.577414 0.150006
H23   H     H_    0.317167 0.717881 0.648126 0.180871
H24   H     H_    0.257840 0.834881 0.707504 0.161658
N1    N     N_R   0.520920 0.519350 0.790130 -0.232797
N2    N     N_R   0.479080 0.480650 0.209870 -0.233794
N3    N     N_1   0.804400 0.943339 0.323902 -0.297372
N4    N     N_1   0.194507 0.055599 0.674377 -0.312230
N5    N     N_1   0.163669 0.351656 0.955954 -0.298274
N6    N     N_1   0.692119 0.793308 0.061325 -0.283311
O1    O     O_R   0.505930 0.354460 0.582000 -0.515841
O2    O     O_R   0.494070 0.645540 0.418000 -0.495165
O3    O     O_R   0.491820 0.341410 0.386200 -0.501629
O4    O     O_R   0.508180 0.658590 0.613800 -0.513861
O5    O     O_R   0.344250 0.506540 0.597900 -0.505962
O6    O     O_R   0.655750 0.493460 0.402100 -0.523467
O7    O     O_R   0.330140 0.493480 0.402100 -0.496749
O8    O     O_R   0.669860 0.506520 0.597900 -0.484061

loop_
_geom_bond_atom_site_label_1
_geom_bond_atom_site_label_2
_ccdc_geom_bond_type
C28   H7    S    
C12   O4    A    
C24   H2    S    
C25   N3    T    
C34   N2    A    
C7    C8    S    
C30   H14   S    
C29   C36   S    
C11   C19   A    
C1    O1    A    
C13   C18   A    
C35   H18   S    
C11   C14   A    
C36   N2    A    
C11   C25   S    
Cu2   O3    S    
C18   C19   A    
Cu1   O4    S    
C17   C19   A    
C37   N1    A    
Cu1   O5    S    
C3    O5    A    
C21   H21   S    
C27   H10   S    
C12   O2    A    
Cu2   N2    S    
Cu1   N1    S    
C27   H11   S    
C15   C20   S    
C30   H13   S    
Cu1   O8    S    
C21   H20   S    
C4    C6    S    
C10   C14   A    
Cu1   Cu2   S    
C5    C7    T    
C35   N1    A    
C6    C8    T    
Cu2   O6    S    
C23   C31   S    
C20   H24   S    
C4    O8    A    
C29   C30   S    
C28   H9    S    
C2    C38   A    
C23   C34   A    
C21   H22   S    
C9    C17   A    
C22   H6    S    
C29   H17   S    
C13   C15   A    
C34   H19   S    
C24   H4    S    
C22   C24   S    
C13   C26   S    
C3    O7    A    
C27   C28   S    
C28   H8    S    
Cu2   O2    S    
C1    C10   S    
C16   H12   S    
C3    C5    S    
C32   N6    T    
C29   H16   S    
C30   H15   S    
C33   C38   A    
C1    O3    A    
C32   C33   S    
C14   C22   S    
C20   H23   S    
C36   C38   A    
C9    C15   A    
C26   N4    T    
C10   C16   A    
C2    C37   A    
C27   C37   S    
C33   C35   A    
C9    C12   S    
C17   H1    S    
C4    O6    A    
C31   N5    T    
C22   H5    S    
C20   C21   S    
C16   C18   A    
C2    C23   A    
C24   H3    S    
Cu1   O1    S    
Cu2   O7    S    
