data_mof_unit_20790.cif
_audit_creation_date              2012-12-10T17:33:46-0500
_audit_creation_method            fapswitch 2.2
_symmetry_space_group_name_H-M    P1
_symmetry_Int_Tables_number       1
_space_group_crystal_system       triclinic
_cell_length_a                    11.67022
_cell_length_b                    12.436249
_cell_length_c                    13.112768
_cell_angle_alpha                 116.720064
_cell_angle_beta                  76.247733
_cell_angle_gamma                 100.587421
_cell_volume                      1644.65966638

loop_
_atom_site_label
_atom_site_type_symbol
_atom_type_description
_atom_site_fract_x
_atom_site_fract_y
_atom_site_fract_z
_atom_type_partial_charge
C1    C     C_R   0.509528 0.855368 0.286286 0.786960
C2    C     C_R   0.458014 0.229814 0.837615 -0.050137
C3    C     C_R   0.582708 0.812177 0.079493 -0.185419
C4    C     C_R   0.604637 0.732383 0.962622 0.213537
C5    C     C_R   0.564171 0.609985 0.928249 -0.209011
C6    C     C_R   0.496402 0.566698 0.009557 0.041833
C7    C     C_R   0.461793 0.652098 0.125086 0.015932
C8    C     C_R   0.459754 0.441807 0.979353 0.055574
C9    C     C_R   0.379726 0.405857 0.061328 0.107962
C10   C     C_R   0.335498 0.494244 0.171201 0.105299
C11   C     C_R   0.374224 0.615057 0.200350 -0.158819
C12   C     C_R   0.715485 0.999939 0.500227 0.837815
C13   C     C_R   0.501295 0.351145 0.869985 -0.229203
C14   C     C_R   0.379996 0.196034 0.919107 -0.197694
C15   C     C_R   0.514286 0.773120 0.161994 -0.152942
C16   C     C_R   0.660769 0.318201 0.297179 -0.292634
C17   C     C_R   0.342291 0.757898 0.650639 0.295738
C18   C     C_R   0.288943 0.653049 0.661930 0.143067
C19   C     C_R   0.336434 0.542829 0.591366 0.069936
C20   C     C_R   0.445838 0.539669 0.515225 -0.128780
C21   C     C_R   0.488581 0.644800 0.491864 0.199650
C22   C     C_R   0.512243 0.434599 0.458451 -0.013971
C23   C     C_R   0.482330 0.145151 0.714204 0.777922
C24   C     C_R   0.597353 0.420609 0.358457 0.142507
C25   C     C_R   0.625865 0.512401 0.323988 -0.311832
C26   C     C_R   0.585662 0.626095 0.394433 0.203541
C27   C     C_R   0.502700 0.344681 0.499264 0.011667
C28   C     C_R   0.643459 0.231226 0.338669 0.085623
C29   C     C_R   0.284440 0.000537 0.500438 0.801461
C30   C     C_1   0.837227 0.999656 0.500385 -0.192111
C31   C     C_1   0.939929 0.999918 0.500376 0.001433
C32   C     C_1   0.059992 0.000516 0.500326 0.005976
C33   C     C_1   0.162703 0.000839 0.500326 -0.176688
C34   C     C_R   0.342820 0.282539 0.030312 -0.189609
Cu1   Cu    Cu3+1 0.526510 0.098270 0.475420 0.937288
Cu2   Cu    Cu3+1 0.473490 0.901730 0.524580 0.942799
H1    H     H_    0.447033 0.352176 0.579855 0.129173
H2    H     H_    0.281591 0.252007 0.090055 0.137653
N1    N     N_R   0.566700 0.246290 0.438210 -0.182696
N2    N     N_R   0.434010 0.754320 0.561170 -0.227816
O1    O     O_R   0.533340 0.972510 0.318140 -0.585781
O2    O     O_R   0.488570 0.806530 0.359650 -0.557410
O3    O     O_R   0.685190 0.083000 0.479260 -0.573739
O4    O     O_R   0.640410 0.917020 0.520770 -0.539198
O5    O     O_R   0.511430 0.193470 0.640350 -0.584614
O6    O     O_R   0.466660 0.027490 0.681860 -0.600625
O7    O     O_R   0.359590 0.082980 0.479230 -0.570917
O8    O     O_R   0.314810 0.917000 0.520740 -0.588918
H3    H     H_    0.342988 0.104118 0.896363 0.147582
H4    H     H_    0.694626 0.501520 0.248644 0.148560
H5    H     H_    0.724940 0.306630 0.218941 0.139116
N3    N     N_3   0.300572 0.868715 0.739682 -0.565280
H6    H     H_    0.368466 0.914216 0.786945 0.218172
H7    H     H_    0.273727 0.919053 0.705609 0.259305
N4    N     N_3   0.262965 0.435470 0.588549 -0.602760
H8    H     H_    0.280394 0.361718 0.508119 0.238275
H9    H     H_    0.272966 0.417426 0.656297 0.212240
N5    N     N_3   0.184309 0.660434 0.747763 -0.554155
H10   H     H_    0.115097 0.605098 0.705983 0.247467
H11   H     H_    0.200322 0.627570 0.803332 0.221425
N6    N     N_3   0.657591 0.718698 0.368127 -0.500853
H12   H     H_    0.742744 0.722278 0.383117 0.200162
H13   H     H_    0.665803 0.695954 0.279636 0.203007
N7    N     N_3   0.250948 0.464485 0.255856 -0.591556
H14   H     H_    0.175182 0.419019 0.220417 0.217645
H15   H     H_    0.287990 0.407779 0.276314 0.226793
H16   H     H_    0.566910 0.372442 0.807059 0.148907
H17   H     H_    0.621496 0.904742 0.105887 0.158683
H18   H     H_    0.583824 0.551818 0.837010 0.122207
N8    N     N_3   0.672502 0.776497 0.880238 -0.587217
H19   H     H_    0.622263 0.836172 0.877224 0.214344
H20   H     H_    0.685272 0.705942 0.796972 0.215349
H21   H     H_    0.331686 0.679809 0.282477 0.188273
H22   H     H_    0.690044 0.150450 0.290874 0.124526

loop_
_geom_bond_atom_site_label_1
_geom_bond_atom_site_label_2
_ccdc_geom_bond_type
C16   C28   A    
C21   C26   A    
C8    C13   A    
C23   O5    A    
Cu2   O2    S    
Cu1   Cu2   S    
C16   H5    S    
N4    H8    S    
C28   H22   S    
C4    N8    S    
C7    C11   A    
C29   O7    A    
C26   N6    S    
C12   O3    A    
C5    C6    A    
C14   H3    S    
N5    H11   S    
C29   C33   S    
C18   C19   A    
N6    H13   S    
C2    C13   A    
C25   H4    S    
C5    H18   S    
C18   N5    S    
C19   C20   A    
C27   N1    A    
C8    C9    A    
Cu2   O6    S    
N8    H19   S    
C1    C15   S    
Cu1   O3    S    
C9    C10   A    
C7    C15   A    
Cu1   O7    S    
C16   C24   A    
C23   O6    A    
Cu1   O1    S    
C17   N3    S    
N3    H7    S    
C29   O8    A    
Cu2   N2    S    
C24   C25   A    
C11   H21   S    
C6    C8    A    
C28   N1    A    
N5    H10   S    
C17   N2    A    
N7    H15   S    
Cu1   N1    S    
C31   C32   S    
C17   C18   A    
C3    H17   S    
C1    O1    A    
C20   C22   A    
C22   C27   A    
N4    H9    S    
C9    C34   A    
C22   C24   A    
Cu2   O4    S    
C3    C4    A    
Cu1   O5    S    
C3    C15   A    
N3    H6    S    
C13   H16   S    
C19   N4    S    
C12   C30   S    
C34   H2    S    
C10   N7    S    
C4    C5    A    
C14   C34   A    
C6    C7    A    
N7    H14   S    
C25   C26   A    
C12   O4    A    
C32   C33   T    
C30   C31   T    
C21   N2    A    
C27   H1    S    
Cu2   O8    S    
N6    H12   S    
C2    C14   A    
C10   C11   A    
C1    O2    A    
C20   C21   A    
C2    C23   S    
N8    H20   S    
