data_mof_unit_32412.cif
_audit_creation_date              2012-10-26T17:12:43-0400
_audit_creation_method            fapswitch 2.2
_symmetry_space_group_name_H-M    P1
_symmetry_Int_Tables_number       1
_space_group_crystal_system       triclinic
_cell_length_a                    27.733585
_cell_length_b                    18.651275
_cell_length_c                    16.842149
_cell_angle_alpha                 89.965886
_cell_angle_beta                  62.532327
_cell_angle_gamma                 89.980745
_cell_volume                      7729.80179779

loop_
_atom_site_label
_atom_site_type_symbol
_atom_type_description
_atom_site_fract_x
_atom_site_fract_y
_atom_site_fract_z
_atom_type_partial_charge
Br1   Br    Br    0.553900 0.713227 0.516547 -0.354666
Br2   Br    Br    0.432148 0.186718 0.338280 -0.373283
Br3   Br    Br    0.432411 0.812756 0.339597 -0.346881
Br4   Br    Br    0.568134 0.187146 0.662751 -0.371972
Br5   Br    Br    0.068012 0.313142 0.662737 -0.350042
Br6   Br    Br    0.932009 0.686983 0.337765 -0.372113
Br7   Br    Br    0.932070 0.313163 0.337632 -0.349900
Br8   Br    Br    0.067995 0.686926 0.662259 -0.373732
Br9   Br    Br    0.029039 0.797232 0.117035 -0.420833
Br10  Br    Br    0.951411 0.200068 0.882179 -0.319674
Br11  Br    Br    0.973792 0.797994 0.881336 -0.421230
Br12  Br    Br    0.443561 0.286357 0.490364 -0.362322
Br13  Br    Br    0.048947 0.199682 0.117934 -0.319436
Br14  Br    Br    0.526115 0.297830 0.118602 -0.419386
Br15  Br    Br    0.465209 0.714058 0.899354 -0.415251
Br16  Br    Br    0.474250 0.297616 0.881781 -0.422743
Br17  Br    Br    0.548412 0.700126 0.117672 -0.310125
Br18  Br    Br    0.441792 0.713953 0.494711 -0.332015
Br19  Br    Br    0.556286 0.286352 0.510571 -0.365289
Br20  Br    Br    0.055974 0.213555 0.511364 -0.317092
Br21  Br    Br    0.943502 0.786344 0.490024 -0.357374
Br22  Br    Br    0.943925 0.213570 0.489340 -0.317714
Br23  Br    Br    0.056206 0.786397 0.510280 -0.354247
Br24  Br    Br    0.568293 0.813513 0.664646 -0.359738
C1    C     C_R   0.292098 0.722152 0.331551 0.546031
C2    C     C_R   0.588491 0.000017 0.539524 -0.018775
C3    C     C_R   0.699791 0.696584 0.898627 0.001164
C4    C     C_R   0.107026 0.809131 0.050811 0.137591
C5    C     C_R   0.877410 0.171201 0.959728 0.213331
C6    C     C_R   0.895563 0.804800 0.948147 0.138774
C7    C     C_R   0.122873 0.170662 0.040171 0.213669
C8    C     C_R   0.604345 0.304623 0.051870 0.138746
C9    C     C_R   0.387256 0.697959 0.957763 0.136875
C10   C     C_R   0.395981 0.304073 0.948009 0.139084
C11   C     C_R   0.622468 0.671355 0.040322 0.213430
C12   C     C_R   0.137281 0.800782 0.098037 0.006453
C13   C     C_R   0.911153 0.500006 0.461953 -0.018959
C14   C     C_R   0.842853 0.158902 0.921736 0.011987
C15   C     C_R   0.865604 0.793444 0.901046 0.007265
C16   C     C_R   0.157494 0.158296 0.078045 0.011962
C17   C     C_R   0.634272 0.293204 0.099015 0.007472
C18   C     C_R   0.357383 0.715081 0.911070 0.003717
C19   C     C_R   0.366243 0.292262 0.900589 0.011392
C20   C     C_R   0.656993 0.659182 0.078437 0.011286
C21   C     C_R   0.249141 0.703210 0.789271 -0.079721
C22   C     C_R   0.719976 0.212409 0.242643 -0.093948
C23   C     C_R   0.757732 0.693369 0.210407 -0.093607
C24   C     C_R   0.088793 0.500013 0.538256 -0.018956
C25   C     C_R   0.280196 0.211932 0.757128 -0.092387
C26   C     C_R   0.742151 0.193177 0.789724 -0.093245
C27   C     C_R   0.222318 0.713593 0.239311 -0.092700
C28   C     C_R   0.257893 0.193085 0.210323 -0.092974
C29   C     C_R   0.779978 0.712508 0.757462 -0.093784
C30   C     C_R   0.280226 0.692835 0.833392 -0.076869
C31   C     C_R   0.689186 0.225378 0.198249 -0.069778
C32   C     C_R   0.726199 0.680451 0.168559 -0.126935
C33   C     C_R   0.311074 0.224631 0.801441 -0.067463
C34   C     C_R   0.773639 0.180126 0.831638 -0.126741
C35   C     C_R   0.579362 0.871987 0.562494 0.203680
C36   C     C_R   0.192531 0.729644 0.194232 -0.068339
C37   C     C_R   0.226491 0.179931 0.168302 -0.126253
C38   C     C_R   0.810730 0.725563 0.801880 -0.069690
C39   C     C_R   0.929122 0.898729 0.063867 0.564373
C40   C     C_R   0.071858 0.100044 0.935343 0.550834
C41   C     C_R   0.071095 0.899092 0.935941 0.566475
C42   C     C_R   0.928174 0.100079 0.064625 0.550627
C43   C     C_R   0.429125 0.398714 0.063860 0.570628
C44   C     C_R   0.571834 0.600065 0.935350 0.563263
C45   C     C_R   0.570910 0.398763 0.936123 0.569469
C46   C     C_R   0.419948 0.128068 0.440851 0.198823
C47   C     C_R   0.428596 0.600505 0.064367 0.568145
C48   C     C_R   0.040892 0.630882 0.528231 -0.008069
C49   C     C_R   0.959098 0.369139 0.471873 -0.003355
C50   C     C_R   0.958991 0.630877 0.471978 -0.008008
C51   C     C_R   0.040823 0.369139 0.528589 -0.003353
C52   C     C_R   0.540719 0.130904 0.529178 -0.007355
C53   C     C_R   0.458210 0.869134 0.474823 0.004283
C54   C     C_R   0.458807 0.130836 0.472952 -0.007637
C55   C     C_R   0.539953 0.869142 0.531488 0.002687
C56   C     C_R   0.020831 0.696450 0.512834 0.183441
C57   C     C_R   0.419665 0.871789 0.442083 0.201131
C58   C     C_R   0.979114 0.303563 0.487376 0.200092
C59   C     C_R   0.978982 0.696444 0.487423 0.183107
C60   C     C_R   0.020796 0.303561 0.513202 0.200175
C61   C     C_R   0.520757 0.196452 0.513522 0.182853
C62   C     C_R   0.477720 0.803601 0.491415 0.209301
C63   C     C_R   0.478902 0.196421 0.488128 0.183569
C64   C     C_R   0.519417 0.803539 0.517201 0.197922
C65   C     C_R   0.978822 0.565604 0.487916 -0.025285
C66   C     C_R   0.021059 0.434408 0.512471 -0.023393
C67   C     C_R   0.021072 0.565608 0.512350 -0.025287
C68   C     C_R   0.579828 0.128209 0.560742 0.200009
C69   C     C_R   0.978853 0.434407 0.487920 -0.023390
C70   C     C_R   0.478473 0.065589 0.489318 -0.024810
C71   C     C_R   0.520361 0.934402 0.514870 -0.020021
C72   C     C_R   0.520727 0.065606 0.513740 -0.024621
C73   C     C_R   0.478149 0.934407 0.490334 -0.019494
C74   C     C_R   0.456685 0.999990 0.478954 0.012593
C75   C     C_R   0.542316 0.000012 0.524785 0.012579
C76   C     C_R   0.957147 0.500006 0.477221 0.011892
C77   C     C_R   0.042770 0.500011 0.523073 0.011877
C78   C     C_R   0.388434 0.934563 0.454292 0.009720
C79   C     C_R   0.079822 0.371902 0.560420 0.199840
C80   C     C_R   0.611163 0.065445 0.547750 0.006405
C81   C     C_R   0.610986 0.934616 0.548400 0.008356
C82   C     C_R   0.388526 0.065387 0.453901 0.006447
C83   C     C_R   0.888706 0.434597 0.453052 0.007334
C84   C     C_R   0.111297 0.565427 0.546986 0.006218
C85   C     C_R   0.111255 0.434601 0.547179 0.007343
C86   C     C_R   0.888671 0.565422 0.453101 0.005975
C87   C     C_R   0.336391 0.934610 0.456348 -0.009276
C88   C     C_R   0.663536 0.065400 0.544366 -0.010381
C89   C     C_R   0.663459 0.934604 0.544657 -0.009609
C90   C     C_R   0.920039 0.628147 0.440081 0.198946
C91   C     C_R   0.336422 0.065380 0.456210 -0.009758
C92   C     C_R   0.836459 0.434620 0.455888 -0.010604
C93   C     C_R   0.163553 0.565390 0.544096 -0.010120
C94   C     C_R   0.163531 0.434607 0.544196 -0.010475
C95   C     C_R   0.836442 0.565401 0.455920 -0.010368
C96   C     C_R   0.311592 0.000005 0.456988 -0.159110
C97   C     C_R   0.688491 0.999994 0.543127 -0.159526
C98   C     C_R   0.811552 0.500018 0.456928 -0.160166
C99   C     C_R   0.188456 0.499992 0.543063 -0.159656
C100  C     C_2   0.116177 0.838224 0.185590 0.257897
C101  C     C_R   0.920135 0.371896 0.439957 0.199895
C102  C     C_2   0.856826 0.095624 0.861617 0.248117
C103  C     C_2   0.884211 0.834165 0.816137 0.255140
C104  C     C_2   0.143669 0.094883 0.138021 0.248310
C105  C     C_2   0.615646 0.333896 0.183895 0.254631
C106  C     C_2   0.388186 0.736118 0.815290 0.279779
C107  C     C_2   0.385299 0.332213 0.815078 0.245474
C108  C     C_2   0.642998 0.595977 0.138752 0.246997
C109  C     C_R   0.703350 0.268204 0.671880 0.545865
C110  C     C_R   0.079906 0.628148 0.560012 0.198962
C111  C     C_R   0.212874 0.754922 0.962105 0.010542
C112  C     C_R   0.768126 0.207466 0.056109 0.013771
C113  C     C_R   0.793591 0.738286 0.034720 0.021048
C114  C     C_R   0.232164 0.206946 0.943651 0.014493
C115  C     C_R   0.706280 0.238028 0.965401 0.021177
C116  C     C_R   0.274407 0.724174 0.052801 0.010653
C117  C     C_R   0.293984 0.237597 0.034395 0.021573
C118  C     C_R   0.731753 0.707697 0.944010 0.014145
C119  C     C_R   0.265541 0.724817 0.916462 0.045428
C120  C     C_R   0.707877 0.722476 0.668607 0.547252
C121  C     C_R   0.713728 0.231659 0.104427 0.048515
C122  C     C_R   0.743124 0.701004 0.079500 0.015319
C123  C     C_R   0.286609 0.230987 0.895261 0.049508
C124  C     C_R   0.756722 0.200695 0.920669 0.015247
C125  C     C_R   0.218505 0.742848 0.101575 0.045091
C126  C     C_R   0.243523 0.200316 0.079156 0.015771
C127  C     C_R   0.786155 0.731896 0.895691 0.048702
C128  C     C_R   0.299513 0.720868 0.958697 -0.001404
C129  C     C_R   0.684650 0.254995 0.057646 0.006696
C130  C     C_R   0.710647 0.688264 0.035264 -0.053421
C131  C     C_R   0.296652 0.268199 0.328128 0.545545
C132  C     C_R   0.315741 0.254292 0.942017 0.008411
C133  C     C_R   0.789201 0.187967 0.964905 -0.053597
C134  C     C_R   0.189707 0.768094 0.055174 0.006495
C135  C     C_R   0.211100 0.187470 0.034871 -0.052851
C136  C     C_R   0.815222 0.755250 0.942460 0.006612
C137  C     C_R   0.133145 0.807092 0.956337 0.015087
C138  C     C_R   0.855162 0.175866 0.053110 -0.012350
C139  C     C_R   0.869666 0.801897 0.042384 0.013876
C140  C     C_R   0.145043 0.175493 0.946798 -0.011849
C141  C     C_R   0.630278 0.301778 0.957640 0.013519
C142  C     C_R   0.792119 0.222473 0.331389 0.545922
C143  C     C_R   0.359812 0.685239 0.051088 0.013693
C144  C     C_R   0.369885 0.301528 0.042265 0.014844
C145  C     C_R   0.644763 0.675955 0.946928 -0.012958
C146  C     C_R   0.111252 0.839315 0.902871 0.009510
C147  C     C_R   0.884045 0.154444 0.100626 -0.007957
C148  C     C_R   0.889881 0.837585 0.096509 0.007379
C149  C     C_R   0.116066 0.154301 0.899340 -0.007682
C150  C     C_R   0.610138 0.337607 0.903478 0.008511
C151  C     C_R   0.385615 0.656305 0.100462 0.007092
C152  C     C_R   0.389927 0.337498 0.096475 0.008944
C153  C     C_R   0.204002 0.769254 0.671734 0.548620
C154  C     C_R   0.615925 0.654476 0.899372 -0.001448
C155  C     C_R   0.134110 0.822527 0.811790 -0.128245
C156  C     C_R   0.863330 0.173220 0.190429 -0.132976
C157  C     C_R   0.866711 0.821757 0.187938 -0.127620
C158  C     C_R   0.136744 0.173187 0.809576 -0.132552
C159  C     C_R   0.633341 0.321861 0.812028 -0.126449
C160  C     C_R   0.363506 0.671437 0.191580 -0.134078
C161  C     C_R   0.366659 0.321813 0.187949 -0.127276
C162  C     C_R   0.636659 0.673249 0.809562 -0.128012
C163  C     C_R   0.179760 0.778374 0.770543 -0.015914
C164  C     C_R   0.207914 0.222415 0.668581 0.545989
C165  C     C_R   0.810821 0.200554 0.237732 -0.023258
C166  C     C_R   0.822665 0.775098 0.228755 -0.015611
C167  C     C_R   0.189275 0.200406 0.762211 -0.022799
C168  C     C_R   0.677331 0.275100 0.771259 -0.015334
C169  C     C_R   0.311632 0.700561 0.237693 -0.025753
C170  C     C_R   0.322685 0.275047 0.228734 -0.015383
C171  C     C_R   0.689161 0.700580 0.762281 -0.023370
C172  C     C_R   0.204775 0.751510 0.822578 0.016196
C173  C     C_R   0.776847 0.204785 0.195046 0.008726
C174  C     C_R   0.800484 0.743081 0.175626 0.016178
C175  C     C_R   0.796652 0.768202 0.328133 0.545871
C176  C     C_R   0.223317 0.204453 0.804805 0.009283
C177  C     C_R   0.699445 0.242957 0.824447 0.016176
C178  C     C_R   0.279261 0.707781 0.193065 0.005630
C179  C     C_R   0.300623 0.242833 0.175535 0.016299
C180  C     C_R   0.723106 0.704866 0.805015 0.008235
C181  C     C_R   0.196388 0.631676 0.527956 0.542869
C182  C     C_R   0.803619 0.368320 0.472020 0.561258
C183  C     C_R   0.803610 0.631687 0.472053 0.542704
C184  C     C_R   0.196377 0.368306 0.527999 0.561292
C185  C     C_R   0.696389 0.131680 0.527992 0.542882
C186  C     C_R   0.410843 0.999985 0.463248 -0.017831
C187  C     C_R   0.303593 0.868329 0.472153 0.561925
C188  C     C_R   0.303609 0.131677 0.472105 0.543071
C189  C     C_R   0.696348 0.868292 0.528141 0.562605
C190  C     C_R   0.183798 0.771987 0.913457 0.005966
C191  C     C_R   0.800127 0.196446 0.101449 0.001658
C192  C     C_R   0.821093 0.761677 0.084316 0.009001
C193  C     C_R   0.200095 0.196030 0.898389 0.002307
C194  C     C_R   0.678818 0.261499 0.915758 0.009029
C195  C     C_R   0.304619 0.706032 0.098759 0.006524
C196  C     C_R   0.321346 0.261238 0.084129 0.009392
Cu1   Cu    Cu3+1 0.209920 0.785290 0.495070 1.105701
Cu2   Cu    Cu3+1 0.504760 0.500000 0.075850 1.145831
Cu3   Cu    Cu3+1 0.995240 0.000000 0.924150 1.146793
Cu4   Cu    Cu3+1 0.004760 1.000000 0.075850 1.145620
Cu5   Cu    Cu3+1 0.790080 0.214710 0.504930 1.082459
Cu6   Cu    Cu3+1 0.790080 0.785290 0.504930 1.102306
Cu7   Cu    Cu3+1 0.209920 0.214710 0.495070 1.082907
Cu8   Cu    Cu3+1 0.709920 0.285290 0.495070 1.099198
Cu9   Cu    Cu3+1 0.290080 0.714710 0.504930 1.088018
Cu10  Cu    Cu3+1 0.290080 0.285290 0.504930 1.101028
Cu11  Cu    Cu3+1 0.709920 0.714710 0.495070 1.076714
Cu12  Cu    Cu3+1 0.495240 0.500000 0.924150 1.079792
H1    H     H_    0.271243 0.000021 0.461905 0.165943
H2    H     H_    0.385830 0.657348 0.227860 0.192706
H3    H     H_    0.381442 0.349102 0.229213 0.185129
H4    H     H_    0.612807 0.662776 0.774841 0.194700
H5    H     H_    0.260406 0.670497 0.730869 0.164581
H6    H     H_    0.697957 0.205731 0.314321 0.153520
H7    H     H_    0.746631 0.663041 0.270601 0.167971
H8    H     H_    0.302144 0.205315 0.685438 0.153545
H9    H     H_    0.753257 0.162919 0.729517 0.168242
H10   H     H_    0.199772 0.702896 0.310232 0.149110
H11   H     H_    0.246696 0.162921 0.270658 0.168321
H12   H     H_    0.729094 0.999980 0.537149 0.165854
H13   H     H_    0.802028 0.705776 0.685802 0.153169
H14   H     H_    0.314852 0.657170 0.803460 0.131317
H15   H     H_    0.645615 0.227785 0.238577 0.144914
H16   H     H_    0.688468 0.654356 0.209910 0.140417
H17   H     H_    0.354642 0.226747 0.761030 0.145600
H18   H     H_    0.811342 0.153950 0.790348 0.140633
H19   H     H_    0.148795 0.729610 0.232854 0.145370
H20   H     H_    0.188742 0.153828 0.209585 0.140655
H21   H     H_    0.854304 0.727984 0.761586 0.144609
H22   H     H_    0.072856 0.841644 0.229609 0.187292
H23   H     H_    0.771083 0.500027 0.462341 0.165367
H24   H     H_    0.824708 0.062080 0.862081 0.116081
H25   H     H_    0.927170 0.839255 0.770300 0.186940
H26   H     H_    0.175868 0.061604 0.137775 0.117361
H27   H     H_    0.572685 0.338927 0.229745 0.186705
H28   H     H_    0.425648 0.708749 0.771499 0.176946
H29   H     H_    0.428303 0.336300 0.769094 0.182827
H30   H     H_    0.675105 0.562434 0.138382 0.115936
H31   H     H_    0.228946 0.499983 0.537562 0.165748
H32   H     H_    0.117392 0.846697 0.771324 0.188256
H33   H     H_    0.887204 0.162760 0.225128 0.194778
H34   H     H_    0.881613 0.848870 0.229152 0.185270
H35   H     H_    0.112811 0.162901 0.774950 0.194917
H36   H     H_    0.618499 0.349092 0.770771 0.185387
O1    O     O_R   0.255040 0.869590 0.478480 -0.509707
O2    O     O_R   0.817950 0.203450 0.375560 -0.477112
O3    O     O_R   0.817950 0.796550 0.375560 -0.473907
O4    O     O_R   0.182050 0.203450 0.624440 -0.476920
O5    O     O_R   0.682050 0.296550 0.624440 -0.474302
O6    O     O_R   0.317950 0.703450 0.375560 -0.479072
O7    O     O_R   0.317950 0.296550 0.375560 -0.474069
O8    O     O_R   0.682050 0.703450 0.624440 -0.478315
O9    O     O_R   0.250530 0.763330 0.367210 -0.505235
O10   O     O_R   0.749470 0.236670 0.632790 -0.528755
O11   O     O_R   0.749470 0.763330 0.632790 -0.506932
O12   O     O_R   0.744960 0.130410 0.521520 -0.522984
O13   O     O_R   0.250530 0.236670 0.367210 -0.528920
O14   O     O_R   0.750530 0.263330 0.367210 -0.507590
O15   O     O_R   0.249470 0.736670 0.632790 -0.525240
O16   O     O_R   0.249470 0.263330 0.632790 -0.507593
O17   O     O_R   0.750530 0.736670 0.367210 -0.528526
O18   O     O_R   0.177260 0.690030 0.513710 -0.477472
O19   O     O_R   0.822740 0.309970 0.486290 -0.463243
O20   O     O_R   0.822740 0.690030 0.486290 -0.477862
O21   O     O_R   0.177260 0.309970 0.513710 -0.463385
O22   O     O_R   0.677260 0.190030 0.513710 -0.477811
O23   O     O_R   0.744960 0.869590 0.521520 -0.508810
O24   O     O_R   0.322740 0.809970 0.486290 -0.460879
O25   O     O_R   0.322740 0.190030 0.486290 -0.477616
O26   O     O_R   0.677260 0.809970 0.513710 -0.462558
O27   O     O_R   0.051640 0.926880 0.885090 -0.490765
O28   O     O_R   0.948360 0.073120 0.114910 -0.492409
O29   O     O_R   0.948360 0.926880 0.114910 -0.491550
O30   O     O_R   0.051640 0.073120 0.885090 -0.492080
O31   O     O_R   0.551640 0.426880 0.885090 -0.491229
O32   O     O_R   0.448360 0.573120 0.114910 -0.491190
O33   O     O_R   0.448360 0.426880 0.114910 -0.488705
O34   O     O_R   0.255040 0.130410 0.478480 -0.522947
O35   O     O_R   0.551640 0.573120 0.885090 -0.495972
O36   O     O_R   0.940620 0.926560 0.986760 -0.483500
O37   O     O_R   0.059380 0.073440 0.013240 -0.473505
O38   O     O_R   0.059380 0.926560 0.013240 -0.484177
O39   O     O_R   0.940620 0.073440 0.986760 -0.473530
O40   O     O_R   0.440620 0.426560 0.986760 -0.486999
O41   O     O_R   0.559380 0.573440 0.013240 -0.471778
O42   O     O_R   0.559380 0.426560 0.013240 -0.481876
O43   O     O_R   0.440620 0.573440 0.986760 -0.487691
O44   O     O_2   0.147035 0.869428 0.207205 -0.468842
O45   O     O_R   0.755040 0.369590 0.478480 -0.509575
O46   O     O_2   0.903997 0.078735 0.813211 -0.411681
O47   O     O_2   0.851689 0.866225 0.799099 -0.471462
O48   O     O_2   0.096541 0.077581 0.186051 -0.412310
O49   O     O_2   0.648149 0.365999 0.200889 -0.472375
O50   O     O_2   0.373032 0.785941 0.785238 -0.465326
O51   O     O_2   0.353129 0.364699 0.797595 -0.474327
O52   O     O_2   0.595822 0.579145 0.187221 -0.413392
O53   O     O_R   0.244960 0.630410 0.521520 -0.523311
O54   O     O_R   0.244960 0.369590 0.521520 -0.509298
O55   O     O_R   0.755040 0.630410 0.478480 -0.523806
O56   O     O_R   0.182050 0.796550 0.624440 -0.474535

loop_
_geom_bond_atom_site_label_1
_geom_bond_atom_site_label_2
_ccdc_geom_bond_type
C97   H12   S    
Cu10  O7    S    
Cu3   Cu4   S    
C49   C69   A    
C50   C59   A    
C174  C192  A    
C120  C171  S    
C32   H16   S    
C91   C188  S    
C164  C167  S    
Br22  C58   S    
C12   C100  S    
C28   C37   A    
C71   C75   A    
C31   C121  A    
C160  C169  A    
C50   C90   A    
C72   C75   A    
Cu10  O16   S    
Cu5   Cu8   S    
C51   C66   A    
C2    C80   A    
C153  O15   A    
C138  C147  A    
Br21  C59   S    
Cu3   O27   S    
C22   C31   A    
C4    C137  A    
Cu5   O10   S    
Cu4   O28   S    
C23   C174  A    
C116  C128  A    
C162  H4    S    
C57   C78   A    
C30   C119  A    
C51   C79   A    
C78   C87   A    
Cu7   O34   S    
C56   C59   A    
C2    C81   A    
C85   C94   A    
C175  O17   A    
Cu3   O30   S    
Cu9   O6    S    
C126  C135  A    
Cu2   O33   S    
C113  C122  A    
C98   H23   S    
C48   C67   A    
C118  C127  A    
C187  O24   A    
C1    O6    A    
C157  C166  A    
C42   C147  S    
C122  C130  A    
C42   O28   A    
C43   C152  S    
C140  C149  A    
Br18  C62   S    
C144  C196  A    
C70   C72   A    
C139  C148  A    
C69   C76   A    
C83   C101  A    
Cu12  O31   S    
C161  H3    S    
C44   O35   A    
C149  C158  A    
C58   C60   A    
C33   C123  A    
C44   O41   A    
C27   H10   S    
C33   H17   S    
C19   C132  A    
Cu5   O19   S    
C102  O46   D    
C66   C69   A    
C175  O3    A    
C165  C173  A    
C113  C136  A    
C14   C133  A    
Br19  C61   S    
C106  H28   S    
C71   C73   A    
C117  C132  A    
C20   C108  S    
C82   C91   A    
C181  O18   A    
C120  O8    A    
C28   C179  A    
C20   C130  A    
C88   C185  S    
C19   C107  S    
C52   C72   A    
C115  C194  A    
C39   C148  S    
Cu11  O55   S    
C54   C70   A    
C37   H20   S    
C24   C77   A    
Cu5   O12   S    
C62   C64   A    
C21   H5    S    
Cu5   O2    S    
C68   C80   A    
C157  H34   S    
C154  C162  A    
Cu12  O43   S    
C187  O1    A    
C115  C129  A    
C102  H24   S    
C52   C61   A    
C92   C182  S    
Br9   C4    S    
C16   C104  S    
C140  C193  A    
C103  O47   D    
Cu3   O36   S    
C164  O16   A    
C15   C136  A    
C185  O22   A    
C16   C135  A    
C73   C74   A    
C182  O45   A    
C43   O33   A    
C9    C18   A    
C81   C89   A    
Cu6   O20   S    
C156  C165  A    
C117  C196  A    
C189  O23   A    
C51   C60   A    
Cu9   O15   S    
C183  O55   A    
Br6   C90   S    
Br16  C10   S    
C148  C157  A    
C5    C14   A    
Br3   C57   S    
C8    C17   A    
C53   C73   A    
C65   C67   A    
C125  C134  A    
C86   C90   A    
C27   C178  A    
C2    C75   A    
C21   C172  A    
C111  C119  A    
Cu2   Cu12  S    
C39   O36   A    
C164  O4    A    
C67   C77   A    
C143  C195  A    
C14   C102  S    
C117  C126  A    
C17   C129  A    
C115  C124  A    
C109  O5    A    
Br8   C110  S    
C182  O19   A    
C167  C176  A    
C114  C193  A    
C28   H11   S    
C80   C88   A    
Cu2   O42   S    
C141  C150  A    
C131  O13   A    
C96   H1    S    
C172  C190  A    
C158  H35   S    
Cu6   O23   S    
C118  C130  A    
C160  H2    S    
C23   H7    S    
C189  O26   A    
Cu4   O29   S    
Br20  C60   S    
Cu4   O37   S    
C137  C146  A    
C5    C138  A    
C143  C151  A    
C144  C152  A    
C3    C145  A    
C7    C140  A    
Cu7   O21   S    
C84   C93   A    
C10   C19   A    
C105  H27   S    
C86   C95   A    
C53   C62   A    
C146  C155  A    
C142  C165  S    
C88   C97   A    
C48   C56   A    
C131  C170  S    
Br24  C35   S    
C49   C101  A    
C6    C15   A    
C120  O11   A    
Cu6   O11   S    
C83   C92   A    
C41   O38   A    
Cu7   O4    S    
C89   C97   A    
C27   C36   A    
Br4   C68   S    
C116  C125  A    
C13   C76   A    
C23   C32   A    
C107  H29   S    
C54   C63   A    
C38   H21   S    
C137  C190  A    
C107  O51   D    
C163  C172  A    
C108  O52   D    
C161  C170  A    
C26   H9    S    
C159  C168  A    
Br5   C79   S    
C152  C161  A    
C35   C81   A    
C92   C98   A    
C179  C196  A    
Cu3   O39   S    
C177  C194  A    
C13   C83   A    
Cu10  O25   S    
C93   C181  S    
C111  C190  A    
C155  C163  A    
C70   C74   A    
C7    C16   A    
Br11  C6    S    
C166  C175  S    
C36   H19   S    
C168  C177  A    
C103  H25   S    
C153  O56   A    
Br23  C56   S    
C45   O42   A    
C112  C191  A    
Br1   C64   S    
C8    C141  A    
C176  C193  A    
C9    C143  A    
C6    C139  A    
C10   C144  A    
Cu7   O13   S    
C55   C64   A    
C39   O29   A    
C38   C127  A    
C65   C76   A    
C26   C34   A    
Cu11  O26   S    
C100  H22   S    
C46   C82   A    
C35   C55   A    
C22   C173  A    
C171  C180  A    
C159  H36   S    
C84   C110  A    
Cu6   O3    S    
C155  H32   S    
C116  C195  A    
C48   C110  A    
C53   C57   A    
Cu8   O5    S    
Br7   C101  S    
C123  C132  A    
C13   C86   A    
C131  O7    A    
C119  C128  A    
C113  C192  A    
C11   C145  A    
Cu1   O56   S    
C45   C150  S    
C49   C58   A    
C183  O20   A    
C1    C169  S    
C166  C174  A    
C26   C177  A    
Cu8   O14   S    
C181  O53   A    
Cu2   O32   S    
Br13  C7    S    
Br14  C8    S    
C150  C159  A    
C153  C163  S    
C79   C85   A    
Cu8   O45   S    
Br10  C5    S    
C24   C84   A    
Cu10  O54   S    
C44   C154  S    
C47   C151  S    
C100  O44   D    
C94   C99   A    
C30   H14   S    
C32   C122  A    
Cu1   O18   S    
C87   C187  S    
C169  C178  A    
C4    C12   A    
C45   O31   A    
Cu1   Cu9   S    
Cu11  O17   S    
Cu8   O22   S    
Br17  C11   S    
C40   C149  S    
Br2   C46   S    
C109  C168  S    
C151  C160  A    
C109  O10   A    
C105  O49   D    
C46   C54   A    
Cu1   O9    S    
C89   C189  S    
C156  H33   S    
C25   C33   A    
C55   C71   A    
C74   C186  A    
C50   C65   A    
C34   C124  A    
Cu6   Cu11  S    
C3    C118  A    
C139  C192  A    
C41   O27   A    
C47   O32   A    
C188  O25   A    
C114  C135  A    
C106  O50   D    
C99   H31   S    
Cu11  O8    S    
C18   C128  A    
C37   C126  A    
C112  C121  A    
C173  C191  A    
C12   C134  A    
C124  C133  A    
C121  C129  A    
C24   C85   A    
C111  C134  A    
C31   H15   S    
C142  O2    A    
C43   O40   A    
C25   H8    S    
C188  O34   A    
Cu9   O53   S    
Cu12  O35   S    
C138  C191  A    
C61   C63   A    
C29   C180  A    
C15   C103  S    
C3    C180  A    
C162  C171  A    
C1    O9    A    
C78   C186  A    
C104  O48   D    
C87   C96   A    
C104  H26   S    
C178  C195  A    
C94   C184  S    
C66   C77   A    
C40   O37   A    
C29   C38   A    
C114  C123  A    
C18   C106  S    
C11   C20   A    
C141  C194  A    
C52   C68   A    
C112  C133  A    
C21   C30   A    
C40   O30   A    
C147  C156  A    
C34   H18   S    
C95   C183  S    
C142  O14   A    
C47   O43   A    
C145  C154  A    
Cu1   O1    S    
C95   C98   A    
Br12  C63   S    
Cu9   O24   S    
C82   C186  A    
Cu2   O41   S    
C185  O12   A    
C184  O54   A    
C127  C136  A    
C93   C99   A    
C17   C105  S    
Cu12  O40   S    
C170  C179  A    
C108  H30   S    
C36   C125  A    
C22   H6    S    
C29   H13   S    
C184  O21   A    
C42   O39   A    
Cu7   Cu10  S    
C91   C96   A    
C158  C167  A    
C41   C146  S    
Cu4   O38   S    
Br15  C9    S    
C25   C176  A    
