data_mof_unit_23114.cif
_audit_creation_date              2012-12-11T17:33:25-0500
_audit_creation_method            fapswitch 2.2
_symmetry_space_group_name_H-M    P1
_symmetry_Int_Tables_number       1
_space_group_crystal_system       triclinic
_cell_length_a                    6.932868
_cell_length_b                    22.061371
_cell_length_c                    21.994601
_cell_angle_alpha                 107.739625
_cell_angle_beta                  90.263307
_cell_angle_gamma                 90.011165
_cell_volume                      3204.04759778

loop_
_atom_site_label
_atom_site_type_symbol
_atom_type_description
_atom_site_fract_x
_atom_site_fract_y
_atom_site_fract_z
_atom_type_partial_charge
O1    O     O_R   0.505730 0.449200 0.552060 -0.547405
O2    O     O_R   0.171560 0.427840 0.423150 -0.522278
O3    O     O_R   0.005630 0.550800 0.447940 -0.500934
C1    C     C_R   0.341136 0.410092 0.398323 0.755772
O4    O     O_R   0.175730 0.441570 0.550050 -0.533800
O5    O     O_R   0.009820 0.564620 0.575740 -0.499080
C2    C     C_R   0.344439 0.428679 0.568817 0.705991
O6    O     O_R   0.501530 0.435380 0.424260 -0.555504
O7    O     O_3   0.340640 0.540360 0.508280 -0.328221
V1    V     V_3+5 0.064080 0.492510 0.498460 1.708298
O8    O     O_R   0.680360 0.572160 0.576850 -0.538346
C3    C     C_R   0.850995 0.591365 0.600628 0.902816
O9    O     O_R   0.676190 0.558430 0.449950 -0.507165
C4    C     C_R   0.844162 0.570182 0.429873 0.910157
V2    V     V_3+5 0.564610 0.507490 0.501540 1.686694
O10   O     O_3   0.837920 0.459640 0.491720 -0.398815
C5    C     C_R   0.087194 0.792836 0.138300 0.321879
C6    C     C_R   0.093001 0.835316 0.101862 0.299442
C7    C     C_R   0.940897 0.879139 0.104300 -0.244426
C8    C     C_R   0.777399 0.876956 0.142088 0.270234
C9    C     C_R   0.771601 0.833819 0.178961 0.302573
C10   C     C_R   0.929416 0.794188 0.179307 -0.127679
C11   C     C_1   0.922638 0.754234 0.221231 0.110241
C12   C     C_1   0.913164 0.721735 0.256747 0.051708
C13   C     C_R   0.014584 0.627898 0.291075 0.351035
C14   C     C_R   0.983435 0.588428 0.330182 0.371101
C15   C     C_R   0.854134 0.607517 0.383062 -0.365949
C16   C     C_R   0.737464 0.662313 0.389616 0.422598
C17   C     C_R   0.760832 0.698186 0.347239 -0.175727
H1    H     H_    0.669416 0.739121 0.351602 0.209516
C18   C     C_R   0.899478 0.682631 0.299210 -0.132224
C19   C     C_R   0.865867 0.643803 0.662650 -0.343751
C20   C     C_R   0.929332 0.857424 0.837937 -0.321263
C21   C     C_R   0.878789 0.822771 0.722127 0.522634
C22   C     C_R   0.898835 0.872036 0.780215 0.274961
C23   C     C_R   0.918158 0.793027 0.837534 0.431753
C24   C     C_R   0.876228 0.744197 0.779616 -0.169440
C25   C     C_R   0.890078 0.757956 0.720998 -0.294276
C26   C     C_R   0.915501 0.706580 0.663903 0.452156
C27   C     C_R   0.849103 0.630269 0.721291 0.251007
C28   C     C_R   0.831175 0.681097 0.778644 0.454385
C29   C     C_R   0.358085 0.358465 0.336295 -0.079214
C30   C     C_R   0.435123 0.143255 0.163585 -0.203719
C31   C     C_R   0.279123 0.182824 0.268706 0.276896
C32   C     C_R   0.346608 0.131505 0.216939 0.353219
C33   C     C_R   0.482932 0.206476 0.167865 -0.292706
C34   C     C_R   0.440316 0.257163 0.223551 0.076303
C35   C     C_R   0.333277 0.245595 0.273570 0.062470
C36   C     C_R   0.288240 0.296834 0.328816 -0.161474
C37   C     C_R   0.466186 0.369018 0.286486 -0.040304
C38   C     C_R   0.502871 0.319437 0.230245 -0.108529
H2    H     H_    0.209130 0.288387 0.367840 0.161320
H3    H     H_    0.524176 0.415866 0.291374 0.177010
H4    H     H_    0.585666 0.329483 0.192765 0.144988
H5    H     H_    0.553900 0.216125 0.127971 0.155673
C39   C     C_R   0.567435 0.192022 0.841724 -0.168749
H6    H     H_    0.682010 0.224982 0.840263 0.216291
C40   C     C_R   0.586451 0.154377 0.882526 0.264595
C41   C     C_R   0.438508 0.110758 0.885616 -0.183497
C42   C     C_R   0.275911 0.104830 0.844549 0.234195
C43   C     C_R   0.255367 0.145531 0.805380 0.318220
C44   C     C_R   0.404615 0.187566 0.802904 -0.041631
C45   C     C_1   0.390789 0.226980 0.760730 0.178045
C46   C     C_1   0.381731 0.260119 0.725726 0.124542
C47   C     C_R   0.507655 0.352414 0.695454 0.372072
C48   C     C_R   0.485952 0.397494 0.662009 0.280855
C49   C     C_R   0.352971 0.386551 0.610682 -0.258303
C50   C     C_R   0.227873 0.334217 0.598889 -0.199524
H7    H     H_    0.122819 0.325719 0.560552 0.169335
C51   C     C_R   0.233967 0.292427 0.635880 0.371038
C52   C     C_R   0.375505 0.301229 0.684813 -0.178681
O11   O     O_R   0.294110 0.064720 0.075690 -0.534398
O12   O     O_R   0.619980 0.058360 0.949870 -0.558277
O13   O     O_R   0.785810 0.935300 0.924300 -0.542641
C53   C     C_R   0.450902 0.070831 0.930299 0.758929
O14   O     O_R   0.624080 0.072230 0.076800 -0.529864
O15   O     O_R   0.789930 0.949270 0.052130 -0.502711
C54   C     C_R   0.454347 0.090522 0.101570 0.822415
O16   O     O_R   0.289980 0.050750 0.947860 -0.515901
O17   O     O_3   0.454970 0.959660 0.991750 -0.360288
V3    V     V_3+5 0.731560 0.007480 0.001530 1.573492
O18   O     O_R   0.119360 0.941610 0.050140 -0.531188
C55   C     C_R   0.950493 0.926053 0.066611 0.851325
O19   O     O_R   0.115260 0.927740 0.923220 -0.530926
C56   C     C_R   0.945427 0.909697 0.899123 0.691845
V4    V     V_3+5 0.231020 0.992470 0.998490 1.610438
O20   O     O_3   0.957740 0.040330 0.008250 -0.380857
O21   O     O_3   0.239206 0.750706 0.131658 -0.588541
H8    H     H_    0.217314 0.721975 0.157758 0.304140
S1    S     S_3+6 0.938145 0.555945 0.726693 0.112088
O22   O     O_2   0.835296 0.534915 0.776692 -0.188894
O23   O     O_2   0.925467 0.503826 0.664225 -0.349826
O24   O     O_3   0.171880 0.566899 0.747631 -0.468020
H9    H     H_    0.218037 0.524655 0.748456 0.386262
S2    S     S_3+6 0.794172 0.845580 0.655634 0.172876
O25   O     O_2   0.952166 0.879544 0.632444 -0.242757
O26   O     O_2   0.726263 0.789642 0.602054 -0.266053
O27   O     O_3   0.607791 0.895911 0.679612 -0.457503
H10   H     H_    0.568897 0.907707 0.641320 0.397861
S3    S     S_3+6 0.702333 0.667636 0.843357 0.172333
O28   O     O_2   0.840583 0.646952 0.886016 -0.226684
O29   O     O_2   0.600221 0.727155 0.881431 -0.291973
O30   O     O_3   0.534754 0.610813 0.814970 -0.444620
H11   H     H_    0.476799 0.603715 0.853324 0.410416
O31   O     O_3   0.887668 0.934049 0.778071 -0.588757
H12   H     H_    0.874275 0.964300 0.821359 0.298751
O32   O     O_3   0.960092 0.775467 0.891500 -0.557324
H13   H     H_    0.004557 0.812375 0.926922 0.303482
O33   O     O_3   0.164351 0.172718 0.315761 -0.603420
H14   H     H_    0.081801 0.135193 0.295705 0.357057
S4    S     S_3+6 0.373022 0.055256 0.226677 0.000737
O34   O     O_2   0.254893 0.007387 0.177420 -0.367216
O35   O     O_2   0.583197 0.038838 0.217140 -0.322556
O36   O     O_3   0.310533 0.053312 0.299875 -0.465469
H15   H     H_    0.338841 0.009284 0.299824 0.380549
O37   O     O_3   0.245589 0.830480 0.061048 -0.578560
H16   H     H_    0.326529 0.868513 0.080223 0.337417
O38   O     O_3   0.749816 0.162500 0.919739 -0.621104
H17   H     H_    0.819660 0.121446 0.905901 0.316730
O39   O     O_3   0.143970 0.057091 0.841301 -0.645976
H18   H     H_    0.086142 0.043405 0.798004 0.327953
O40   O     O_3   0.090941 0.145701 0.769676 -0.621725
H19   H     H_    0.979960 0.132214 0.790674 0.309505
S5    S     S_3+6 0.698568 0.362419 0.752283 0.137011
O41   O     O_2   0.624648 0.400458 0.816702 -0.236388
O42   O     O_2   0.770167 0.299261 0.755794 -0.341838
O43   O     O_3   0.885690 0.401271 0.733017 -0.392500
H20   H     H_    0.913940 0.377695 0.687938 0.350620
O44   O     O_3   0.589625 0.453258 0.683015 -0.544968
H21   H     H_    0.521481 0.487238 0.670745 0.322159
O45   O     O_3   0.099268 0.243831 0.621850 -0.605450
H22   H     H_    0.116830 0.217227 0.650387 0.333994
O46   O     O_3   0.627640 0.918309 0.143027 -0.595270
H23   H     H_    0.544507 0.921883 0.180271 0.348030
O47   O     O_3   0.613356 0.829223 0.215237 -0.615857
H24   H     H_    0.495577 0.832460 0.190892 0.321974
O48   O     O_3   0.157495 0.610886 0.245256 -0.577951
H25   H     H_    0.176554 0.644643 0.224883 0.303569
S6    S     S_3+6 0.098689 0.512697 0.308202 0.041593
O49   O     O_2   0.287056 0.519023 0.343541 -0.308443
O50   O     O_2   0.974679 0.464054 0.324634 -0.384706
O51   O     O_3   0.143782 0.486546 0.229408 -0.442912
H26   H     H_    0.014942 0.479687 0.208755 0.354992
S7    S     S_3+6 0.551898 0.686843 0.447184 0.086877
O52   O     O_2   0.503877 0.755739 0.457698 -0.286505
O53   O     O_2   0.375429 0.647273 0.422746 -0.323238
O54   O     O_3   0.617926 0.677314 0.517110 -0.461216
H27   H     H_    0.508875 0.694472 0.545925 0.418986
S8    S     S_3+6 0.098872 0.713594 0.609841 0.085300
O55   O     O_2   0.191796 0.778239 0.630710 -0.272355
O56   O     O_2   0.251954 0.665206 0.609098 -0.346431
O57   O     O_3   0.008824 0.698962 0.535742 -0.466240
H28   H     H_    0.110051 0.713278 0.511589 0.403191

loop_
_geom_bond_atom_site_label_1
_geom_bond_atom_site_label_2
_ccdc_geom_bond_type
C13   C18   A    
O24   H9    S    
C5    O21   S    
O2    C1    A    
S2    O25   D    
C1    O6    A    
O36   H15   S    
S2    O27   S    
O47   H24   S    
O37   H16   S    
C30   C54   S    
C14   C15   A    
C24   C25   A    
C9    C10   A    
C16   C17   A    
O19   V4    S    
C6    C7    A    
O21   H8    S    
S8    O56   D    
O5    C3    A    
C25   C26   A    
S6    O51   S    
C46   C52   S    
O15   C55   A    
V2    O10   S    
C40   O38   S    
C20   C23   A    
C39   H6    S    
C21   C22   A    
C47   S5    S    
C20   C56   S    
O38   H17   S    
C51   O45   S    
O17   V4    S    
O54   H27   S    
O8    V2    S    
S4    O34   D    
C50   H7    S    
C33   H5    S    
O11   C54   A    
O32   H13   S    
C51   C52   A    
C16   S7    S    
C4    C15   S    
O7    V1    S    
C48   O44   S    
C31   O33   S    
C48   C49   A    
C41   C42   A    
C21   C25   A    
O9    C4    A    
C3    C19   S    
C23   O32   S    
C24   C28   A    
O12   C53   A    
S7    O54   S    
C7    C55   S    
O12   V3    S    
C5    C6    A    
C37   H3    S    
O51   H26   S    
C49   C50   A    
C21   S2    S    
S7    O53   D    
C14   S6    S    
S8    O57   S    
C6    O37   S    
O4    C2    A    
V4    O20   S    
O17   V3    S    
C34   C38   A    
C13   C14   A    
C47   C52   A    
S3    O30   S    
C43   O40   S    
C13   O48   S    
C17   H1    S    
C22   O31   S    
S1    O23   D    
C34   C35   A    
O15   V3    S    
C11   C12   T    
C36   H2    S    
C44   C45   S    
S3    O29   D    
C37   C38   A    
C28   S3    S    
S4    O35   D    
S2    O26   D    
O19   C56   A    
C30   C32   A    
V3    O20   S    
O3    C4    A    
C29   C37   A    
S5    O43   S    
O1    V2    S    
C50   C51   A    
C27   C28   A    
O18   C55   A    
O6    V2    S    
O9    V2    S    
O46   H23   S    
C8    O46   S    
C39   C44   A    
C47   C48   A    
O13   V3    S    
O43   H20   S    
O2    V1    S    
C41   C53   S    
O30   H11   S    
O39   H18   S    
S1    O24   S    
S5    O42   D    
O44   H21   S    
O48   H25   S    
C33   C34   A    
C35   C36   A    
O1    C2    A    
C31   C32   A    
O14   C54   A    
S7    O52   D    
O14   V3    S    
O5    V1    S    
O11   V4    S    
S6    O49   D    
C32   S4    S    
O31   H12   S    
C26   S8    S    
C5    C10   A    
C38   H4    S    
C7    C8    A    
C40   C41   A    
C12   C18   S    
O4    V1    S    
C17   C18   A    
O3    V1    S    
V1    O10   S    
S8    O55   D    
O18   V4    S    
S6    O50   D    
S1    O22   D    
C1    C29   S    
S3    O28   D    
C20   C22   A    
C39   C40   A    
C42   O39   S    
S4    O36   S    
C19   C27   A    
O13   C56   A    
O7    V2    S    
C43   C44   A    
C30   C33   A    
C29   C36   A    
C2    C49   S    
C45   C46   T    
C31   C35   A    
C8    C9    A    
C23   C24   A    
O27   H10   S    
C15   C16   A    
C19   C26   A    
C10   C11   S    
C42   C43   A    
O57   H28   S    
C27   S1    S    
O40   H19   S    
O33   H14   S    
C53   O16   A    
C9    O47   S    
O16   V4    S    
O45   H22   S    
O8    C3    A    
S5    O41   D    
