data_mof_unit_67226.cif
_audit_creation_date              2013-03-05T16:01:25-0500
_audit_creation_method            fapswitch 2.2
_symmetry_space_group_name_H-M    P1
_symmetry_Int_Tables_number       1
_space_group_crystal_system       triclinic
_cell_length_a                    20.332823
_cell_length_b                    20.759414
_cell_length_c                    8.530237
_cell_angle_alpha                 90.091317
_cell_angle_beta                  92.572758
_cell_angle_gamma                 89.822824
_cell_volume                      3596.94131257

loop_
_atom_site_label
_atom_site_type_symbol
_atom_site_description
_atom_site_fract_x
_atom_site_fract_y
_atom_site_fract_z
_atom_type_partial_charge
P1    P     P_3+3 0.136530 0.426510 0.931350 0.635729
P2    P     P_3+3 0.136530 0.573490 0.431350 0.631837
P3    P     P_3+3 0.636530 0.926510 0.931350 0.635835
P4    P     P_3+3 0.636530 0.073490 0.431350 0.638772
O1    O     O_2   0.130070 0.404060 0.104920 -0.323179
O2    O     O_2   0.130070 0.595940 0.604920 -0.322765
O3    O     O_2   0.630070 0.904060 0.104920 -0.322104
O4    O     O_2   0.630070 0.095940 0.604920 -0.320117
O5    O     O_3   0.075780 0.466370 0.861070 -0.272356
O6    O     O_3   0.075780 0.533630 0.361070 -0.270851
O7    O     O_3   0.575780 0.966370 0.861070 -0.271753
O8    O     O_3   0.575780 0.033630 0.361070 -0.271488
O9    O     O_3   0.022320 0.344950 0.359800 -0.327512
O10   O     O_3   0.022320 0.655050 0.859800 -0.327732
O11   O     O_3   0.522320 0.844950 0.359800 -0.329518
O12   O     O_3   0.522320 0.155050 0.859800 -0.325946
O13   O     O_2   0.129589 0.295336 0.234753 -0.338734
O14   O     O_2   0.127622 0.707098 0.738953 -0.326968
O15   O     O_2   0.628184 0.793928 0.234099 -0.326835
O16   O     O_2   0.629064 0.204681 0.734224 -0.335471
O17   O     O_3   0.210833 0.470924 0.923865 -0.514108
O18   O     O_3   0.210867 0.528808 0.424823 -0.514287
O19   O     O_3   0.710771 0.970849 0.923434 -0.520239
O20   O     O_3   0.711082 0.028889 0.424022 -0.515641
O21   O     O_3   0.051288 0.210378 0.348072 -0.430775
O22   O     O_3   0.043974 0.789435 0.849980 -0.423256
O23   O     O_3   0.547676 0.710601 0.348330 -0.422561
O24   O     O_3   0.550519 0.289300 0.849850 -0.430873
H1    H     H_    0.957758 0.243845 0.282148 0.132559
H2    H     H_    0.951363 0.747119 0.815000 0.114340
H3    H     H_    0.452730 0.747170 0.312446 0.111275
H4    H     H_    0.455649 0.255276 0.801694 0.123520
C1    C     C_3   0.953504 0.146962 0.369322 -0.698778
C2    C     C_3   0.941367 0.847509 0.860583 -0.672918
C3    C     C_3   0.449734 0.648563 0.386536 -0.708596
C4    C     C_3   0.453597 0.353476 0.879773 -0.696472
H5    H     H_    0.951530 0.127972 0.247857 0.296153
H6    H     H_    0.935937 0.858200 0.733592 0.286649
H7    H     H_    0.402282 0.650517 0.446059 0.204029
H8    H     H_    0.450594 0.370632 0.756975 0.294064
H9    H     H_    0.983066 0.113795 0.446499 0.285850
H10   H     H_    0.968447 0.887466 0.919768 0.315298
H11   H     H_    0.439081 0.633834 0.263130 0.283965
H12   H     H_    0.483697 0.387458 0.953421 0.289098
P5    P     P_3+3 0.863410 0.426100 0.379280 0.541403
P6    P     P_3+3 0.863410 0.573900 0.879280 0.578643
P7    P     P_3+3 0.363410 0.926100 0.379280 0.578534
P8    P     P_3+3 0.363410 0.073900 0.879280 0.537047
P9    P     P_3+3 0.915745 0.285459 0.931281 0.579022
P10   P     P_3+3 0.912303 0.711513 0.432397 0.534237
P11   P     P_3+3 0.414318 0.786881 0.932597 0.575506
P12   P     P_3+3 0.415493 0.214937 0.432287 0.587496
O25   O     O_2   0.869860 0.403670 0.205810 -0.332903
O26   O     O_2   0.869860 0.596330 0.705810 -0.334859
O27   O     O_2   0.369860 0.903670 0.205810 -0.338941
O28   O     O_2   0.369860 0.096330 0.705810 -0.336347
O29   O     O_3   0.977590 0.344880 0.951200 -0.237539
O30   O     O_3   0.977590 0.655120 0.451200 -0.274751
O31   O     O_3   0.477590 0.844880 0.951200 -0.245251
O32   O     O_3   0.477590 0.155120 0.451200 -0.233182
O33   O     O_2   0.870142 0.295364 0.069488 -0.381924
O34   O     O_2   0.864175 0.696984 0.561948 -0.365338
O35   O     O_2   0.367840 0.799313 0.067520 -0.385951
O36   O     O_2   0.369003 0.203443 0.567766 -0.373046
O37   O     O_3   0.791154 0.472407 0.381303 -0.633112
O38   O     O_3   0.789847 0.529829 0.873201 -0.578231
O39   O     O_3   0.290456 0.971501 0.374045 -0.576776
O40   O     O_3   0.291965 0.027076 0.883493 -0.636813
O41   O     O_3   0.952316 0.210234 0.973490 -0.571679
O42   O     O_3   0.940702 0.788013 0.488709 -0.607063
O43   O     O_3   0.448595 0.711336 0.982895 -0.566060
O44   O     O_3   0.449729 0.290576 0.481177 -0.571147
C5    C     C_3   0.972556 0.179855 0.835056 0.725119
C6    C     C_3   0.990849 0.809562 0.393224 0.558862
C7    C     C_3   0.468273 0.677909 0.848188 0.721772
C8    C     C_3   0.471371 0.322079 0.346132 0.682529
H13   H     H_    0.947281 0.198844 0.727358 -0.175248
H14   H     H_    0.007367 0.772679 0.308853 0.037175
H15   H     H_    0.438390 0.691369 0.741468 -0.188980
H16   H     H_    0.441132 0.309611 0.239152 -0.151685
C9    C     C_3   0.953995 0.108134 0.839003 -0.120960
C10   C     C_3   0.965238 0.868085 0.298848 -0.212882
C11   C     C_3   0.456838 0.605264 0.870782 -0.139065
C12   C     C_3   0.463848 0.395529 0.364829 -0.107910
H17   H     H_    0.900503 0.104764 0.857160 0.120112
H18   H     H_    0.938055 0.900909 0.376620 0.204249
H19   H     H_    0.410988 0.597920 0.933771 0.132625
H20   H     H_    0.410954 0.407005 0.376601 0.134685
C13   C     C_3   0.789463 0.476786 0.773087 0.491760
C14   C     C_3   0.785684 0.522360 0.271859 0.580782
C15   C     C_3   0.285018 0.979329 0.768657 0.583915
C16   C     C_3   0.290133 0.024165 0.273069 0.492162
H21   H     H_    0.824224 0.482279 0.677663 0.074976
H22   H     H_    0.827651 0.524495 0.193378 0.034427
H23   H     H_    0.326648 0.977488 0.689090 0.037100
H24   H     H_    0.325804 0.018718 0.179471 0.075295
C17   C     C_3   0.718903 0.466660 0.700761 0.656334
C18   C     C_3   0.720448 0.513694 0.174124 0.631370
C19   C     C_3   0.219702 0.991422 0.673715 0.634154
C20   C     C_3   0.220017 0.033432 0.197831 0.661073
H25   H     H_    0.721430 0.435898 0.594950 0.061483
H26   H     H_    0.728496 0.476244 0.085355 0.083184
H27   H     H_    0.228246 0.030355 0.589603 0.075022
H28   H     H_    0.222524 0.065179 0.094052 0.057119
Ba1   Ba    Ba6+2 0.999980 0.452130 0.155200 1.821361
Ba2   Ba    Ba6+2 0.999980 0.547870 0.655200 1.821605
Ba3   Ba    Ba6+2 0.499980 0.952130 0.155200 1.837213
Ba4   Ba    Ba6+2 0.499980 0.047870 0.655200 1.825562
C21   C     C_3   0.209065 0.530668 0.996342 0.341251
C22   C     C_3   0.207963 0.468624 0.494054 0.315314
C23   C     C_3   0.708900 0.030837 0.994483 0.309660
C24   C     C_3   0.709605 0.968844 0.494791 0.310376
H29   H     H_    0.192449 0.525230 0.117457 0.118417
H30   H     H_    0.191080 0.473776 0.615048 0.122889
H31   H     H_    0.692732 0.025807 0.116083 0.121877
H32   H     H_    0.693345 0.973920 0.616359 0.119387
H33   H     H_    0.179022 0.562727 0.917928 0.075680
H34   H     H_    0.177542 0.437613 0.413948 0.080515
H35   H     H_    0.678434 0.062473 0.915892 0.079798
H36   H     H_    0.679196 0.937158 0.416441 0.077152
C25   C     C_3   0.277268 0.561322 0.006789 0.068951
C26   C     C_3   0.275778 0.436945 0.505053 0.084681
C27   C     C_3   0.777046 0.061493 0.002474 0.088305
C28   C     C_3   0.777995 0.937834 0.502919 0.097932
H37   H     H_    0.272620 0.612370 0.044204 0.037206
H38   H     H_    0.270324 0.385059 0.533343 0.033350
H39   H     H_    0.772412 0.113414 0.032025 0.029669
H40   H     H_    0.773636 0.886860 0.540539 0.033817
H41   H     H_    0.299212 0.560573 0.890611 0.207407
H42   H     H_    0.299652 0.440765 0.391683 0.210251
H43   H     H_    0.799348 0.057391 0.887257 0.210916
H44   H     H_    0.799543 0.938337 0.386274 0.213948
O45   O     O_3   0.924190 0.533610 0.949240 -0.276191
O46   O     O_3   0.924190 0.466390 0.449240 -0.276440
O47   O     O_3   0.424190 0.033610 0.949240 -0.276747
O48   O     O_3   0.424190 0.966390 0.449240 -0.276357
P13   P     P_3+3 0.083182 0.714593 0.880301 0.611810
P14   P     P_3+3 0.085997 0.287114 0.377063 0.610057
P15   P     P_3+3 0.585844 0.212613 0.877423 0.614707
P16   P     P_3+3 0.584834 0.786331 0.377192 0.621834
C29   C     C_3   0.983505 0.214012 0.373835 0.412459
C30   C     C_3   0.977512 0.783933 0.888913 0.396697
C31   C     C_3   0.481862 0.714693 0.392645 0.416817
C32   C     C_3   0.483809 0.286461 0.886630 0.398760
H45   H     H_    0.975007 0.234685 0.490442 0.062807
H46   H     H_    0.974376 0.771774 0.014795 0.041540
H47   H     H_    0.479742 0.732236 0.514508 0.069208
H48   H     H_    0.478751 0.268276 0.006978 0.072561
H49   H     H_    0.902461 0.149178 0.410433 0.205644
H50   H     H_    0.891365 0.844588 0.907340 0.197415
H51   H     H_    0.482217 0.612310 0.446686 0.303749
H52   H     H_    0.402986 0.351958 0.923604 0.211250
H53   H     H_    0.962878 0.085835 0.723329 0.155480
H54   H     H_    0.930073 0.851967 0.203611 0.099293
H55   H     H_    0.449748 0.581997 0.753668 0.172960
H56   H     H_    0.479581 0.420065 0.257067 0.162219
C33   C     C_R   0.243927 0.303105 0.006909 0.498106
C34   C     C_R   0.243901 0.697246 0.507052 0.492673
C35   C     C_R   0.744292 0.803446 0.005098 0.482437
C36   C     C_R   0.744119 0.197005 0.506780 0.494923
C37   C     C_R   0.155734 0.351286 0.815621 0.202099
C38   C     C_R   0.155101 0.649220 0.316893 0.173250
C39   C     C_R   0.655521 0.851313 0.815036 0.203654
C40   C     C_R   0.655987 0.148562 0.315565 0.210646
C41   C     C_R   0.127622 0.348529 0.661157 0.081517
C42   C     C_R   0.126314 0.652496 0.163131 0.090030
C43   C     C_R   0.627166 0.848427 0.660698 0.086854
C44   C     C_R   0.627997 0.151126 0.160934 0.079061
C45   C     C_R   0.136026 0.294574 0.565076 0.156851
C46   C     C_R   0.132546 0.707536 0.069671 0.136455
C47   C     C_R   0.634876 0.794024 0.565309 0.135905
C48   C     C_R   0.636402 0.204839 0.064617 0.160630
C49   C     C_R   0.178492 0.244956 0.616043 -0.201665
C50   C     C_R   0.174056 0.757528 0.121920 -0.226093
C51   C     C_R   0.677250 0.744397 0.616416 -0.179140
C52   C     C_R   0.679107 0.254181 0.114972 -0.195579
C53   C     C_R   0.212440 0.247484 0.763792 0.042760
C54   C     C_R   0.210365 0.753627 0.266473 0.015416
C55   C     C_R   0.712044 0.747485 0.762977 0.019823
C56   C     C_R   0.712871 0.251965 0.262947 0.039217
C57   C     C_R   0.203422 0.301702 0.865030 -0.139695
C58   C     C_R   0.202549 0.698898 0.366395 -0.133279
C59   C     C_R   0.703324 0.801819 0.863976 -0.138214
C60   C     C_R   0.703709 0.198101 0.364734 -0.137684
C61   C     C_R   0.795295 0.698203 0.947316 -0.066581
C62   C     C_R   0.795048 0.302144 0.448758 -0.095095
C63   C     C_R   0.294881 0.197705 0.949661 -0.096231
C64   C     C_R   0.294698 0.802382 0.449209 -0.062576
C65   C     C_R   0.784095 0.750152 0.051992 -0.016693
C66   C     C_R   0.783793 0.250378 0.553655 -0.013508
C67   C     C_R   0.283626 0.249742 0.054175 -0.016892
C68   C     C_R   0.283605 0.750598 0.553972 -0.008352
C69   C     C_R   0.846387 0.651637 0.988603 0.055079
C70   C     C_R   0.846744 0.348145 0.489100 0.024238
C71   C     C_R   0.346737 0.151778 0.989909 0.024935
C72   C     C_R   0.346196 0.848578 0.489691 0.054554
C73   C     C_R   0.882810 0.661185 0.129666 0.030323
C74   C     C_R   0.884662 0.336944 0.627922 0.054041
C75   C     C_R   0.384920 0.163280 0.128285 0.051866
C76   C     C_R   0.383142 0.838635 0.630372 0.025599
C77   C     C_R   0.866171 0.707562 0.239274 0.165077
C78   C     C_R   0.867208 0.291613 0.739471 0.182817
C79   C     C_R   0.367625 0.209131 0.239501 0.172510
C80   C     C_R   0.366225 0.792792 0.740894 0.167216
C81   C     C_R   0.815717 0.750029 0.202809 -0.235508
C82   C     C_R   0.815581 0.250499 0.704385 -0.271043
C83   C     C_R   0.315568 0.249980 0.204713 -0.260913
C84   C     C_R   0.315344 0.750828 0.704719 -0.225641
C85   C     C_R   0.757080 0.697082 0.805254 0.036362
C86   C     C_R   0.757202 0.302812 0.305936 -0.023171
C87   C     C_R   0.256868 0.196633 0.807117 -0.020975
C88   C     C_R   0.255970 0.803602 0.307748 0.039632
H57   H     H_    0.184733 0.203766 0.539805 0.209683
H58   H     H_    0.178967 0.799332 0.047427 0.233138
H59   H     H_    0.683087 0.702962 0.540747 0.222141
H60   H     H_    0.685370 0.295120 0.038399 0.208330
H61   H     H_    0.803510 0.784575 0.292159 0.185739
H62   H     H_    0.803208 0.216342 0.794023 0.179957
H63   H     H_    0.302942 0.284230 0.294363 0.180955
H64   H     H_    0.303295 0.716333 0.793887 0.175062
H65   H     H_    0.762649 0.657382 0.724894 0.208885
H66   H     H_    0.762902 0.342214 0.224905 0.183555
H67   H     H_    0.262503 0.156934 0.726538 0.179625
H68   H     H_    0.261678 0.843001 0.226977 0.205311
Cl1   Cl    Cl    0.681297 0.541659 0.646652 -0.375924
Cl2   Cl    Cl    0.654624 0.484895 0.286088 -0.380848
Cl3   Cl    Cl    0.154579 0.019350 0.790022 -0.374623
Cl4   Cl    Cl    0.185619 0.957978 0.138866 -0.375272
Cl5   Cl    Cl    0.663891 0.426802 0.826792 -0.437705
Cl6   Cl    Cl    0.692382 0.585789 0.077366 -0.427788
Cl7   Cl    Cl    0.190423 0.921930 0.568973 -0.411276
Cl8   Cl    Cl    0.162455 0.070647 0.322771 -0.429916
Cl9   Cl    Cl    0.331600 0.521696 0.144889 -0.556923
Cl10  Cl    Cl    0.327585 0.472380 0.654604 -0.527439
Cl11  Cl    Cl    0.830638 0.025080 0.147402 -0.513028
Cl12  Cl    Cl    0.833241 0.977352 0.638739 -0.535677
Cl13  Cl    Cl    0.082480 0.414878 0.581042 -0.532628
Cl14  Cl    Cl    0.083356 0.585285 0.080942 -0.532786
Cl15  Cl    Cl    0.583177 0.915385 0.579878 -0.533647
Cl16  Cl    Cl    0.583030 0.084771 0.080863 -0.533982
N1    N     N_R   0.944079 0.631094 0.153027 0.251217
O49   O     O_R   0.993424 0.670347 0.161633 -0.477411
O50   O     O_R   0.947321 0.577036 0.229693 -0.292067
N2    N     N_R   0.946593 0.365772 0.650133 0.253018
O51   O     O_R   0.995523 0.325646 0.663083 -0.456305
O52   O     O_R   0.950371 0.420738 0.723125 -0.282521
N3    N     N_R   0.446674 0.133846 0.150796 0.252879
O53   O     O_R   0.495713 0.173508 0.164204 -0.454616
O54   O     O_R   0.450146 0.078951 0.223807 -0.284262
N4    N     N_R   0.444429 0.868602 0.653816 0.248229
O55   O     O_R   0.494174 0.829458 0.663879 -0.453973
O56   O     O_R   0.447208 0.923041 0.729270 -0.296917
Cl17  Cl    Cl    0.264054 0.374686 0.109655 -0.648904
Cl18  Cl    Cl    0.264221 0.625587 0.609313 -0.653278
Cl19  Cl    Cl    0.764568 0.875023 0.107536 -0.651599
Cl20  Cl    Cl    0.763855 0.125590 0.610503 -0.656123
N5    N     N_R   0.043367 0.187452 0.819579 0.244258
O57   O     O_R   0.072019 0.159660 0.704040 -0.390225
O58   O     O_R   0.078526 0.219933 0.923295 -0.325078
N6    N     N_R   0.047414 0.828166 0.494625 0.282829
O59   O     O_R   0.102873 0.797379 0.486461 -0.338006
O60   O     O_R   0.043314 0.876594 0.590763 -0.247954
N7    N     N_R   0.537584 0.690453 0.821212 0.239064
O61   O     O_R   0.565446 0.662478 0.704783 -0.371968
O62   O     O_R   0.573165 0.724821 0.920241 -0.312170
N8    N     N_R   0.539938 0.305647 0.320412 0.238742
O63   O     O_R   0.569603 0.332217 0.205212 -0.400973
O64   O     O_R   0.573433 0.269676 0.420152 -0.329745
N9    N     N_R   0.989749 0.071018 0.961404 0.303995
O65   O     O_R   0.976241 0.010273 0.976297 -0.251066
O66   O     O_R   0.036636 0.096072 0.050486 -0.233513
N10   N     N_R   0.019478 0.902930 0.231732 0.298519
O67   O     O_R   0.058839 0.873613 0.138863 -0.319291
O68   O     O_R   0.031756 0.962043 0.274270 -0.173961
N11   N     N_R   0.511645 0.574042 0.957926 0.305350
O69   O     O_R   0.542576 0.526201 0.895391 -0.195259
O70   O     O_R   0.528983 0.592623 0.099346 -0.251584
N12   N     N_R   0.502075 0.421074 0.500255 0.294617
O71   O     O_R   0.564588 0.408383 0.519111 -0.218476
O72   O     O_R   0.477442 0.467473 0.581930 -0.289159
Cl21  Cl    Cl    0.812770 0.410350 0.890311 -0.664663
Cl22  Cl    Cl    0.783056 0.594847 0.382376 -0.581717
Cl23  Cl    Cl    0.281673 0.904954 0.871142 -0.579674
Cl24  Cl    Cl    0.311168 0.091380 0.389709 -0.669908

loop_
_geom_bond_atom_site_label_1
_geom_bond_atom_site_label_2
_geom_bond_distance
_ccdc_geom_bond_type
C21   H29   1.107337 S    
C84   H64   1.082087 S    
C11   H19   1.107765 S    
P1    O17   1.775988 S    
C86   H66   1.081585 S    
C8    N8    1.460291 S    
P7    O48   1.587943 S    
C14   Cl22  1.776383 S    
C85   H65   1.080057 S    
C30   H46   1.108120 S    
P8    O47   1.584917 S    
C17   Cl1   1.784647 S    
N11   O69   1.300387 A    
O20   C24   1.386847 S    
C35   Cl19  1.763155 S    
C72   C76   1.402122 A    
O22   P13   1.758258 S    
C7    C11   1.540332 S    
C22   H34   1.107738 S    
C34   Cl18  1.764243 S    
C2    H50   1.110512 S    
C21   H33   1.107121 S    
N7    O61   1.300464 A    
C44   Cl16  1.774453 S    
O1    Ba1   2.874103 S    
C82   H62   1.082047 S    
O9    P14   1.764495 S    
C31   H47   1.103549 S    
C48   C52   1.399385 A    
P4    Ba4   3.482242 S    
O22   C30   1.410995 S    
C81   H61   1.082116 S    
P5    O46   1.587943 S    
O3    Ba3   2.874103 S    
C33   C57   1.433321 A    
C37   C41   1.413657 A    
P1    O1    1.564175 D    
O16   P15   1.544771 D    
C23   H35   1.107288 S    
N11   O70   1.299812 A    
P6    O38   1.754511 S    
C9    H53   1.111110 S    
P3    O3    1.564175 D    
C46   C50   1.399352 A    
C3    H7    1.110869 S    
P4    O20   1.777262 S    
C5    N5    1.460752 S    
P10   C77   1.860575 S    
C11   H55   1.112684 S    
N4    O56   1.299797 A    
C53   C57   1.433905 A    
N1    O49   1.293951 A    
O40   C15   1.395469 S    
P9    O29   1.766776 S    
N2    O51   1.296600 A    
C28   H44   1.105128 S    
C10   N10   1.459555 S    
N5    O57   1.300489 A    
C17   H25   1.107821 S    
O11   Ba3   2.852702 S    
C20   Cl4   1.780004 S    
C35   C65   1.416269 A    
C49   H57   1.084045 S    
O28   Ba4   2.878001 S    
C64   C72   1.451900 A    
Ba3   O47   2.841264 S    
P12   O32   1.770556 S    
C76   N4    1.400669 S    
C18   Cl6   1.789751 S    
P3    O19   1.774377 S    
C66   C82   1.412925 A    
Ba2   O45   3.017584 S    
C17   Cl5   1.791112 S    
C80   C84   1.378570 A    
C65   C81   1.412178 A    
O15   P16   1.545883 D    
O18   C22   1.385328 S    
C2    H10   1.105732 S    
O42   C6    1.407726 S    
O23   C31   1.409062 S    
Ba3   Ba4   4.702594 S    
P4    C40   1.898574 S    
O41   C5    1.414643 S    
O13   P14   1.544852 D    
O24   C32   1.407302 S    
P4    O8    1.583709 S    
C3    H11   1.107909 S    
C50   C54   1.410777 A    
C55   C59   1.433647 A    
C56   C86   1.426938 A    
O32   Ba4   2.850873 S    
P4    O4    1.562526 D    
C28   H40   1.111219 S    
C27   H43   1.103795 S    
P9    O41   1.758352 S    
C10   H18   1.113135 S    
C43   Cl15  1.774098 S    
P10   O42   1.750584 S    
P1    C37   1.895130 S    
C38   C42   1.413758 A    
N9    O65   1.299056 A    
C73   N1    1.398278 S    
P14   C45   1.866704 S    
C75   C79   1.398110 A    
C41   Cl13  1.773553 S    
C68   C84   1.412641 A    
C8    C12   1.540703 S    
P2    O2    1.562526 D    
O24   P15   1.756301 S    
C3    H51   1.110682 S    
C6    C10   1.535200 S    
C11   N11   1.461929 S    
O4    Ba4   2.880251 S    
P7    O39   1.753903 S    
C83   H63   1.082131 S    
P5    Ba1   3.485063 S    
C14   H22   1.109007 S    
O38   C13   1.392237 S    
C71   C75   1.403932 A    
N3    O54   1.299729 A    
C16   H24   1.107934 S    
C41   C45   1.401410 A    
O37   C14   1.397255 S    
C7    N7    1.462350 S    
P9    O33   1.545359 D    
O29   Ba1   2.848739 S    
O26   Ba2   2.878001 S    
C39   C59   1.460619 A    
P10   O30   1.769265 S    
C12   H20   1.109742 S    
P7    C72   1.907189 S    
C4    H8    1.105947 S    
P11   O35   1.542563 D    
Ba4   O47   3.017584 S    
O9    Ba1   2.852702 S    
C19   H27   1.100954 S    
P12   O36   1.544796 D    
C25   H41   1.105015 S    
C24   H36   1.107095 S    
N10   O67   1.300331 A    
C43   C47   1.403412 A    
C1    C29   1.521183 S    
N4    O55   1.295405 A    
C18   H26   1.101379 S    
C79   C83   1.376428 A    
C52   H60   1.084003 S    
P2    Ba2   3.482242 S    
C13   H21   1.107960 S    
O31   Ba3   2.848739 S    
C12   N12   1.462826 S    
C50   H58   1.083914 S    
C51   H59   1.083998 S    
C26   H38   1.111177 S    
O14   P13   1.546223 D    
C39   C43   1.414588 A    
C33   C67   1.417034 A    
C25   H37   1.111234 S    
Ba3   O48   3.015864 S    
C40   C60   1.464001 A    
C25   Cl9   1.779178 S    
C34   C68   1.419055 A    
O30   Ba2   2.850873 S    
Ba2   O46   2.843605 S    
C27   H39   1.111231 S    
O10   P13   1.754772 S    
C49   C53   1.410530 A    
C76   C80   1.395296 A    
H1    C29   1.110002 S    
P12   O44   1.761452 S    
P6    O26   1.563215 D    
C9    N9    1.463993 S    
O2    Ba2   2.880251 S    
P1    Ba1   3.478691 S    
P1    O5    1.580716 S    
P15   C48   1.866824 S    
C67   C83   1.412776 A    
C14   C18   1.545491 S    
P8    O40   1.752128 S    
C73   C77   1.392506 A    
C75   N3    1.400316 S    
C34   C58   1.434273 A    
Ba4   O48   2.843605 S    
O5    Ba2   2.841161 S    
P13   C46   1.868841 S    
C54   C58   1.434904 A    
N8    O64   1.300823 A    
C61   C65   1.423306 A    
C5    C9    1.537893 S    
C27   Cl11  1.778802 S    
C74   C78   1.397211 A    
C40   C44   1.413944 A    
N6    O60   1.301229 A    
C26   Cl10  1.777440 S    
C63   C87   1.411390 A    
C42   C46   1.403584 A    
P16   C47   1.868000 S    
P7    Ba3   3.485063 S    
N9    O66   1.301395 A    
P8    C71   1.907789 S    
P5    O37   1.753949 S    
C33   Cl17  1.763862 S    
P10   O34   1.539413 D    
N12   O72   1.300083 A    
C4    H12   1.110680 S    
O12   P15   1.763630 S    
P11   O31   1.766509 S    
P2    O6    1.583709 S    
P8    Ba4   3.481454 S    
C24   H32   1.107259 S    
O39   C16   1.392722 S    
P11   C80   1.871297 S    
C16   C20   1.548522 S    
P6    C69   1.901174 S    
P7    O27   1.561568 D    
O11   P16   1.758582 S    
C88   H68   1.080132 S    
C44   C48   1.401535 A    
C78   C82   1.377130 A    
P5    C70   1.909980 S    
N7    O62   1.300929 A    
C23   C27   1.525228 S    
C22   H30   1.107145 S    
P9    C78   1.876776 S    
C2    C30   1.522984 S    
C5    H13   1.104990 S    
C19   Cl7   1.785293 S    
C63   C71   1.449460 A    
C2    H6    1.106702 S    
Ba1   O45   2.841264 S    
C63   C67   1.424043 A    
C62   C70   1.451856 A    
C4    H52   1.111108 S    
C8    H16   1.108005 S    
C61   C69   1.449048 A    
N6    O59   1.298970 A    
O6    Ba1   2.843505 S    
C20   H28   1.107586 S    
O8    Ba3   2.843505 S    
C51   C55   1.410052 A    
N3    O53   1.296047 A    
P11   O43   1.760062 S    
C24   C28   1.529314 S    
C6    N6    1.460310 S    
C42   Cl14  1.775012 S    
C26   H42   1.104441 S    
O19   C23   1.385257 S    
Ba1   Ba2   4.702594 S    
C55   C85   1.424432 A    
C13   Cl21  1.756248 S    
O23   P16   1.758513 S    
H2    C30   1.111368 S    
C38   C58   1.463145 A    
C19   Cl3   1.784693 S    
C64   C68   1.423998 A    
P12   C79   1.876868 S    
C35   C59   1.433249 A    
P3    C39   1.896353 S    
C36   Cl20  1.763635 S    
C62   C86   1.411534 A    
O21   P14   1.756952 S    
C4    C32   1.519208 S    
C1    H9    1.110010 S    
C16   Cl24  1.755261 S    
C1    H49   1.111106 S    
P2    O18   1.773932 S    
C54   C88   1.426741 A    
P6    O45   1.584917 S    
O43   C7    1.413868 S    
C15   Cl23  1.778498 S    
C12   H56   1.111598 S    
C45   C49   1.399203 A    
C21   C25   1.526492 S    
C70   C74   1.403060 A    
C47   C51   1.398567 A    
O44   C8    1.413526 S    
C69   C73   1.398507 A    
P5    O25   1.561568 D    
P6    Ba2   3.481454 S    
C74   N2    1.400920 S    
C29   H45   1.103188 S    
N2    O52   1.299845 A    
C53   C87   1.425589 A    
C61   C85   1.410074 A    
C28   Cl12  1.778474 S    
H3    C31   1.111773 S    
C1    H5    1.107092 S    
C22   C26   1.524975 S    
H4    C32   1.111493 S    
O17   C21   1.386023 S    
P3    O7    1.580716 S    
N8    O63   1.300276 A    
O12   Ba4   2.850554 S    
C36   C66   1.418951 A    
C64   C88   1.411204 A    
C10   H54   1.109782 S    
O25   Ba1   2.884191 S    
C52   C56   1.410294 A    
P8    O28   1.563215 D    
C15   H23   1.109028 S    
N10   O68   1.300844 A    
O21   C29   1.407116 S    
C6    H14   1.111472 S    
O10   Ba2   2.850554 S    
C13   C17   1.550852 S    
O7    Ba4   2.841161 S    
C77   C81   1.375865 A    
N12   O71   1.300238 A    
Ba1   O46   3.015864 S    
C20   Cl8   1.790626 S    
C23   H31   1.107293 S    
C62   C66   1.425083 A    
O27   Ba3   2.884191 S    
N1    O50   1.299770 A    
C15   C19   1.544252 S    
N5    O58   1.301065 A    
C7    H15   1.107288 S    
C36   C60   1.433318 A    
C37   C57   1.461473 A    
C9    H17   1.107912 S    
C87   H67   1.081424 S    
C56   C60   1.434513 A    
C3    C31   1.521952 S    
P2    C38   1.899741 S    
C18   Cl2   1.783930 S    
C32   H48   1.103599 S    
P3    Ba3   3.478691 S    
