data_mof_unit_30822.cif
_audit_creation_date              2012-12-10T18:46:35-0500
_audit_creation_method            fapswitch 2.2
_symmetry_space_group_name_H-M    P1
_symmetry_Int_Tables_number       1
_space_group_crystal_system       triclinic
_cell_length_a                    19.41754
_cell_length_b                    18.093427
_cell_length_c                    15.089351
_cell_angle_alpha                 90.036783
_cell_angle_beta                  90.103282
_cell_angle_gamma                 90.036406
_cell_volume                      5301.32853076

loop_
_atom_site_label
_atom_site_type_symbol
_atom_type_description
_atom_site_fract_x
_atom_site_fract_y
_atom_site_fract_z
_atom_type_partial_charge
C1    C     C_R   0.367365 0.499998 0.499699 0.819334
C2    C     C_R   0.632633 0.500030 0.500361 0.813965
C3    C     C_R   0.471471 0.632021 0.047691 0.446772
C4    C     C_R   0.546189 0.373627 0.952728 0.449357
C5    C     C_R   0.744699 0.433372 0.502583 -0.190964
C6    C     C_R   0.255697 0.567177 0.496268 -0.184854
C7    C     C_R   0.255202 0.433347 0.501598 -0.184345
C8    C     C_R   0.744385 0.567263 0.500711 -0.187416
C9    C     C_R   0.816989 0.432412 0.502949 0.153231
C10   C     C_R   0.183444 0.568722 0.496182 0.153248
C11   C     C_R   0.182906 0.432419 0.501800 0.153640
C12   C     C_R   0.816640 0.568789 0.501118 0.152162
C13   C     C_R   0.852663 0.500738 0.501911 -0.036656
C14   C     C_R   0.147329 0.500730 0.499266 -0.035605
C15   C     C_R   0.708422 0.500190 0.501172 -0.140780
C16   C     C_R   0.291572 0.500132 0.499179 -0.140295
C17   C     C_R   0.963583 0.499365 0.420478 -0.192831
C18   C     C_R   0.036412 0.502816 0.580751 -0.192108
C19   C     C_R   0.035286 0.499358 0.419806 -0.193869
C20   C     C_R   0.964704 0.502774 0.581424 -0.194935
C21   C     C_R   0.071714 0.501049 0.499943 0.087985
C22   C     C_R   0.928279 0.501015 0.501284 0.088708
C23   C     C_R   0.459399 0.720367 0.441211 0.056080
C24   C     C_R   0.543610 0.279234 0.554595 0.060237
C25   C     C_R   0.540918 0.721120 0.557717 0.028808
C26   C     C_R   0.456366 0.279439 0.445045 0.054047
C27   C     C_R   0.458399 0.798611 0.437970 0.037831
C28   C     C_R   0.545173 0.201019 0.556127 0.050942
C29   C     C_R   0.542391 0.798947 0.558814 0.063962
C30   C     C_R   0.454730 0.201252 0.442822 0.049597
C31   C     C_R   0.500654 0.838736 0.498074 -0.013470
C32   C     C_R   0.500070 0.161469 0.499134 -0.037831
C33   C     C_R   0.499962 0.500002 0.328454 0.814001
C34   C     C_R   0.500565 0.500075 0.671583 0.813129
C35   C     C_R   0.539908 0.961464 0.436505 -0.203202
C36   C     C_R   0.460480 0.038674 0.560219 -0.197848
C37   C     C_R   0.460604 0.960987 0.559936 -0.167028
C38   C     C_R   0.539816 0.039155 0.436830 -0.191003
C39   C     C_R   0.500116 0.078519 0.498702 0.104417
C40   C     C_R   0.500251 0.921616 0.498006 0.109637
C41   C     C_R   0.522068 0.437346 0.814367 -0.200373
C42   C     C_R   0.484784 0.564485 0.185771 -0.202658
C43   C     C_R   0.502348 0.500605 0.768304 -0.099955
C44   C     C_R   0.501112 0.500140 0.231803 -0.099118
C45   C     C_R   0.485277 0.565001 0.814220 -0.215743
C46   C     C_R   0.519677 0.436286 0.185947 -0.215394
C47   C     C_R   0.485965 0.567054 0.907147 0.048065
C48   C     C_R   0.522156 0.435348 0.093051 0.048415
C49   C     C_R   0.505632 0.502077 0.953638 -0.051249
C50   C     C_R   0.505380 0.501278 0.046565 -0.051062
C51   C     C_R   0.524860 0.437491 0.906869 0.004164
C52   C     C_R   0.487340 0.566231 0.093351 0.004011
C53   C     C_R   0.467730 0.632200 0.954394 0.045738
C54   C     C_R   0.541695 0.370676 0.045867 0.045512
Cu1   Cu    Cu3+1 0.500000 0.573360 0.500000 0.928364
Cu2   Cu    Cu3+1 0.500000 0.426640 0.500000 0.930078
H1    H     H_    0.535502 0.387981 0.777565 0.189005
H2    H     H_    0.469403 0.613157 0.222607 0.187150
H3    H     H_    0.570997 0.932296 0.388340 0.131117
H4    H     H_    0.429492 0.067851 0.608482 0.137027
H5    H     H_    0.429692 0.931467 0.607966 0.134053
H6    H     H_    0.570772 0.068698 0.388859 0.131904
H7    H     H_    0.470765 0.612927 0.776008 0.165534
H8    H     H_    0.532857 0.387951 0.224220 0.165691
H9    H     H_    0.715868 0.382302 0.503277 0.170103
H10   H     H_    0.284826 0.618014 0.494076 0.171237
H11   H     H_    0.283963 0.382291 0.503575 0.171022
H12   H     H_    0.715322 0.618132 0.499901 0.170796
H13   H     H_    0.935529 0.497999 0.358387 0.133185
H14   H     H_    0.064470 0.504111 0.642840 0.134375
H15   H     H_    0.062466 0.497973 0.357204 0.134596
H16   H     H_    0.937520 0.504042 0.644026 0.132528
H17   H     H_    0.427992 0.687720 0.396957 0.147176
H18   H     H_    0.577093 0.311568 0.596612 0.144793
H19   H     H_    0.573037 0.690177 0.603151 0.134861
H20   H     H_    0.423016 0.311888 0.403079 0.148886
N1    N     N_R   0.500000 0.683620 0.500000 -0.208277
N2    N     N_R   0.500000 0.316380 0.500000 -0.215411
O1    O     O_R   0.400190 0.561980 0.499990 -0.588531
O2    O     O_R   0.599810 0.438020 0.500010 -0.591890
O3    O     O_R   0.599810 0.561980 0.500010 -0.587342
O4    O     O_R   0.400190 0.438020 0.499990 -0.587546
O5    O     O_R   0.499980 0.561960 0.370260 -0.592743
O6    O     O_R   0.500020 0.438040 0.629740 -0.586598
O7    O     O_R   0.500020 0.561960 0.629740 -0.589863
O8    O     O_R   0.499980 0.438040 0.370260 -0.590460
C55   C     C_3   0.442917 0.701847 0.907293 -0.373628
C56   C     C_3   0.368246 0.693863 0.876641 -0.809600
H21   H     H_    0.361911 0.646475 0.830668 0.246786
H22   H     H_    0.334127 0.685449 0.934790 0.263836
H23   H     H_    0.351994 0.745001 0.841772 0.233521
H24   H     H_    0.445350 0.751075 0.950974 0.242262
H25   H     H_    0.477023 0.715782 0.850856 0.174255
C57   C     C_3   0.557024 0.297890 0.092882 -0.372889
C58   C     C_3   0.490700 0.259830 0.122580 -0.818997
H26   H     H_    0.459923 0.296130 0.166492 0.243939
H27   H     H_    0.458988 0.245009 0.063850 0.264809
H28   H     H_    0.503464 0.208471 0.159349 0.235670
H29   H     H_    0.584750 0.258476 0.049428 0.242695
H30   H     H_    0.592314 0.306711 0.149833 0.174737
O9    O     O_3   0.454317 0.695168 0.094727 -0.586815
C59   C     C_3   0.515354 0.734709 0.113488 -0.402245
H31   H     H_    0.501479 0.786301 0.148958 0.201139
H32   H     H_    0.542927 0.750685 0.051778 0.160107
H33   H     H_    0.550402 0.702657 0.157372 0.171576
O10   O     O_3   0.568359 0.312207 0.906004 -0.583180
C60   C     C_3   0.640166 0.318528 0.893220 -0.409197
H34   H     H_    0.659673 0.265740 0.865705 0.201864
H35   H     H_    0.668266 0.328453 0.956572 0.158689
H36   H     H_    0.652294 0.363101 0.844992 0.172339
C61   C     C_3   0.857677 0.360207 0.504213 -0.380753
C62   C     C_3   0.815222 0.289010 0.507266 -0.879022
H37   H     H_    0.783301 0.287433 0.568205 0.248002
H38   H     H_    0.782037 0.284269 0.447494 0.252300
H39   H     H_    0.850470 0.240713 0.508515 0.247638
H40   H     H_    0.890629 0.357925 0.444134 0.207505
H41   H     H_    0.892119 0.360346 0.563120 0.207675
C63   C     C_3   0.143289 0.641234 0.493058 -0.380901
C64   C     C_3   0.186282 0.712045 0.488901 -0.872971
H42   H     H_    0.219279 0.717272 0.548791 0.252794
H43   H     H_    0.218481 0.712639 0.428146 0.249810
H44   H     H_    0.151383 0.760606 0.486561 0.247307
H45   H     H_    0.109114 0.640506 0.433906 0.208295
H46   H     H_    0.110082 0.644667 0.552830 0.207765
C65   C     C_3   0.142097 0.360280 0.504886 -0.381568
C66   C     C_3   0.184421 0.289016 0.506160 -0.872515
H47   H     H_    0.216197 0.284688 0.445296 0.248670
H48   H     H_    0.217731 0.286936 0.566026 0.254350
H49   H     H_    0.149088 0.240762 0.508067 0.247380
H50   H     H_    0.109170 0.360599 0.565049 0.208019
H51   H     H_    0.107627 0.357915 0.446072 0.208196
C67   C     C_3   0.856888 0.641339 0.500572 -0.376938
C68   C     C_3   0.813979 0.712247 0.500210 -0.885244
H52   H     H_    0.781404 0.715008 0.439715 0.252046
H53   H     H_    0.781338 0.715368 0.560486 0.248349
H54   H     H_    0.848948 0.760836 0.500142 0.247293
H55   H     H_    0.890682 0.642991 0.560060 0.207147
H56   H     H_    0.890484 0.642357 0.441033 0.207806
C69   C     C_3   0.413180 0.840527 0.372393 -0.407487
C70   C     C_3   0.368223 0.793029 0.311463 -0.853473
H57   H     H_    0.400726 0.756850 0.269258 0.272624
H58   H     H_    0.331860 0.759068 0.351003 0.242047
H59   H     H_    0.337612 0.829500 0.267272 0.253343
H60   H     H_    0.378596 0.877988 0.410101 0.216950
H61   H     H_    0.446717 0.875244 0.329739 0.210844
C71   C     C_3   0.593906 0.158387 0.616622 -0.379268
C72   C     C_3   0.639516 0.205343 0.677168 -0.893012
H62   H     H_    0.674250 0.240959 0.637363 0.241941
H63   H     H_    0.607167 0.239867 0.721430 0.272198
H64   H     H_    0.671792 0.168613 0.719027 0.248909
H65   H     H_    0.562958 0.121218 0.659568 0.218559
H66   H     H_    0.627986 0.123338 0.575036 0.211503
C73   C     C_3   0.589620 0.836981 0.624519 -0.410107
C74   C     C_3   0.561235 0.831206 0.718512 -0.848530
H67   H     H_    0.509179 0.856448 0.722073 0.254382
H68   H     H_    0.558109 0.772469 0.739410 0.238132
H69   H     H_    0.595874 0.860953 0.765058 0.242474
H70   H     H_    0.641400 0.810884 0.621962 0.191126
H71   H     H_    0.597249 0.896230 0.608401 0.221450
C75   C     C_3   0.405822 0.158863 0.382143 -0.387925
C76   C     C_3   0.356076 0.205816 0.327305 -0.883745
H72   H     H_    0.322986 0.239733 0.371334 0.246590
H73   H     H_    0.384850 0.242030 0.281014 0.249582
H74   H     H_    0.322283 0.169008 0.287464 0.252580
H75   H     H_    0.436783 0.124814 0.335632 0.210838
H76   H     H_    0.374378 0.120720 0.423268 0.216144

loop_
_geom_bond_atom_site_label_1
_geom_bond_atom_site_label_2
_ccdc_geom_bond_type
C18   H14   S    
Cu1   Cu2   S    
C9    C61   S    
O9    C59   S    
C18   C21   A    
C60   H35   S    
C19   H15   S    
C58   H26   S    
C70   H59   S    
C55   C56   S    
C42   H2    S    
C62   H38   S    
C76   H72   S    
C58   H28   S    
C47   C49   A    
C30   C75   S    
C26   N2    A    
C34   O6    A    
C25   N1    A    
C14   C21   S    
C36   C37   A    
C11   C65   S    
C70   H58   S    
C37   C40   A    
C38   C39   A    
Cu1   N1    S    
C11   C14   A    
O10   C60   S    
C67   H56   S    
Cu2   N2    S    
C31   C40   S    
C59   H33   S    
C35   H3    S    
C32   C39   S    
C73   H70   S    
C9    C13   A    
C63   C64   S    
Cu2   O8    S    
C65   H50   S    
C72   H62   S    
C67   C68   S    
C49   C51   A    
C68   H54   S    
C50   C52   A    
C60   H34   S    
C61   H40   S    
C23   C27   A    
Cu1   O3    S    
C6    C16   A    
C74   H68   S    
C47   C53   A    
C56   H21   S    
C3    O9    S    
C48   C50   A    
C55   H24   S    
C41   C43   A    
C57   C58   S    
C42   C44   A    
C23   H17   S    
C62   H37   S    
C76   H73   S    
C44   C46   A    
Cu2   O6    S    
C45   C47   A    
C25   C29   A    
C69   C70   S    
C46   C48   A    
C72   H63   S    
C5    C15   A    
C4    C51   A    
C27   C31   A    
C28   C32   A    
C35   C38   A    
C70   H57   S    
C74   H69   S    
C5    H9    S    
C10   C14   A    
C48   C54   A    
C66   H49   S    
C67   H55   S    
C4    O10   S    
C45   H7    S    
C27   C69   S    
C46   H8    S    
C25   H19   S    
C34   O7    A    
Cu1   O7    S    
C7    C11   A    
C33   O8    A    
C5    C9    A    
C10   C63   S    
Cu1   O1    S    
C69   H60   S    
C65   H51   S    
C26   H20   S    
C56   H23   S    
C57   H30   S    
C8    C12   A    
C72   H64   S    
C53   C55   S    
C1    C16   S    
C63   H46   S    
C75   H75   S    
C23   N1    A    
C64   H42   S    
C59   H32   S    
C2    C15   S    
C33   O5    A    
C74   H67   S    
C64   H43   S    
C71   H66   S    
C24   N2    A    
C7    C16   A    
C56   H22   S    
C8    H12   S    
C8    C15   A    
C75   H76   S    
C65   C66   S    
C1    O1    A    
C60   H36   S    
Cu1   O5    S    
C76   H74   S    
C73   H71   S    
C29   C73   S    
C71   C72   S    
C64   H44   S    
C17   H13   S    
C69   H61   S    
C66   H48   S    
C12   C67   S    
C61   C62   S    
C4    C54   A    
C33   C44   S    
C36   C39   A    
C34   C43   S    
C24   C28   A    
C20   C22   A    
C36   H4    S    
C6    C10   A    
C37   H5    S    
C3    C52   A    
C58   H27   S    
Cu2   O4    S    
C28   C71   S    
C17   C22   A    
Cu2   O2    S    
C61   H41   S    
C75   C76   S    
C35   C40   A    
C1    O4    A    
C41   H1    S    
C43   C45   A    
C30   C32   A    
C3    C53   A    
C24   H18   S    
C68   H52   S    
C57   H29   S    
C66   H47   S    
C55   H25   S    
C17   C19   A    
C13   C22   S    
C18   C20   A    
C63   H45   S    
C59   H31   S    
C54   C57   S    
C2    O2    A    
C7    H11   S    
C71   H65   S    
C6    H10   S    
C12   C13   A    
C29   C31   A    
C49   C50   A    
C68   H53   S    
C20   H16   S    
C2    O3    A    
C38   H6    S    
C73   C74   S    
C41   C51   A    
C62   H39   S    
C42   C52   A    
C19   C21   A    
C26   C30   A    
