data_mof_unit_8161.cif
_audit_creation_date              2013-03-05T16:33:13-0500
_audit_creation_method            fapswitch 2.2
_symmetry_space_group_name_H-M    P1
_symmetry_Int_Tables_number       1
_space_group_crystal_system       triclinic
_cell_length_a                    27.770593
_cell_length_b                    10.863648
_cell_length_c                    9.54015
_cell_angle_alpha                 89.98016
_cell_angle_beta                  90.141805
_cell_angle_gamma                 90.410241
_cell_volume                      2878.08460238

loop_
_atom_site_label
_atom_site_type_symbol
_atom_site_description
_atom_site_fract_x
_atom_site_fract_y
_atom_site_fract_z
_atom_type_partial_charge
O1    O     O_R   0.500000 0.319640 0.618810 -0.562672
O2    O     O_R   0.500010 0.319680 0.381230 -0.597579
C1    C     C_R   0.500029 0.262703 0.499876 0.812559
O3    O     O_R   0.430260 0.500000 0.618780 -0.583637
O4    O     O_R   0.430270 0.500040 0.381190 -0.585879
C2    C     C_R   0.407409 0.499677 0.499908 0.826618
Cu1   Cu    Cu3+1 0.500000 0.499980 0.640670 1.044516
Cu2   Cu    Cu3+1 0.500000 0.500020 0.359330 0.996336
O5    O     O_R   0.499990 0.680320 0.618770 -0.574354
O6    O     O_R   0.500000 0.680360 0.381190 -0.564797
O7    O     O_R   0.569730 0.499960 0.618810 -0.517165
O8    O     O_R   0.569740 0.500000 0.381220 -0.592085
C3    C     C_R   0.500080 0.737318 0.499844 0.840171
C4    C     C_R   0.592569 0.498901 0.500314 0.847366
C5    C     C_R   0.176536 0.396655 0.469669 0.621047
O9    O     O_2   0.200423 0.293527 0.434229 -0.482391
N1    N     N_R   0.201615 0.501627 0.501591 -0.470928
C6    C     C_R   0.178587 0.609285 0.531372 0.671449
C7    C     C_R   0.278884 0.487326 0.630085 0.465363
C8    C     C_R   0.329243 0.488199 0.627657 -0.237581
C9    C     C_R   0.328364 0.508702 0.374572 -0.178182
C10   C     C_R   0.278195 0.509091 0.376119 -0.137933
C11   C     C_R   0.253237 0.499033 0.503005 0.206449
C12   C     C_R   0.101559 0.502752 0.516221 -0.128371
C13   C     C_R   0.126091 0.395401 0.475623 -0.001055
C14   C     C_R   0.099724 0.290513 0.438189 -0.079749
C15   C     C_R   0.127974 0.612186 0.539145 -0.165870
C16   C     C_R   0.354336 0.498888 0.500437 -0.113414
H1    H     H_    0.346758 0.516926 0.275003 0.186151
H2    H     H_    0.258542 0.517755 0.278465 0.171981
H3    H     H_    0.117393 0.209337 0.397886 0.211192
C17   C     C_R   0.645585 0.495342 0.502034 -0.129840
C18   C     C_R   0.974549 0.384041 0.531363 -0.023477
C19   C     C_R   0.974427 0.608573 0.574536 -0.117323
C20   C     C_R   0.949234 0.496214 0.548727 -0.021544
C21   C     C_R   0.947803 0.271472 0.538970 0.328319
C22   C     C_R   0.898009 0.273305 0.520493 -0.131852
C23   C     C_R   0.872976 0.384219 0.519521 -0.044776
C24   C     C_R   0.898120 0.495183 0.543494 -0.128594
C25   C     C_R   0.872032 0.604483 0.563752 -0.254707
C26   C     C_R   0.821492 0.601422 0.550884 0.696070
N2    N     N_R   0.798204 0.493638 0.519147 -0.463635
C27   C     C_R   0.822677 0.385653 0.506008 0.643470
C28   C     C_R   0.719982 0.450903 0.624752 -0.147414
C29   C     C_R   0.669907 0.451490 0.620770 -0.105097
C30   C     C_R   0.672295 0.535462 0.385761 -0.235109
C31   C     C_R   0.722702 0.533067 0.387653 0.466353
C32   C     C_R   0.746652 0.492231 0.509484 0.187515
O10   O     O_2   0.798333 0.280074 0.480106 -0.473546
C33   C     C_R   0.024932 0.389310 0.508255 0.083055
C34   C     C_R   0.050581 0.500903 0.530982 0.078952
C35   C     C_R   0.025726 0.611032 0.563690 0.002674
C36   C     C_R   0.049909 0.289380 0.449522 -0.100858
H4    H     H_    0.650271 0.416562 0.710261 0.242127
H5    H     H_    0.738263 0.418384 0.717940 0.186438
H6    H     H_    0.878377 0.186728 0.518370 0.244481
H7    H     H_    0.031146 0.210109 0.408487 0.198046
O11   O     O_2   0.204754 0.712533 0.553974 -0.398537
C37   C     C_R   0.103104 0.721437 0.565590 0.655528
H8    H     H_    0.348917 0.480213 0.725285 0.211136
C38   C     C_R   0.946828 0.712714 0.613842 0.530154
C39   C     C_R   0.896849 0.711832 0.602917 0.633550
O12   O     O_2   0.795656 0.704677 0.570493 -0.401438
C40   C     C_R   0.053122 0.721164 0.573095 -0.180479
H9    H     H_    0.653986 0.570414 0.294430 0.206988
H10   H     H_    0.037303 0.810723 0.580378 0.269608
C41   C     C_R   0.497263 0.062002 0.620836 -0.017218
C42   C     C_R   0.500673 0.130140 0.498290 -0.085147
C43   C     C_R   0.504696 0.064732 0.371020 -0.163504
H11   H     H_    0.507635 0.112557 0.271733 0.187817
C44   C     C_R   0.504630 0.935600 0.371037 -0.115150
H12   H     H_    0.507365 0.887994 0.271737 0.221226
C45   C     C_R   0.500701 0.869945 0.498329 -0.086396
C46   C     C_R   0.497337 0.937939 0.620918 -0.036864
C47   C     C_3   0.490404 0.929198 0.775484 0.397810
C48   C     C_3   0.490179 0.070865 0.775230 0.385901
H13   H     H_    0.521193 0.887096 0.831724 0.111738
H14   H     H_    0.455355 0.113016 0.805284 0.103203
C49   C     C_R   0.520062 0.596044 0.074013 0.119139
N3    N     N_R   0.500300 0.500930 0.147930 -0.210227
C50   C     C_R   0.475603 0.412535 0.074272 -0.024573
H15   H     H_    0.456615 0.340370 0.129913 0.142018
C51   C     C_R   0.475471 0.412786 0.925361 0.047443
H16   H     H_    0.456235 0.341156 0.869449 0.128754
N4    N     N_R   0.500310 0.500890 0.852020 -0.160246
C52   C     C_R   0.520615 0.595228 0.926526 0.095908
C53   C     C_3   0.572133 0.635854 0.923423 0.354138
C54   C     C_3   0.571060 0.638327 0.081990 0.359956
H17   H     H_    0.577947 0.726891 0.873096 0.117902
H18   H     H_    0.595315 0.570742 0.132032 0.149038
S1    S     S_3+6 0.248945 0.471582 0.792699 0.043514
O13   O     O_2   0.227381 0.593117 0.832388 -0.236437
O14   O     O_2   0.209508 0.376703 0.780520 -0.247034
O15   O     O_3   0.287925 0.428180 0.918315 -0.540128
H19   H     H_    0.268845 0.426955 0.005915 0.379655
F1    F     F_    0.126634 0.830823 0.579533 -0.564227
F2    F     F_    0.966567 0.813488 0.675101 -0.605441
F3    F     F_    0.872913 0.816264 0.636907 -0.526099
S2    S     S_3+6 0.754670 0.581492 0.237136 0.060006
O16   O     O_2   0.773855 0.709484 0.260915 -0.209273
O17   O     O_2   0.795987 0.496163 0.210115 -0.268388
O18   O     O_3   0.717882 0.581890 0.096735 -0.505985
H20   H     H_    0.738435 0.608741 0.017539 0.395236
F4    F     F_    0.445913 0.879155 0.808817 -0.641529
F5    F     F_    0.530124 0.121042 0.841508 -0.637358
F6    F     F_    0.602447 0.544930 0.875496 -0.646745
F7    F     F_    0.574872 0.756434 0.135241 -0.657760
S3    S     S_3+6 0.970867 0.132710 0.610807 0.058967
O19   O     O_2   0.979359 0.040842 0.495895 -0.239067
O20   O     O_2   0.016948 0.156003 0.689964 -0.261345
O21   O     O_3   0.929628 0.073775 0.721648 -0.428996
H21   H     H_    0.948340 0.031141 0.795383 0.421977

loop_
_geom_bond_atom_site_label_1
_geom_bond_atom_site_label_2
_geom_bond_distance
_ccdc_geom_bond_type
C53   C54   1.513367 S    
C26   N2    1.367282 A    
C48   F5    1.384055 S    
C21   S3    1.778574 S    
C45   C46   1.387178 A    
C20   C24   1.420173 A    
C1    C42   1.440434 S    
C12   C15   1.409337 A    
C50   H15   1.081490 S    
C31   S2    1.768039 S    
Cu1   Cu2   2.684025 S    
Cu1   N4    2.016336 S    
N4    C52   1.365205 A    
Cu1   O7    1.948156 S    
C37   C40   1.390020 A    
N1    C11   1.434074 S    
C21   C22   1.393855 A    
C48   H14   1.111284 S    
O4    C2    1.299742 A    
O7    C4    1.297702 A    
C5    C13   1.402134 A    
C5    O9    1.349639 S    
C18   C21   1.428172 A    
C25   C39   1.400759 A    
S3    O19   1.502961 D    
Cu1   O5    1.970188 S    
C19   C20   1.423792 A    
C17   C29   1.402406 A    
C43   C44   1.402838 A    
O5    C3    1.292355 A    
O18   H20   0.990613 S    
C39   F3    1.358759 S    
C22   H6    1.083909 S    
C6    O11   1.349206 S    
C2    C16   1.473859 S    
C51   H16   1.080911 S    
C42   C43   1.412094 A    
C8    H8    1.082410 S    
C38   C39   1.391567 A    
C12   C34   1.423019 A    
C14   H3    1.083352 S    
C9    C10   1.393360 A    
C43   H11   1.083167 S    
O3    Cu1   1.947438 S    
C49   C54   1.487516 S    
C50   C51   1.420636 A    
C33   C34   1.418130 A    
O2    Cu2   1.970190 S    
C33   C36   1.409519 A    
C46   C47   1.490481 S    
C34   C35   1.420670 A    
C31   C32   1.410728 A    
C12   C13   1.409690 A    
C30   H9    1.078072 S    
O3    C2    1.298151 A    
C35   C40   1.415990 A    
C4    C17   1.473124 S    
S1    O13   1.502668 D    
C44   C45   1.412199 A    
C54   F7    1.383415 S    
C36   H7    1.076654 S    
C52   C53   1.494538 S    
C27   O10   1.349795 S    
C8    C16   1.405383 A    
C18   C33   1.417725 A    
C9    H1    1.083020 S    
C19   C38   1.422011 A    
C41   C42   1.386607 A    
O1    C1    1.292486 A    
C40   H10   1.072733 S    
C7    C11   1.410744 A    
C47   C48   1.539077 S    
C3    C45   1.440860 S    
C22   C23   1.395409 A    
S1    O14   1.502862 D    
S2    O16   1.502566 D    
Cu2   O8    1.947433 S    
N1    C6    1.367261 A    
C41   C46   1.347787 A    
N2    C32   1.434339 S    
C47   H13   1.109653 S    
C25   C26   1.408740 A    
C51   N4    1.368911 A    
C9    C16   1.403619 A    
C54   H18   1.107230 S    
C29   H4    1.081365 S    
C53   H17   1.110167 S    
C47   F4    1.383990 S    
C37   F1    1.358439 S    
C26   O12   1.349209 S    
C14   C36   1.387841 A    
C24   C25   1.409004 A    
C28   C29   1.391111 A    
C5    N1    1.366048 A    
C30   C31   1.400318 A    
C10   H2    1.082976 S    
O21   H21   0.990353 S    
S2    O17   1.503041 D    
O1    Cu1   1.970290 S    
C17   C30   1.403473 A    
C38   F2    1.353073 S    
C6    C15   1.408278 A    
O8    C4    1.299804 A    
N3    C50   1.369305 A    
O6    C3    1.290237 A    
O4    Cu2   1.948158 S    
C19   C35   1.428673 A    
S3    O21   1.683658 S    
C7    C8    1.398696 A    
O2    C1    1.289906 A    
C13   C14   1.396111 A    
C44   H12   1.082560 S    
C15   C37   1.400752 A    
S1    O15   1.682482 S    
C28   H5    1.083068 S    
C23   C24   1.407267 A    
C53   F6    1.381154 S    
C18   C20   1.421143 A    
S3    O20   1.504207 D    
O15   H19   0.990661 S    
C7    S1    1.769584 S    
C49   N3    1.363607 A    
C23   C27   1.402638 A    
S2    O18   1.682598 S    
Cu2   O6    1.970289 S    
N2    C27   1.365925 A    
Cu2   N3    2.016847 S    
C10   C11   1.400238 A    
C41   C48   1.489738 S    
C49   C52   1.407198 A    
C28   C32   1.399392 A    
