data_mof_unit_59725.cif
_audit_creation_date              2013-03-05T16:01:37-0500
_audit_creation_method            fapswitch 2.2
_symmetry_space_group_name_H-M    P1
_symmetry_Int_Tables_number       1
_space_group_crystal_system       triclinic
_cell_length_a                    14.695992
_cell_length_b                    14.525501
_cell_length_c                    23.532924
_cell_angle_alpha                 75.998568
_cell_angle_beta                  102.172131
_cell_angle_gamma                 114.901925
_cell_volume                      4387.06254128

loop_
_atom_site_label
_atom_site_type_symbol
_atom_site_description
_atom_site_fract_x
_atom_site_fract_y
_atom_site_fract_z
_atom_type_partial_charge
O1    O     O_R   0.977900 0.338110 0.520250 -0.545156
O2    O     O_R   0.022100 0.661890 0.479750 -0.547915
O3    O     O_R   0.839850 0.379180 0.494310 -0.590630
O4    O     O_R   0.160150 0.620820 0.505690 -0.584839
C1    C     C_R   0.880487 0.311016 0.509304 0.849727
C2    C     C_R   0.119708 0.689226 0.488588 0.851721
O5    O     O_R   0.069020 0.479430 0.595090 -0.552259
O6    O     O_R   0.930980 0.520570 0.404910 -0.545868
O7    O     O_R   0.930970 0.520500 0.569150 -0.571722
O8    O     O_R   0.069030 0.479500 0.430850 -0.569401
C3    C     C_R   0.002313 0.504383 0.608696 0.862116
C4    C     C_R   0.997424 0.495497 0.391286 0.854074
Cu1   Cu    Cu3+1 0.081740 0.475680 0.515360 1.049153
Cu2   Cu    Cu3+1 0.918260 0.524320 0.484640 1.045446
C5    C     C_R   0.022043 0.583383 0.111756 0.541734
C6    C     C_R   0.973138 0.417217 0.887469 0.542323
N1    N     N_R   0.993914 0.489704 0.148354 -0.459402
N2    N     N_R   0.001645 0.510930 0.850912 -0.459801
C7    C     C_R   0.967266 0.400066 0.127943 0.539548
C8    C     C_R   0.028090 0.600553 0.871298 0.538362
C9    C     C_R   0.968164 0.402398 0.068145 -0.027489
C10   C     C_R   0.026765 0.598182 0.931046 -0.026894
C11   C     C_R   0.996755 0.498136 0.029773 -0.014189
C12   C     C_R   0.998048 0.502432 0.969404 -0.014153
C13   C     C_R   0.024054 0.589592 0.051624 -0.025866
C14   C     C_R   0.970794 0.410980 0.947559 -0.025903
C15   C     C_R   0.941050 0.311704 0.045876 -0.143907
C16   C     C_R   0.053765 0.688865 0.953303 -0.144099
C17   C     C_R   0.942344 0.315952 0.986181 -0.147662
C18   C     C_R   0.052410 0.684610 0.012991 -0.148037
O9    O     O_2   0.047733 0.670001 0.133603 -0.514210
O10   O     O_2   0.947528 0.330601 0.865637 -0.513521
O11   O     O_2   0.939703 0.309223 0.165428 -0.502993
O12   O     O_2   0.055994 0.691427 0.833854 -0.503993
H1    H     H_    0.918775 0.237205 0.074467 0.198216
H2    H     H_    0.076094 0.763368 0.924717 0.198044
H3    H     H_    0.921102 0.244605 0.970445 0.196388
H4    H     H_    0.073661 0.755958 0.028729 0.196303
C19   C     C_R   0.093947 0.521518 0.771657 0.050258
C20   C     C_R   0.903072 0.478609 0.228477 0.048184
C21   C     C_R   0.095148 0.521452 0.711850 0.320260
C22   C     C_R   0.902937 0.478489 0.288443 0.325091
C23   C     C_R   0.007227 0.512843 0.670856 -0.234755
C24   C     C_R   0.991423 0.487093 0.328968 -0.235098
C25   C     C_R   0.922116 0.510952 0.689592 -0.176675
C26   C     C_R   0.076070 0.489844 0.309445 -0.178983
H5    H     H_    0.856391 0.507686 0.658089 0.253164
H6    H     H_    0.142017 0.493631 0.340505 0.260494
C27   C     C_R   0.920124 0.511601 0.748539 0.149297
C28   C     C_R   0.077278 0.489722 0.250325 0.155374
C29   C     C_R   0.005510 0.515156 0.789861 0.305823
C30   C     C_R   0.991145 0.485533 0.209549 0.306384
C31   C     C_R   0.813343 0.200484 0.513670 -0.214493
C32   C     C_R   0.186825 0.800144 0.476565 -0.213888
C33   C     C_R   0.775119 0.016880 0.547949 0.283060
C34   C     C_R   0.219009 0.980982 0.434851 0.283677
C35   C     C_R   0.844438 0.120458 0.544824 0.260253
C36   C     C_R   0.150749 0.877482 0.446616 0.265890
C37   C     C_R   0.712979 0.175713 0.488612 -0.222986
C38   C     C_R   0.291039 0.827363 0.490672 -0.227422
C39   C     C_R   0.639818 0.075596 0.499472 0.020481
C40   C     C_R   0.360576 0.928205 0.474433 0.020277
C41   C     C_R   0.673551 0.994029 0.520829 -0.152107
C42   C     C_R   0.323967 0.007754 0.454160 -0.159240
C43   C     C_R   0.534406 0.054558 0.486853 0.021632
C44   C     C_R   0.466232 0.951872 0.482356 0.017545
C45   C     C_R   0.506208 0.876525 0.485086 0.036068
C46   C     C_R   0.494054 0.130942 0.481376 0.070694
C47   C     C_R   0.607006 0.894271 0.510012 0.360575
C48   C     C_R   0.391814 0.110219 0.458556 0.352372
H7    H     H_    0.318347 0.769063 0.515513 0.211177
H8    H     H_    0.691859 0.235865 0.460277 0.220287
N3    N     N_R   0.795430 0.560810 0.461550 -0.216961
N4    N     N_R   0.204570 0.439190 0.538450 -0.220713
C49   C     C_R   0.713327 0.665948 0.398359 0.078755
C50   C     C_R   0.289229 0.344322 0.610183 0.086270
C51   C     C_R   0.797393 0.639815 0.416819 0.202772
C52   C     C_R   0.204648 0.368804 0.587770 0.214414
C53   C     C_R   0.714957 0.510007 0.492884 0.085051
C54   C     C_R   0.285043 0.485736 0.507390 0.091670
C55   C     C_R   0.627752 0.534202 0.477616 -0.020972
C56   C     C_R   0.368935 0.456001 0.522405 -0.031537
C57   C     C_R   0.622448 0.602472 0.423891 0.108818
C58   C     C_R   0.372759 0.385844 0.576285 0.105822
C59   C     C_R   0.543932 0.487668 0.511561 -0.052114
C60   C     C_R   0.450346 0.496893 0.486574 -0.055357
C61   C     C_R   0.440538 0.543630 0.426156 0.354072
C62   C     C_R   0.550936 0.432210 0.569764 0.307308
C63   C     C_R   0.525873 0.596724 0.395066 0.046514
C64   C     C_R   0.462087 0.365499 0.595313 0.077104
H9    H     H_    0.283496 0.548208 0.472172 0.163125
H10   H     H_    0.718316 0.447838 0.528055 0.159457
H11   H     H_    0.139747 0.336140 0.611799 0.169858
H12   H     H_    0.865201 0.682913 0.395622 0.180771
N5    N     N_R   0.806057 0.936803 0.583127 0.184778
O13   O     O_R   0.889498 0.932082 0.576303 -0.202407
O14   O     O_R   0.754527 0.872937 0.625172 -0.273974
N6    N     N_R   0.181636 0.056612 0.399886 0.187183
O15   O     O_R   0.219062 0.110705 0.351310 -0.276773
O16   O     O_R   0.105479 0.066316 0.413955 -0.204090
C65   C     C_3   0.449879 0.785609 0.452831 -0.739140
H13   H     H_    0.424507 0.712738 0.484912 0.232391
H14   H     H_    0.384355 0.793091 0.421634 0.246168
H15   H     H_    0.500238 0.781250 0.425272 0.246476
C66   C     C_3   0.550963 0.227475 0.508812 -0.799647
H16   H     H_    0.610758 0.219609 0.544897 0.237112
H17   H     H_    0.582202 0.295609 0.474450 0.245868
H18   H     H_    0.499263 0.242074 0.530105 0.246639
C67   C     C_3   0.508332 0.626445 0.328350 -0.705349
H19   H     H_    0.441026 0.565519 0.309199 0.265525
H20   H     H_    0.496830 0.699869 0.316502 0.242382
H21   H     H_    0.570721 0.632718 0.306311 0.233272
C68   C     C_3   0.463015 0.268966 0.637545 -0.734841
H22   H     H_    0.521540 0.245538 0.630077 0.253948
H23   H     H_    0.477921 0.280071 0.684078 0.253057
H24   H     H_    0.391791 0.202438 0.628662 0.237770
C69   C     C_3   0.728307 0.767140 0.357184 -0.718790
H25   H     H_    0.798779 0.828373 0.373572 0.292496
H26   H     H_    0.735661 0.761308 0.312327 0.234090
H27   H     H_    0.666287 0.792581 0.355338 0.241454
C70   C     C_3   0.289879 0.285796 0.672813 -0.739770
H28   H     H_    0.226698 0.280091 0.694211 0.254150
H29   H     H_    0.279478 0.205362 0.674075 0.246426
H30   H     H_    0.360022 0.327245 0.700336 0.246262
N7    N     N_R   0.342550 0.525362 0.393323 0.070031
O17   O     O_R   0.320282 0.602538 0.363094 -0.441309
O18   O     O_R   0.277972 0.431308 0.390858 -0.307941
N8    N     N_R   0.646222 0.459684 0.607126 0.091485
O19   O     O_R   0.703264 0.556557 0.607766 -0.304060
O20   O     O_R   0.673770 0.390076 0.643182 -0.426648
C71   C     C_3   0.187998 0.530581 0.815112 -0.669583
H31   H     H_    0.204903 0.461307 0.819862 0.256829
H32   H     H_    0.253007 0.600273 0.799054 0.252184
H33   H     H_    0.180831 0.537359 0.859700 0.210319
C72   C     C_3   0.808334 0.469415 0.185656 -0.673048
H34   H     H_    0.790831 0.538072 0.181782 0.257002
H35   H     H_    0.814962 0.463776 0.140706 0.211653
H36   H     H_    0.743937 0.399076 0.201778 0.250761
N9    N     N_R   0.187353 0.535846 0.692546 0.135846
O21   O     O_R   0.227228 0.467653 0.712287 -0.374932
O22   O     O_R   0.232914 0.618706 0.656198 -0.337508
N10   N     N_R   0.811359 0.464624 0.308269 0.137797
O23   O     O_R   0.774192 0.535234 0.290762 -0.364818
O24   O     O_R   0.764941 0.381053 0.343898 -0.351886
C73   C     C_3   0.826484 0.507272 0.767483 -0.677004
H37   H     H_    0.796298 0.436868 0.800748 0.227456
H38   H     H_    0.844918 0.576216 0.787099 0.242449
H39   H     H_    0.766269 0.505646 0.729832 0.279957
C74   C     C_3   0.170931 0.495425 0.230667 -0.694104
H40   H     H_    0.153009 0.426490 0.211166 0.246023
H41   H     H_    0.199759 0.565751 0.197126 0.226527
H42   H     H_    0.232047 0.498335 0.267936 0.269994
N11   N     N_R   0.644520 0.815452 0.515006 0.150867
O25   O     O_R   0.600065 0.723956 0.544682 -0.306059
O26   O     O_R   0.715441 0.831538 0.484318 -0.315774
N12   N     N_R   0.355116 0.190690 0.449945 0.154244
O27   O     O_R   0.296098 0.185981 0.485683 -0.308184
O28   O     O_R   0.395055 0.276331 0.413985 -0.296583
N13   N     N_R   0.045454 0.852041 0.426595 0.130446
O29   O     O_R   0.984952 0.840063 0.463408 -0.278872
O30   O     O_R   0.014591 0.861467 0.370267 -0.344190
N14   N     N_R   0.945071 0.143363 0.574541 0.141007
O31   O     O_R   0.017556 0.157492 0.545657 -0.272297
O32   O     O_R   0.961363 0.135979 0.631655 -0.330784

loop_
_geom_bond_atom_site_label_1
_geom_bond_atom_site_label_2
_geom_bond_distance
_ccdc_geom_bond_type
C72   H36   1.110413 S    
C19   C29   1.412690 A    
C65   H13   1.108615 S    
C15   C17   1.394966 A    
C62   C64   1.410317 A    
N5    O13   1.301273 A    
C49   C69   1.508693 S    
C34   N6    1.437239 S    
C71   H33   1.107747 S    
N8    O19   1.301739 A    
C50   C58   1.436547 A    
C73   H37   1.110160 S    
C31   C37   1.393427 A    
C72   H34   1.109601 S    
C19   C21   1.411504 A    
C32   C38   1.396881 A    
C59   C60   1.425236 A    
O5    C3    1.297184 A    
C66   H17   1.109419 S    
C22   C24   1.419143 A    
O1    C1    1.299907 A    
C50   C70   1.513160 S    
C1    C31   1.480105 S    
N12   O27   1.301565 A    
C7    C9    1.402141 A    
C50   C52   1.398115 A    
N14   O31   1.301003 A    
C36   N13   1.431184 S    
C74   H41   1.110132 S    
C5    C13   1.401809 A    
C52   H11   1.082161 S    
C63   C67   1.520813 S    
C51   H12   1.080251 S    
C18   H4    1.083122 S    
C38   C40   1.403273 A    
C64   C68   1.513316 S    
O4    Cu1   1.912290 S    
C39   C41   1.415464 A    
C70   H30   1.108648 S    
C40   C42   1.414483 A    
C67   H20   1.109878 S    
C55   C57   1.415902 A    
N12   O28   1.301272 A    
C35   N14   1.431438 S    
C41   C47   1.414579 A    
C27   C29   1.406421 A    
C33   C41   1.424435 A    
C22   N10   1.435464 S    
C28   C30   1.406390 A    
C11   C12   1.410684 A    
N13   O30   1.300970 A    
C3    C23   1.481573 S    
C42   C48   1.414683 A    
N11   O26   1.301204 A    
C67   H19   1.110192 S    
C37   H8    1.078690 S    
C68   H24   1.107615 S    
C8    O12   1.349335 S    
C20   C22   1.411166 A    
C44   C45   1.427800 A    
C9    C15   1.404572 A    
C65   H14   1.108809 S    
N4    C54   1.357217 A    
Cu1   Cu2   2.691410 S    
C21   C23   1.418606 A    
O2    C2    1.301170 A    
C58   C64   1.423365 A    
C2    C32   1.485788 S    
N1    C30   1.435139 S    
C73   H38   1.109894 S    
C24   C26   1.396561 A    
N2    C29   1.435260 S    
N14   O32   1.300558 A    
C25   H5    1.077625 S    
C9    C11   1.409304 A    
C6    C14   1.401773 A    
C57   C63   1.415290 A    
C20   C72   1.512807 S    
C26   H6    1.073499 S    
C37   C39   1.398376 A    
C70   H29   1.106344 S    
C40   C44   1.422425 A    
Cu2   N3    2.021720 S    
O4    C2    1.305929 A    
C7    O11   1.349341 S    
C69   H27   1.108302 S    
C53   C55   1.420920 A    
C31   C35   1.411112 A    
C60   C61   1.425529 A    
C38   H7    1.080569 S    
C15   H1    1.083104 S    
C56   C60   1.442155 A    
C47   N11   1.437917 S    
C45   C47   1.410681 A    
O7    Cu2   1.947263 S    
O7    C3    1.307657 A    
N13   O29   1.301150 A    
C25   C27   1.396044 A    
O6    C4    1.294956 A    
C43   C46   1.432469 A    
C34   C42   1.421870 A    
N3    C53   1.362497 A    
C27   C73   1.506227 S    
C33   C35   1.412122 A    
C66   H18   1.104966 S    
C23   C25   1.399079 A    
C70   H28   1.111195 S    
O3    Cu2   1.912289 S    
O8    C4    1.310073 A    
C74   H42   1.109722 S    
C33   N5    1.437252 S    
C8    C10   1.402171 A    
N6    O15   1.301246 A    
C65   H15   1.110892 S    
C56   C58   1.429081 A    
C61   C63   1.414993 A    
N7    O17   1.301805 A    
C72   H35   1.107805 S    
C10   C12   1.409296 A    
C67   H21   1.106894 S    
O1    Cu1   1.931287 S    
C46   C66   1.518315 S    
C71   H31   1.109556 S    
C61   N7    1.431552 S    
C73   H39   1.109322 S    
C45   C65   1.518177 S    
C53   H10   1.077770 S    
C68   H22   1.107076 S    
C32   C36   1.414450 A    
C59   C62   1.418467 A    
C13   C18   1.404762 A    
C5    N1    1.368801 A    
O6    Cu2   1.940174 S    
C6    N2    1.368804 A    
C12   C14   1.408853 A    
O3    C1    1.304423 A    
O8    Cu1   1.947265 S    
N8    O20   1.300338 A    
N9    O21   1.300669 A    
N5    O14   1.301270 A    
C5    O9    1.349446 S    
C6    O10   1.349458 S    
C66   H16   1.108740 S    
C26   C28   1.395546 A    
N6    O16   1.301455 A    
C54   H9    1.075324 S    
C69   H26   1.110096 S    
C62   N8    1.439859 S    
C20   C30   1.412665 A    
C74   H40   1.109915 S    
N9    O22   1.301270 A    
C28   C74   1.506352 S    
C49   C57   1.424137 A    
C19   C71   1.513059 S    
C16   C18   1.394988 A    
N1    C7    1.368677 A    
C54   C56   1.422077 A    
C34   C36   1.410250 A    
N2    C8    1.368734 A    
C11   C13   1.408860 A    
O2    Cu2   1.931287 S    
C55   C59   1.436972 A    
C21   N9    1.435703 S    
C39   C43   1.425707 A    
O5    Cu1   1.940172 S    
Cu1   N4    2.021719 S    
C16   H2    1.083105 S    
C14   C17   1.404761 A    
C4    C24   1.482043 S    
C43   C44   1.418787 A    
N4    C52   1.348563 A    
C49   C51   1.395667 A    
C17   H3    1.083115 S    
N7    O18   1.301440 A    
C46   C48   1.411959 A    
N3    C51   1.351387 A    
N10   O23   1.300940 A    
C48   N12   1.438177 S    
C10   C16   1.404588 A    
C71   H32   1.110404 S    
N11   O25   1.301130 A    
C69   H25   1.110960 S    
N10   O24   1.301255 A    
C68   H23   1.108011 S    
