data_mof_unit_22680.cif
_audit_creation_date              2012-10-26T21:00:38-0400
_audit_creation_method            fapswitch 2.2
_symmetry_space_group_name_H-M    P1
_symmetry_Int_Tables_number       1
_space_group_crystal_system       triclinic
_cell_length_a                    10.792873
_cell_length_b                    9.516981
_cell_length_c                    10.938083
_cell_angle_alpha                 89.989515
_cell_angle_beta                  90.279642
_cell_angle_gamma                 90.003367
_cell_volume                      1123.49799803

loop_
_atom_site_label
_atom_site_type_symbol
_atom_type_description
_atom_site_fract_x
_atom_site_fract_y
_atom_site_fract_z
_atom_type_partial_charge
C1    C     C_R   0.262357 0.499957 0.503787 0.528465
C2    C     C_R   0.507329 0.500221 0.737883 0.555785
C3    C     C_R   0.439428 0.757055 0.112145 -0.068469
C4    C     C_R   0.558396 0.757575 0.888062 -0.063304
C5    C     C_R   0.465239 0.883956 0.054330 -0.114453
C6    C     C_R   0.531988 0.884221 0.945976 -0.108982
C7    C     C_R   0.518959 0.628446 0.938899 -0.027231
C8    C     C_R   0.479493 0.628286 0.061186 -0.026061
C9    C     C_R   0.484759 0.500383 0.127650 -0.006776
C10   C     C_R   0.514261 0.500497 0.872410 -0.007014
C11   C     C_R   0.499581 0.372511 0.064038 0.208414
C12   C     C_R   0.737690 0.499947 0.503821 0.531534
C13   C     C_R   0.499174 0.372590 0.935973 0.212236
C14   C     C_R   0.063664 0.402382 0.440718 -0.179241
C15   C     C_R   0.935785 0.402373 0.440724 -0.176160
C16   C     C_R   0.871440 0.499406 0.512133 -0.030878
C17   C     C_R   0.128708 0.499472 0.512083 -0.031593
C18   C     C_R   0.935900 0.594257 0.589255 0.291181
C19   C     C_R   0.065011 0.594384 0.589168 0.291388
C20   C     C_R   0.412373 0.074455 0.435952 0.044351
C21   C     C_R   0.587584 0.074437 0.564098 0.041325
C22   C     C_R   0.411925 0.925688 0.436599 0.030149
C23   C     C_R   0.588018 0.925679 0.563471 0.022311
C24   C     C_R   0.492354 0.500198 0.262154 0.573975
Cu1   Cu    Cu3+1 0.500000 0.640660 0.500000 0.951510
Cu2   Cu    Cu3+1 0.500000 0.359340 0.500000 1.010343
H1    H     H_    0.385291 0.761158 0.194639 0.129970
H2    H     H_    0.659060 0.869921 0.613695 0.129126
H3    H     H_    0.565955 0.183785 0.078184 0.327998
H4    H     H_    0.431945 0.184317 0.921642 0.329326
H5    H     H_    0.795238 0.643947 0.691208 0.308246
H6    H     H_    0.206981 0.645128 0.690576 0.331089
H7    H     H_    0.612521 0.762327 0.805637 0.133262
H8    H     H_    0.436111 0.981560 0.095664 0.136973
H9    H     H_    0.560728 0.982026 0.904721 0.140441
H10   H     H_    0.112041 0.328741 0.382321 0.142800
H11   H     H_    0.886840 0.328744 0.382319 0.154643
H12   H     H_    0.342317 0.130456 0.384360 0.121426
H13   H     H_    0.657603 0.130418 0.615735 0.132395
H14   H     H_    0.340807 0.869911 0.386467 0.107977
N1    N     N_R   0.500000 0.852070 0.500000 -0.228710
N2    N     N_R   0.500000 0.147940 0.500000 -0.224318
O1    O     O_R   0.319640 0.618740 0.499990 -0.502727
O2    O     O_3   0.484647 0.248114 0.872578 -0.697071
O3    O     O_3   0.876955 0.683761 0.669701 -0.650818
O4    O     O_3   0.124713 0.684269 0.669367 -0.630184
O5    O     O_R   0.680360 0.618740 0.500010 -0.498438
O6    O     O_R   0.319620 0.381170 0.499990 -0.509709
O7    O     O_R   0.680380 0.381170 0.500010 -0.513617
O8    O     O_R   0.500000 0.618810 0.319650 -0.523174
O9    O     O_R   0.500000 0.618810 0.680350 -0.537607
O10   O     O_R   0.499970 0.381240 0.319640 -0.431079
O11   O     O_R   0.500030 0.381240 0.680360 -0.428485
O12   O     O_3   0.513739 0.247919 0.127391 -0.702536

loop_
_geom_bond_atom_site_label_1
_geom_bond_atom_site_label_2
_ccdc_geom_bond_type
C24   O10   A    
C7    C10   A    
C20   N2    A    
Cu1   O9    S    
C1    O6    A    
Cu1   O8    S    
Cu2   O10   S    
C20   H12   S    
Cu1   O5    S    
C1    C17   S    
C21   H13   S    
Cu2   O6    S    
C22   H14   S    
C5    H8    S    
Cu1   O1    S    
C3    H1    S    
C12   O7    A    
C19   O4    S    
C18   O3    S    
C7    C8    A    
C9    C24   S    
C10   C13   A    
C23   H2    S    
C24   O8    A    
C9    C11   A    
C14   C17   A    
H4    O2    S    
C11   O12   S    
C4    C7    A    
C15   C16   A    
C4    C6    A    
C17   C19   A    
C20   C22   A    
C3    C8    A    
C12   O5    A    
C21   C23   A    
C14   H10   S    
C5    C6    A    
C22   N1    A    
H3    O12   S    
H5    O3    S    
C21   N2    A    
C2    C10   S    
Cu2   O11   S    
C11   C13   A    
C6    H9    S    
Cu2   N2    S    
C16   C18   A    
C18   C19   A    
C2    O9    A    
Cu2   O7    S    
Cu1   N1    S    
C4    H7    S    
C15   H11   S    
Cu1   Cu2   S    
C14   C15   A    
H6    O4    S    
C1    O1    A    
C13   O2    S    
C12   C16   S    
C8    C9    A    
C3    C5    A    
C2    O11   A    
C23   N1    A    
