data_mof_unit_6369.cif
_audit_creation_date              2012-12-10T17:04:29-0500
_audit_creation_method            fapswitch 2.2
_symmetry_space_group_name_H-M    P1
_symmetry_Int_Tables_number       1
_space_group_crystal_system       triclinic
_cell_length_a                    14.925225
_cell_length_b                    10.600921
_cell_length_c                    10.038201
_cell_angle_alpha                 89.107568
_cell_angle_beta                  90.172135
_cell_angle_gamma                 90.146662
_cell_volume                      1588.05067662

loop_
_atom_site_label
_atom_site_type_symbol
_atom_type_description
_atom_site_fract_x
_atom_site_fract_y
_atom_site_fract_z
_atom_type_partial_charge
C1    C     C_R   0.509287 0.263111 0.501133 0.912722
C2    C     C_R   0.186558 0.381971 0.501338 0.104300
C3    C     C_R   0.231685 0.499030 0.498975 -0.067777
C4    C     C_R   0.327286 0.499607 0.499786 0.915677
C5    C     C_R   0.186420 0.615541 0.494179 0.086209
C6    C     C_2   0.561449 0.929673 0.413908 -0.183466
C7    C     C_2   0.502517 0.871234 0.494103 -0.364205
C8    C     C_2   0.563205 0.067625 0.402771 0.278234
C9    C     C_2   0.531911 0.132172 0.507059 -0.432250
C10   C     C_2   0.548645 0.576438 0.923963 -0.117188
C11   C     C_2   0.551401 0.572824 0.074049 -0.124091
C12   C     C_R   0.905239 0.613370 0.491896 0.153797
C13   C     C_R   0.500418 0.737855 0.498808 0.919363
C14   C     C_R   0.672575 0.500146 0.500121 0.863748
C15   C     C_R   0.812620 0.613322 0.493789 -0.264241
C16   C     C_R   0.767242 0.499307 0.499976 -0.046053
C17   C     C_R   0.811328 0.384319 0.502640 -0.256738
C18   C     C_R   0.904440 0.381650 0.498455 0.091342
C19   C     C_R   0.952053 0.497465 0.494812 0.036605
C20   C     C_3   0.625290 0.057821 0.173408 -0.804224
C21   C     C_3   0.876251 0.106351 0.371365 -0.817821
C22   C     C_3   0.237887 0.257745 0.505955 -0.900092
C23   C     C_R   0.950666 0.266401 0.499632 0.204826
C24   C     C_3   0.237357 0.740426 0.491565 -0.904127
C25   C     C_R   0.043885 0.267366 0.501389 -0.272288
C26   C     C_R   0.092529 0.381616 0.499340 0.073744
C27   C     C_R   0.045951 0.497870 0.495130 -0.041497
C28   C     C_R   0.092523 0.614818 0.492174 0.120518
C29   C     C_R   0.043792 0.728687 0.487694 -0.195406
C30   C     C_R   0.951211 0.727645 0.487637 -0.233076
H1    H     H_    0.775593 0.701390 0.491026 0.125429
H2    H     H_    0.076077 0.820074 0.484765 0.156171
H3    H     H_    0.915491 0.816580 0.484987 0.146765
H4    H     H_    0.606965 0.874467 0.353979 0.158806
H5    H     H_    0.636773 0.208383 0.304160 0.235165
H6    H     H_    0.640108 0.122018 0.087785 0.244915
H7    H     H_    0.571409 0.991834 0.142550 0.254220
H8    H     H_    0.687245 0.004879 0.199308 0.225845
H9    H     H_    0.936153 0.078683 0.555369 0.222186
H10   H     H_    0.935895 0.084753 0.309801 0.244366
H11   H     H_    0.835067 0.179225 0.319450 0.254971
H12   H     H_    0.453711 0.919435 0.554647 0.144881
H13   H     H_    0.835035 0.019504 0.382666 0.234338
H14   H     H_    0.311637 0.268150 0.507741 0.237284
H15   H     H_    0.219478 0.203330 0.597289 0.236444
H16   H     H_    0.221335 0.201800 0.416530 0.239894
H17   H     H_    0.311046 0.730898 0.494061 0.232929
H18   H     H_    0.220707 0.794086 0.398924 0.240698
H19   H     H_    0.218779 0.796676 0.579651 0.236279
H20   H     H_    0.522755 0.087168 0.603994 0.148551
H21   H     H_    0.590383 0.645982 0.873446 0.162027
H22   H     H_    0.464077 0.431936 0.898699 0.166349
H23   H     H_    0.598147 0.635733 0.122821 0.157474
H24   H     H_    0.454103 0.445181 0.102957 0.171105
H25   H     H_    0.772297 0.297958 0.507909 0.161706
H26   H     H_    0.077180 0.176904 0.503343 0.159438
N1    N     N_2   0.500970 0.501330 0.852150 -0.189856
N2    N     N_2   0.500990 0.501360 0.147810 -0.188302
N3    N     N_2   0.596436 0.131372 0.285618 -0.266613
N4    N     N_2   0.903993 0.148891 0.501452 -0.312564
O1    O     O_R   0.499990 0.319060 0.613040 -0.616664
O2    O     O_R   0.500010 0.319100 0.386900 -0.594235
O3    O     O_R   0.367830 0.499950 0.613080 -0.608399
O4    O     O_R   0.367860 0.499990 0.386940 -0.607295
O5    O     O_R   0.499990 0.680900 0.613100 -0.610765
O6    O     O_R   0.500010 0.680940 0.386960 -0.605208
O7    O     O_R   0.632140 0.500010 0.613060 -0.609689
O8    O     O_R   0.632170 0.500050 0.386920 -0.624390
Zn1   Zn    Zn3+2 0.499980 0.499970 0.650990 0.948754
Zn2   Zn    Zn3+2 0.500020 0.500030 0.349010 0.950446

loop_
_geom_bond_atom_site_label_1
_geom_bond_atom_site_label_2
_ccdc_geom_bond_type
C2    C22   S    
C14   O7    A    
C25   H26   S    
C15   H1    S    
C6    C7    D    
O4    Zn2   S    
C9    H20   S    
C5    C28   A    
C20   H8    S    
C4    O4    A    
C11   H23   S    
C12   C15   A    
C3    C5    A    
C27   C28   A    
C12   C30   A    
C1    O2    A    
C10   N1    D    
C2    C3    A    
C1    C9    S    
C2    C26   A    
C13   O5    A    
C20   N3    S    
C20   H7    S    
C21   H10   S    
C4    O3    A    
C26   C27   A    
C29   C30   A    
C5    C24   S    
C21   H11   S    
H9    N4    S    
C12   C19   A    
H5    N3    S    
C28   C29   A    
C22   H16   S    
C17   C18   A    
C29   H2    S    
C13   O6    A    
C23   C25   A    
C8    N3    S    
H24   N2    S    
C23   N4    S    
C14   C16   S    
C6    H4    S    
H22   N1    S    
C10   H21   S    
C18   C23   A    
C11   N2    D    
O3    Zn1   S    
C7    C13   S    
C22   H15   S    
C19   C27   A    
O6    Zn2   S    
O2    Zn2   S    
C21   N4    S    
O8    Zn2   S    
C18   C19   A    
C10   C11   S    
C7    H12   S    
O1    Zn1   S    
C24   H19   S    
O5    Zn1   S    
C17   H25   S    
N2    Zn2   S    
C20   H6    S    
C6    C8    S    
C30   H3    S    
N1    Zn1   S    
C25   C26   A    
C21   H13   S    
C24   H17   S    
C14   O8    A    
C22   H14   S    
C3    C4    S    
C15   C16   A    
C16   C17   A    
C1    O1    A    
C8    C9    D    
O7    Zn1   S    
C24   H18   S    
