data_mof_unit_49450.cif
_audit_creation_date              2012-12-10T20:34:53-0500
_audit_creation_method            fapswitch 2.2
_symmetry_space_group_name_H-M    P1
_symmetry_Int_Tables_number       1
_space_group_crystal_system       triclinic
_cell_length_a                    10.613704
_cell_length_b                    10.678827
_cell_length_c                    9.894266
_cell_angle_alpha                 89.359539
_cell_angle_beta                  89.868693
_cell_angle_gamma                 92.062793
_cell_volume                      1120.63419278

loop_
_atom_site_label
_atom_site_type_symbol
_atom_type_description
_atom_site_fract_x
_atom_site_fract_y
_atom_site_fract_z
_atom_type_partial_charge
C1    C     C_R   0.493669 0.260224 0.501178 0.887120
C2    C     C_3   0.878216 0.487227 0.498981 0.112411
C3    C     C_3   0.933035 0.619871 0.527817 -0.364191
C4    C     C_3   0.926518 0.443568 0.359427 -0.391927
C5    C     C_R   0.514477 0.063771 0.621747 0.095433
C6    C     C_R   0.475981 0.128148 0.506844 -0.065612
C7    C     C_R   0.421539 0.062757 0.398489 -0.123310
C8    C     C_R   0.429030 0.933476 0.395098 -0.180061
C9    C     C_R   0.491227 0.872095 0.500092 -0.079922
C10   C     C_R   0.527994 0.937499 0.615178 0.076496
C11   C     C_3   0.651616 0.944976 0.688448 -0.011560
C12   C     C_R   0.257885 0.492656 0.500009 0.854856
C13   C     C_3   0.631110 0.083676 0.704043 -0.492011
C14   C     C_R   0.414198 0.427732 0.071582 0.043996
C15   C     C_R   0.577617 0.580411 0.069136 0.181485
C16   C     C_R   0.578022 0.579042 0.925796 -0.155381
C17   C     C_R   0.410655 0.431218 0.929543 0.121361
C18   C     C_3   0.381888 0.294030 0.918617 -0.523211
C19   C     C_3   0.393574 0.287433 0.072082 0.345131
C20   C     C_R   0.500941 0.740092 0.499417 0.920832
C21   C     C_R   0.741760 0.492782 0.499759 0.864219
C22   C     C_3   0.067963 0.393232 0.609536 -0.000721
C23   C     C_3   0.922915 0.394002 0.608783 -0.415354
C24   C     C_3   0.076893 0.619611 0.531152 -0.441070
C25   C     C_3   0.070256 0.447518 0.358221 -0.373306
C26   C     C_3   0.121277 0.486859 0.499562 0.113558
H1    H     H_    0.101214 0.423810 0.711020 0.147322
H2    H     H_    0.893505 0.505330 0.276428 0.207360
H3    H     H_    0.116253 0.688890 0.455807 0.191609
H4    H     H_    0.903186 0.685093 0.446544 0.223164
H5    H     H_    0.378123 0.111299 0.315387 0.197674
H6    H     H_    0.390497 0.882685 0.309543 0.174610
H7    H     H_    0.649393 0.892185 0.785947 0.160560
H8    H     H_    0.610209 0.108765 0.810079 0.190165
H9    H     H_    0.702598 0.146906 0.653521 0.215018
H10   H     H_    0.642818 0.640558 0.869642 0.166050
H11   H     H_    0.283983 0.274802 0.882845 0.188203
H12   H     H_    0.453908 0.243512 0.862159 0.229991
H13   H     H_    0.302628 0.259115 0.121489 0.087797
H14   H     H_    0.881848 0.298811 0.588699 0.195710
H15   H     H_    0.889414 0.421524 0.710573 0.172861
H16   H     H_    0.110672 0.649596 0.632682 0.190611
H17   H     H_    0.897439 0.653334 0.626492 0.200118
H18   H     H_    0.103879 0.516098 0.279245 0.187892
H19   H     H_    0.104829 0.354408 0.329342 0.192247
H20   H     H_    0.889976 0.346618 0.338780 0.182868
N1    N     N_R   0.499150 0.499140 0.142800 -0.127874
N2    N     N_R   0.499150 0.499180 0.857150 -0.108637
O1    O     O_R   0.500020 0.316790 0.614690 -0.621770
O2    O     O_R   0.500000 0.316760 0.385350 -0.595772
O3    O     O_R   0.314800 0.500000 0.614670 -0.615256
O4    O     O_R   0.314790 0.499960 0.385330 -0.633800
O5    O     O_R   0.500000 0.683240 0.614650 -0.620151
O6    O     O_R   0.499980 0.683210 0.385310 -0.586638
O7    O     O_R   0.685210 0.500040 0.614670 -0.629434
O8    O     O_R   0.685200 0.500000 0.385330 -0.610090
Zn1   Zn    Zn3+2 0.500010 0.500020 0.653130 0.951755
Zn2   Zn    Zn3+2 0.499990 0.499980 0.346870 0.976419
I1    I     I_    0.811773 0.919583 0.560874 -0.391851
I2    I     I_    0.706229 0.709948 0.159396 -0.370061
I3    I     I_    0.132516 0.204829 0.587915 -0.427861
O9    O     O_3   0.492931 0.211235 0.118849 -0.587785
C27   C     C_3   0.616873 0.255159 0.085981 -0.207336
H21   H     H_    0.653285 0.319942 0.164740 0.192048
H22   H     H_    0.625963 0.300037 0.984702 0.131353
H23   H     H_    0.678875 0.173751 0.086161 0.181651

loop_
_geom_bond_atom_site_label_1
_geom_bond_atom_site_label_2
_ccdc_geom_bond_type
C21   O8    A    
C2    C4    S    
C27   H22   S    
C6    C7    A    
O3    Zn1   S    
C11   H7    S    
C25   H19   S    
C3    H4    S    
C24   H16   S    
C1    O2    A    
C9    C20   S    
C5    C13   S    
C23   H15   S    
C17   N2    A    
C15   N1    A    
C16   N2    A    
C2    C21   S    
C17   C18   S    
C18   H12   S    
C27   H23   S    
N2    Zn1   S    
C4    H20   S    
C16   H10   S    
N1    Zn2   S    
C11   C13   S    
C14   C17   A    
C3    H17   S    
C3    C24   S    
C14   N1    A    
C19   H13   S    
C11   I1    S    
C15   C16   A    
C25   H18   S    
C5    C10   A    
C4    H2    S    
C18   H11   S    
O8    Zn2   S    
C13   H9    S    
C2    C3    S    
C22   H1    S    
O7    Zn1   S    
O6    Zn2   S    
C5    C6    A    
O4    Zn2   S    
C7    H5    S    
C10   C11   S    
C19   O9    S    
C22   C26   S    
C23   H14   S    
C8    H6    S    
C4    C25   S    
C7    C8    A    
C12   O3    A    
O1    Zn1   S    
C20   O6    A    
C18   C19   S    
C9    C10   A    
C12   C26   S    
C2    C23   S    
C21   O7    A    
O5    Zn1   S    
C22   C23   S    
C20   O5    A    
C13   H8    S    
C1    C6    S    
C12   O4    A    
C25   C26   S    
C24   H3    S    
C1    O1    A    
C14   C19   S    
C15   I2    S    
O9    C27   S    
C27   H21   S    
C24   C26   S    
C8    C9    A    
C22   I3    S    
O2    Zn2   S    
