data_mof_unit_48355.cif
_audit_creation_date              2013-03-05T15:42:51-0500
_audit_creation_method            fapswitch 2.2
_symmetry_space_group_name_H-M    P1
_symmetry_Int_Tables_number       1
_space_group_crystal_system       triclinic
_cell_length_a                    28.423116
_cell_length_b                    17.365895
_cell_length_c                    18.212687
_cell_angle_alpha                 90.602761
_cell_angle_beta                  138.718825
_cell_angle_gamma                 89.336824
_cell_volume                      5930.54616745

loop_
_atom_site_label
_atom_site_type_symbol
_atom_site_description
_atom_site_fract_x
_atom_site_fract_y
_atom_site_fract_z
_atom_type_partial_charge
C1    C     C_R   0.666964 0.922321 0.817553 0.731161
C2    C     C_R   0.332501 0.077948 0.182246 0.731769
C3    C     C_R   0.312026 0.896984 0.199280 0.807824
C4    C     C_R   0.688123 0.103257 0.799693 0.824390
C5    C     C_R   0.188119 0.395962 0.799728 0.814730
C6    C     C_R   0.812009 0.603681 0.199471 0.814726
C7    C     C_R   0.833840 0.422156 0.182810 0.739159
C8    C     C_R   0.165639 0.577087 0.817056 0.734348
N1    N     N_R   0.625380 0.928280 0.709340 -0.120095
N2    N     N_R   0.374620 0.071720 0.290660 -0.120690
N3    N     N_R   0.374620 0.928280 0.290660 -0.146963
N4    N     N_R   0.625380 0.071720 0.709340 -0.147725
N5    N     N_R   0.125380 0.428280 0.709340 -0.152281
N6    N     N_R   0.874620 0.571720 0.290660 -0.150724
N7    N     N_R   0.874620 0.428280 0.290660 -0.113976
N8    N     N_R   0.125380 0.571720 0.709340 -0.119819
C9    C     C_R   0.344123 0.085065 0.461205 -0.050728
C10   C     C_R   0.657053 0.913314 0.541399 -0.056966
C11   C     C_R   0.669631 0.097446 0.576655 -0.059538
C12   C     C_R   0.323792 0.899566 0.396820 -0.045387
C13   C     C_R   0.823458 0.602047 0.395021 -0.093448
C14   C     C_R   0.176238 0.398545 0.603033 -0.042511
C15   C     C_R   0.157092 0.584375 0.541477 -0.049731
C16   C     C_R   0.871575 0.439571 0.506795 -0.088880
H1    H     H_    0.298092 0.051743 0.422607 0.203522
H2    H     H_    0.704410 0.944675 0.582549 0.175487
H3    H     H_    0.720561 0.068945 0.629392 0.154244
H4    H     H_    0.275281 0.931872 0.332524 0.230031
H5    H     H_    0.775125 0.569748 0.331246 0.251698
H6    H     H_    0.224550 0.430853 0.666465 0.231160
H7    H     H_    0.203744 0.550839 0.581469 0.203288
H8    H     H_    0.830180 0.476724 0.480204 0.179179
N9    N     N_R   0.386100 0.070250 0.452470 -0.095628
N10   N     N_R   0.613900 0.929750 0.547530 -0.090373
N11   N     N_R   0.613900 0.070250 0.547530 -0.087147
N12   N     N_R   0.386100 0.929750 0.452470 -0.098707
N13   N     N_R   0.886100 0.570250 0.452470 -0.108680
N14   N     N_R   0.113900 0.429750 0.547530 -0.099035
N15   N     N_R   0.113900 0.570250 0.547530 -0.096208
N16   N     N_R   0.886100 0.429750 0.452470 -0.055509
C17   C     C_R   0.402782 0.804293 0.483142 0.310884
C18   C     C_R   0.588099 0.192495 0.490769 0.324716
C19   C     C_R   0.573995 0.820430 0.450605 0.370596
C20   C     C_R   0.426530 0.178930 0.550547 0.369566
C21   C     C_R   0.949846 0.342734 0.589448 0.370860
C22   C     C_R   0.074334 0.678805 0.451613 0.369311
C23   C     C_R   0.097680 0.303736 0.517672 0.315002
C24   C     C_R   0.902252 0.696336 0.482096 0.314124
N17   N     N_R   0.437800 0.869550 0.507970 -0.107790
N18   N     N_R   0.562200 0.130450 0.492030 -0.106369
N19   N     N_R   0.562200 0.869550 0.492030 -0.108858
N20   N     N_R   0.437800 0.130450 0.507970 -0.107597
N21   N     N_R   0.937800 0.369550 0.507970 -0.072125
N22   N     N_R   0.062200 0.630450 0.492030 -0.107031
N23   N     N_R   0.062200 0.369550 0.492030 -0.110367
N24   N     N_R   0.937800 0.630450 0.507970 -0.109907
C25   C     C_R   0.605506 0.193865 0.712581 -0.161760
C26   C     C_R   0.394732 0.806426 0.286423 -0.155040
C27   C     C_R   0.416542 0.167477 0.272567 -0.135988
C28   C     C_R   0.582678 0.832816 0.726717 -0.159551
C29   C     C_R   0.081439 0.667780 0.725884 -0.162166
C30   C     C_R   0.918187 0.331432 0.274286 -0.145495
C31   C     C_R   0.894638 0.693402 0.286644 -0.160699
C32   C     C_R   0.105631 0.306158 0.712234 -0.178448
H9    H     H_    0.583036 0.250735 0.682609 0.225648
H10   H     H_    0.416918 0.749426 0.316097 0.232447
H11   H     H_    0.446319 0.216774 0.289958 0.186278
H12   H     H_    0.552042 0.783899 0.708055 0.190304
H13   H     H_    0.051136 0.717834 0.707174 0.192263
H14   H     H_    0.948592 0.281313 0.293469 0.189598
H15   H     H_    0.917199 0.750062 0.315674 0.232459
H16   H     H_    0.082392 0.249647 0.682836 0.234316
N25   N     N_R   0.573690 0.128980 0.653840 -0.105316
N26   N     N_R   0.426310 0.871020 0.346160 -0.105725
N27   N     N_R   0.426310 0.128980 0.346160 -0.073965
N28   N     N_R   0.573690 0.871020 0.653840 -0.072138
N29   N     N_R   0.073690 0.628980 0.653840 -0.072087
N30   N     N_R   0.926310 0.371020 0.346160 -0.069600
N31   N     N_R   0.926310 0.628980 0.346160 -0.107180
N32   N     N_R   0.073690 0.371020 0.653840 -0.120042
C33   C     C_R   0.640752 0.863926 0.829850 -0.169447
C34   C     C_R   0.358423 0.136363 0.169630 -0.162494
C35   C     C_R   0.323986 0.821821 0.194796 -0.190075
C36   C     C_R   0.676360 0.178657 0.803462 -0.172878
C37   C     C_R   0.176391 0.320757 0.803143 -0.172717
C38   C     C_R   0.823928 0.678554 0.195255 -0.190446
C39   C     C_R   0.860371 0.362549 0.171061 -0.174602
C40   C     C_R   0.138803 0.636078 0.829040 -0.165652
C41   C     C_R   0.369155 0.152187 0.524189 0.050785
C42   C     C_R   0.631987 0.846380 0.478298 0.055971
C43   C     C_R   0.653381 0.172152 0.540131 0.093231
C44   C     C_R   0.330170 0.820433 0.407079 -0.012719
C45   C     C_R   0.829522 0.681217 0.404327 -0.009687
C46   C     C_R   0.170330 0.319224 0.594415 -0.020803
C47   C     C_R   0.132672 0.651563 0.480048 0.050966
C48   C     C_R   0.910460 0.386819 0.592348 0.046806
Ni1   Ni    Ni4+2 0.616560 0.000000 0.627280 0.282889
Ni2   Ni    Ni4+2 0.383440 0.000000 0.372720 0.279006
Ni3   Ni    Ni4+2 0.116560 0.500000 0.627280 0.273358
Ni4   Ni    Ni4+2 0.883440 0.500000 0.372720 0.304682
Ni5   Ni    Ni4+2 0.497990 0.870580 0.500000 0.295227
Ni6   Ni    Ni4+2 0.502010 0.129420 0.500000 0.301199
Ni7   Ni    Ni4+2 0.997990 0.370580 0.500000 0.313348
Ni8   Ni    Ni4+2 0.002010 0.629420 0.500000 0.293166
C49   C     C_3   0.708722 0.309752 0.905062 -0.086032
C50   C     C_3   0.292479 0.693157 0.090199 -0.060091
C51   C     C_3   0.337528 0.253971 0.055253 -0.099650
C52   C     C_3   0.662179 0.745843 0.944376 -0.108552
C53   C     C_3   0.161103 0.755077 0.945820 -0.114313
C54   C     C_3   0.837358 0.240838 0.058014 -0.124475
C55   C     C_3   0.793348 0.806893 0.092517 -0.058803
C56   C     C_3   0.206469 0.192565 0.905780 -0.058647
C57   C     C_3   0.207439 0.730107 0.066405 -0.076945
C58   C     C_3   0.796663 0.264674 0.940013 -0.028122
C59   C     C_3   0.749382 0.780853 0.974186 -0.120689
C60   C     C_3   0.249564 0.218928 0.023587 -0.112632
C61   C     C_3   0.748885 0.285115 0.021594 -0.078439
C62   C     C_3   0.246813 0.718954 0.971352 -0.119283
C63   C     C_3   0.293817 0.228388 0.935834 -0.063780
C64   C     C_3   0.706774 0.771094 0.064348 -0.074597
H17   H     H_    0.192852 0.736279 0.108121 0.159955
H18   H     H_    0.815286 0.254555 0.904810 0.239740
H19   H     H_    0.766429 0.785206 0.935961 0.177774
H20   H     H_    0.231851 0.214687 0.060826 0.185280
H21   H     H_    0.729724 0.293696 0.056358 0.191860
H22   H     H_    0.262532 0.714108 0.931100 0.180397
H23   H     H_    0.310557 0.233832 0.897327 0.162115
H24   H     H_    0.690726 0.765510 0.103859 0.160042
H25   H     H_    0.655398 0.337794 0.841699 0.195203
H26   H     H_    0.346936 0.668100 0.149951 0.196615
H27   H     H_    0.392104 0.278314 0.117722 0.183440
H28   H     H_    0.607540 0.721713 0.882375 0.177563
H29   H     H_    0.106348 0.779432 0.885201 0.174576
H30   H     H_    0.890903 0.213313 0.121844 0.183954
H31   H     H_    0.847673 0.831777 0.153687 0.194799
H32   H     H_    0.152198 0.167483 0.844043 0.193108
C65   C     C_3   0.271618 0.768284 0.105217 0.149090
C66   C     C_3   0.728562 0.231771 0.893657 0.125361
C67   C     C_3   0.683869 0.820414 0.931546 0.125712
C68   C     C_3   0.315542 0.179475 0.067717 0.118345
C69   C     C_3   0.817290 0.318724 0.069320 0.129511
C70   C     C_3   0.182247 0.680069 0.930937 0.124804
C71   C     C_3   0.228162 0.267249 0.893218 0.144179
C72   C     C_3   0.771939 0.732158 0.105452 0.152606
C73   C     C_3   0.777773 0.343972 0.953716 -0.099863
C74   C     C_3   0.227391 0.653692 0.049073 -0.068666
C75   C     C_3   0.271114 0.293481 0.010638 -0.125949
C76   C     C_3   0.728125 0.706233 0.987524 -0.119617
C77   C     C_3   0.226081 0.793985 0.986727 -0.113736
C78   C     C_3   0.768577 0.207233 0.009773 -0.128595
C79   C     C_3   0.727254 0.847057 0.049083 -0.078092
C80   C     C_3   0.273060 0.152489 0.950744 -0.075975
H33   H     H_    0.783076 0.401034 0.933660 0.182590
H34   H     H_    0.226439 0.595193 0.071895 0.185049
H35   H     H_    0.269477 0.352029 0.033815 0.186802
H36   H     H_    0.729371 0.647752 0.963726 0.181715
H37   H     H_    0.226489 0.852230 0.962604 0.183751
H38   H     H_    0.763899 0.150444 0.031310 0.182904
H39   H     H_    0.725479 0.905782 0.071604 0.182371
H40   H     H_    0.275259 0.093681 0.928939 0.182150
C81   C     C_R   0.659635 0.810479 0.443905 -0.372338
C82   C     C_R   0.341373 0.188409 0.558151 -0.380455
C83   C     C_R   0.268441 0.768487 0.342195 -0.332097
C84   C     C_R   0.691202 0.214782 0.533205 -0.355434
C85   C     C_R   0.232829 0.266658 0.664149 -0.332565
C86   C     C_R   0.767268 0.734033 0.335687 -0.333945
C87   C     C_R   0.875193 0.352028 0.610558 -0.344911
C88   C     C_R   0.162590 0.688254 0.451002 -0.379601
C89   C     C_R   0.330556 0.305201 0.617649 0.265564
C90   C     C_R   0.669056 0.694461 0.381396 0.275202
C91   C     C_R   0.706422 0.247871 0.425634 0.293491
C92   C     C_R   0.238260 0.642856 0.354135 0.246068
C93   C     C_R   0.736705 0.859241 0.351175 0.240406
C94   C     C_R   0.264213 0.141059 0.650989 0.246338
C95   C     C_R   0.175665 0.806307 0.399429 0.263226
C96   C     C_R   0.854462 0.332415 0.714258 0.269490
C97   C     C_R   0.339870 0.268861 0.561376 0.694733
C98   C     C_R   0.660023 0.730093 0.438397 0.674333
C99   C     C_R   0.667609 0.211869 0.433385 0.653312
C100  C     C_R   0.274917 0.688041 0.345772 0.625505
C101  C     C_R   0.774283 0.814384 0.343033 0.626593
C102  C     C_R   0.226211 0.186268 0.658045 0.623230
C103  C     C_R   0.165375 0.768657 0.452869 0.690396
C104  C     C_R   0.894350 0.365804 0.705570 0.692311
C105  C     C_R   0.320261 0.143473 0.593138 0.850153
C106  C     C_R   0.681326 0.855866 0.410078 0.834873
C107  C     C_R   0.750020 0.256172 0.625018 0.872432
C108  C     C_R   0.210507 0.798440 0.312925 0.811203
C109  C     C_R   0.707238 0.705046 0.300046 0.813940
C110  C     C_R   0.292859 0.295548 0.699744 0.817062
C111  C     C_R   0.183703 0.644085 0.414507 0.852708
C112  C     C_R   0.816708 0.308129 0.522352 0.843931
C113  C     C_R   0.300029 0.179864 0.635321 -0.374214
C114  C     C_R   0.700914 0.820038 0.366639 -0.373554
C115  C     C_R   0.792089 0.290910 0.621808 -0.390659
C116  C     C_R   0.193602 0.762339 0.357729 -0.398823
C117  C     C_R   0.688998 0.739673 0.344579 -0.402610
C118  C     C_R   0.311264 0.260420 0.655741 -0.399620
C119  C     C_R   0.203964 0.681388 0.373709 -0.379036
C120  C     C_R   0.771168 0.283137 0.522085 -0.399685
F1    F     F_    0.730784 0.956867 0.901895 -0.654668
F2    F     F_    0.268464 0.043763 0.098168 -0.652002
F3    F     F_    0.247793 0.925379 0.145524 -0.628703
F4    F     F_    0.752109 0.074355 0.852986 -0.628552
F5    F     F_    0.252314 0.423895 0.854259 -0.620816
F6    F     F_    0.747684 0.576158 0.144872 -0.615508
F7    F     F_    0.769916 0.456931 0.098056 -0.649459
F8    F     F_    0.229624 0.542416 0.901833 -0.651875
N33   N     N_R   0.740446 0.941679 0.353096 0.300369
O1    O     O_R   0.800765 0.975320 0.410180 -0.218837
O2    O     O_R   0.681934 0.982290 0.283844 -0.250929
N34   N     N_R   0.260699 0.058643 0.650019 0.307395
O3    O     O_R   0.200414 0.024946 0.593009 -0.180638
O4    O     O_R   0.319328 0.018273 0.720272 -0.269941
N35   N     N_R   0.177316 0.889016 0.401998 0.311790
O5    O     O_R   0.125803 0.927929 0.372565 -0.204205
O6    O     O_R   0.235371 0.924656 0.451630 -0.284006
N36   N     N_R   0.878289 0.340396 0.816627 0.298383
O7    O     O_R   0.886681 0.408732 0.855001 -0.285024
O8    O     O_R   0.905415 0.281139 0.881736 -0.296795
N37   N     N_R   0.330601 0.387898 0.620556 0.312895
O9    O     O_R   0.272640 0.425138 0.570405 -0.296965
O10   O     O_R   0.383429 0.425526 0.653971 -0.203753
N38   N     N_R   0.667845 0.611824 0.376175 0.310960
O11   O     O_R   0.614060 0.574775 0.340420 -0.214026
O12   O     O_R   0.725503 0.573813 0.426383 -0.360499
N39   N     N_R   0.678076 0.251145 0.319177 0.307682
O13   O     O_R   0.654208 0.189077 0.259213 -0.221233
O14   O     O_R   0.666412 0.317615 0.275268 -0.262373
N40   N     N_R   0.241825 0.560469 0.352736 0.307395
O15   O     O_R   0.302268 0.526229 0.409569 -0.181131
O16   O     O_R   0.183225 0.520810 0.280875 -0.259204
N41   N     N_R   0.434651 0.729506 0.515407 0.258723
O17   O     O_R   0.427019 0.681646 0.560322 -0.311040
O18   O     O_R   0.483147 0.715484 0.522895 -0.336638
N42   N     N_R   0.563594 0.269644 0.476316 0.228367
O19   O     O_R   0.590933 0.327508 0.473634 -0.320142
O20   O     O_R   0.516468 0.282948 0.472037 -0.358229
N43   N     N_R   0.534622 0.751549 0.391722 0.239303
O21   O     O_R   0.505008 0.738882 0.293430 -0.383056
O22   O     O_R   0.537052 0.696723 0.442620 -0.252296
N44   N     N_R   0.465269 0.248362 0.608087 0.239868
O23   O     O_R   0.463036 0.302308 0.556500 -0.251163
O24   O     O_R   0.494720 0.262088 0.706075 -0.378354
N45   N     N_R   0.971275 0.264836 0.627994 0.227792
O25   O     O_R   0.997618 0.245839 0.722298 -0.367132
O26   O     O_R   0.957172 0.211227 0.563259 -0.275547
N46   N     N_R   0.035586 0.748451 0.394067 0.236552
O27   O     O_R   0.037113 0.803105 0.445184 -0.242784
O28   O     O_R   0.008124 0.762077 0.297664 -0.388971
N47   N     N_R   0.066448 0.229254 0.487788 0.258128
O29   O     O_R   0.073544 0.179482 0.442694 -0.305781
O30   O     O_R   0.018523 0.217361 0.481725 -0.337440
N48   N     N_R   0.933859 0.770758 0.514285 0.258720
O31   O     O_R   0.982399 0.783435 0.521966 -0.333947
O32   O     O_R   0.926235 0.819516 0.559525 -0.321616
F9    F     F_    0.685892 0.933400 0.424140 -0.643422
F10   F     F_    0.317039 0.065799 0.581608 -0.622206
F11   F     F_    0.180814 0.867613 0.261778 -0.643036
F12   F     F_    0.764975 0.260983 0.715413 -0.673697
F13   F     F_    0.322767 0.363465 0.755227 -0.631337
F14   F     F_    0.677128 0.637415 0.243773 -0.625276
F15   F     F_    0.805434 0.289947 0.437044 -0.625183
F16   F     F_    0.186142 0.566193 0.422210 -0.619596
F17   F     F_    0.655668 0.685706 0.494061 -0.593385
F18   F     F_    0.343442 0.312527 0.504245 -0.576356
F19   F     F_    0.314048 0.654272 0.337394 -0.618187
F20   F     F_    0.606283 0.174545 0.343575 -0.625517
F21   F     F_    0.186263 0.152586 0.663909 -0.616741
F22   F     F_    0.814501 0.848369 0.337877 -0.613397
F23   F     F_    0.952851 0.408517 0.790424 -0.614078
F24   F     F_    0.161268 0.810753 0.511224 -0.580608

loop_
_geom_bond_atom_site_label_1
_geom_bond_atom_site_label_2
_geom_bond_distance
_ccdc_geom_bond_type
C36   C66   1.444741 S    
C26   C35   1.361343 A    
C80   H40   1.109900 S    
C54   C69   1.532944 S    
C3    F3    1.355618 S    
C52   C64   1.550272 S    
C53   C77   1.540399 S    
N43   O21   1.301110 A    
C10   H2    1.078091 S    
C27   C34   1.371222 A    
C56   C60   1.534881 S    
N7    Ni4   1.803511 S    
C72   C76   1.529435 S    
C84   C107  1.381541 A    
C49   C61   1.535260 S    
N38   O11   1.301078 A    
C37   C71   1.446472 S    
C98   F17   1.358124 S    
C20   N44   1.426298 S    
N47   O29   1.300863 A    
C31   N31   1.331371 A    
C66   C78   1.529766 S    
N9    N20   1.433491 A    
C71   C75   1.529614 S    
C87   C112  1.383903 A    
C12   C44   1.380205 A    
N20   Ni6   1.936374 S    
N10   N19   1.433490 A    
N48   O31   1.299131 A    
C88   C111  1.402976 A    
C18   N42   1.435144 S    
C90   C98   1.382003 A    
N3    Ni2   1.803511 S    
C94   N34   1.434872 S    
C85   C102  1.402884 A    
N13   Ni4   1.844846 S    
C56   C71   1.533414 S    
C95   C103  1.380569 A    
N15   N22   1.424162 A    
C111  C119  1.401868 A    
C82   C105  1.403959 A    
C115  C120  1.429666 A    
C107  C115  1.385522 A    
N35   O6    1.301176 A    
N17   Ni5   1.822685 S    
C67   C79   1.530394 S    
C19   N19   1.330124 A    
C4    F4    1.355609 S    
N7    N30   1.387211 A    
C92   C100  1.408696 A    
C106  F9    1.357280 S    
C1    C33   1.380797 A    
C113  C118  1.420625 A    
C14   N14   1.323743 A    
N23   Ni7   1.936372 S    
C63   C80   1.557353 S    
N10   Ni1   1.844847 S    
C63   C71   1.531416 S    
N42   O19   1.300806 A    
C30   H14   1.077796 S    
C92   C119  1.423828 A    
C96   C104  1.390475 A    
N9    Ni2   1.844846 S    
C14   C46   1.382549 A    
N12   Ni2   1.863801 S    
C25   N25   1.332726 A    
C51   C68   1.534191 S    
C8    F8    1.351982 S    
C70   C74   1.530811 S    
C82   C97   1.399241 A    
N48   O32   1.300850 A    
C3    N3    1.335526 A    
C27   H11   1.075976 S    
C49   C66   1.532171 S    
C17   N17   1.348426 A    
N13   N24   1.433491 A    
N15   Ni3   1.863800 S    
C26   H10   1.074308 S    
C89   N37   1.436497 S    
N14   N23   1.433490 A    
C87   C104  1.387887 A    
C29   N29   1.332163 A    
C64   C79   1.557264 S    
C64   C72   1.531639 S    
C95   C116  1.407293 A    
C112  C120  1.366500 A    
N27   Ni6   1.849099 S    
C34   C68   1.448862 S    
C56   C80   1.545730 S    
C57   H17   1.109644 S    
C53   C70   1.533196 S    
N1    N28   1.396313 A    
C4    N4    1.334613 A    
C75   H35   1.110643 S    
N41   O17   1.300835 A    
C68   C80   1.530378 S    
C5    N5    1.337582 A    
C24   N24   1.349468 A    
C110  C118  1.378598 A    
C53   C57   1.550937 S    
C5    C37   1.365134 A    
C99   F20   1.361111 S    
C20   N20   1.328938 A    
C7    N7    1.337780 A    
N5    N32   1.396313 A    
C93   C101  1.409242 A    
C8    N8    1.338441 A    
C96   N36   1.432795 S    
N45   O25   1.301060 A    
C47   C88   1.450763 S    
C62   H22   1.110963 S    
C32   N32   1.332066 A    
C109  C117  1.379392 A    
C94   C102  1.409407 A    
C86   C101  1.402555 A    
C9    N9    1.338784 A    
C56   H32   1.109922 S    
C116  C119  1.420508 A    
C46   C85   1.482549 S    
C89   C97   1.381687 A    
C60   C68   1.532535 S    
C5    F5    1.355616 S    
N46   O28   1.301025 A    
C85   C110  1.390586 A    
C10   N10   1.339938 A    
C7    C39   1.380486 A    
C107  F12   1.358030 S    
C48   C87   1.413425 S    
C19   C42   1.391867 A    
C59   H19   1.110897 S    
C24   C45   1.397347 A    
C22   C47   1.392051 A    
C42   C81   1.455639 S    
C53   H29   1.109957 S    
C10   C42   1.392800 A    
C20   C41   1.393499 A    
C50   C62   1.534592 S    
C1    N1    1.338793 A    
N24   Ni8   1.936374 S    
C51   H27   1.109942 S    
C32   C37   1.359691 A    
C21   N45   1.432506 S    
N44   O24   1.301087 A    
C92   N40   1.434455 S    
C50   C65   1.531927 S    
C49   H25   1.109942 S    
C114  C117  1.420730 A    
C12   H4    1.075352 S    
C59   C67   1.533168 S    
C54   C78   1.538993 S    
N6    N31   1.396316 A    
C13   H5    1.075596 S    
C59   C76   1.532498 S    
C28   N28   1.331207 A    
C55   C79   1.545680 S    
C83   C108  1.390290 A    
C8    C40   1.380697 A    
C58   H18   1.108023 S    
C57   C74   1.557240 S    
N5    Ni3   1.821136 S    
C62   C77   1.531646 S    
C61   C69   1.533628 S    
N35   O5    1.301108 A    
C16   H8    1.080632 S    
C91   C120  1.411494 A    
C29   C40   1.374137 A    
C50   H26   1.110027 S    
C6    N6    1.337062 A    
N37   O9    1.301070 A    
C51   C75   1.539723 S    
N2    N27   1.396316 A    
C17   N41   1.428769 S    
N36   O8    1.301067 A    
N39   O13   1.301289 A    
C4    C36   1.361416 A    
C40   C70   1.449235 S    
C49   C73   1.546748 S    
C106  C114  1.402358 A    
C22   N22   1.329372 A    
N11   N18   1.424162 A    
N33   O1    1.301163 A    
C25   C36   1.360927 A    
C9    C41   1.394709 A    
N43   O22   1.300543 A    
C52   C76   1.540060 S    
N32   Ni7   1.849098 S    
C39   C69   1.447026 S    
N40   O16   1.301053 A    
N41   O18   1.299349 A    
C108  C116  1.377242 A    
N4    Ni1   1.803513 S    
C61   C78   1.531770 S    
C84   C99   1.387050 A    
C19   N43   1.426027 S    
C55   C72   1.533082 S    
C18   N18   1.321984 A    
N26   Ni5   1.849824 S    
C90   N38   1.436305 S    
C44   C83   1.478715 S    
C7    F7    1.351895 S    
N25   Ni6   1.849822 S    
C65   C77   1.529843 S    
C91   N39   1.437022 S    
C45   C86   1.482222 S    
N18   Ni6   1.822684 S    
N4    N25   1.387208 A    
C58   C66   1.531418 S    
N45   O26   1.301026 A    
C31   C38   1.360668 A    
C3    C35   1.362042 A    
C74   H34   1.109915 S    
C57   C65   1.531951 S    
C43   C84   1.394179 S    
C2    C34   1.378902 A    
C79   H39   1.109904 S    
C24   N48   1.428431 S    
C2    N2    1.338793 A    
C27   N27   1.332575 A    
C41   C82   1.454703 S    
C35   C65   1.446365 S    
C100  F19   1.357323 S    
C11   H3    1.080161 S    
N46   O27   1.300400 A    
C26   N26   1.333247 A    
C23   N23   1.348347 A    
C101  F22   1.357182 S    
C30   C39   1.372734 A    
C29   H13   1.077650 S    
N28   Ni5   1.849098 S    
C33   C67   1.449085 S    
C54   H30   1.109902 S    
C54   C58   1.549016 S    
N22   Ni8   1.822684 S    
N33   O2    1.301148 A    
C88   C103  1.398038 A    
N1    Ni1   1.821136 S    
C103  F24   1.358567 S    
C60   H20   1.110872 S    
N44   O23   1.300737 A    
N30   Ni7   1.849824 S    
C110  F13   1.357171 S    
C104  F23   1.358534 S    
C23   N47   1.429290 S    
C30   N30   1.330411 A    
C11   C43   1.371637 A    
C93   N33   1.434886 S    
C58   C73   1.556908 S    
C105  C113  1.402006 A    
N14   Ni3   1.844847 S    
C62   C70   1.534151 S    
N3    N26   1.387211 A    
N38   O12   1.301148 A    
N16   Ni4   1.863801 S    
C60   C75   1.532589 S    
C52   H28   1.109935 S    
C64   H24   1.109546 S    
N8    Ni3   1.803513 S    
N6    Ni4   1.821132 S    
C69   C73   1.529875 S    
N19   Ni5   1.936372 S    
C50   C74   1.545703 S    
N2    Ni2   1.821132 S    
C1    F1    1.351976 S    
C78   H38   1.110707 S    
C51   C63   1.550007 S    
C86   C109  1.390806 A    
C9    H1    1.080478 S    
C111  F16   1.356982 S    
C91   C99   1.371009 A    
C52   C67   1.533975 S    
C16   C48   1.380899 A    
C112  F15   1.363839 S    
C73   H33   1.109900 S    
N37   O10   1.301115 A    
N39   O14   1.301538 A    
C14   H6    1.074692 S    
C97   F18   1.358360 S    
C22   N46   1.426590 S    
C55   H31   1.109954 S    
N36   O7    1.300850 A    
N34   O3    1.301150 A    
C13   C45   1.380343 A    
N21   Ni7   1.822685 S    
C15   N15   1.338062 A    
C108  F11   1.357026 S    
C11   N11   1.327718 A    
C6    C38   1.364793 A    
C16   N16   1.336855 A    
C28   C33   1.372613 A    
N42   O20   1.299972 A    
C109  F14   1.357159 S    
C38   C72   1.446699 S    
C32   H16   1.076314 S    
C96   C115  1.419558 A    
N40   O15   1.301172 A    
N31   Ni8   1.849099 S    
C2    F2    1.351686 S    
C6    F6    1.355627 S    
N47   O30   1.300125 A    
N34   O4    1.301075 A    
C21   N21   1.335437 A    
C12   N12   1.323252 A    
C105  F10   1.356451 S    
C102  F21   1.357095 S    
C13   N13   1.326361 A    
C17   C44   1.398165 A    
C28   H12   1.077765 S    
C94   C113  1.424237 A    
N16   N21   1.424163 A    
C95   N35   1.436761 S    
C93   C114  1.424216 A    
C77   H37   1.110631 S    
C15   C47   1.391567 A    
N8    N29   1.387208 A    
N29   Ni8   1.849822 S    
C55   C59   1.534777 S    
C76   H36   1.110617 S    
C83   C100  1.402766 A    
C81   C98   1.399026 A    
N11   Ni1   1.863800 S    
C21   C48   1.382115 A    
C61   H21   1.110888 S    
C31   H15   1.073785 S    
C90   C117  1.407117 A    
C23   C46   1.398944 A    
N12   N17   1.424163 A    
C18   C43   1.363958 A    
C15   H7    1.080467 S    
C89   C118  1.407020 A    
C25   H9    1.074237 S    
C81   C106  1.404723 A    
C63   H23   1.109577 S    
