data_mof_unit_53299.cif
_audit_creation_date              2013-03-05T15:53:19-0500
_audit_creation_method            fapswitch 2.2
_symmetry_space_group_name_H-M    P1
_symmetry_Int_Tables_number       1
_space_group_crystal_system       triclinic
_cell_length_a                    27.249539
_cell_length_b                    7.194507
_cell_length_c                    22.622303
_cell_angle_alpha                 89.844362
_cell_angle_beta                  101.058088
_cell_angle_gamma                 89.863009
_cell_volume                      4352.65513737

loop_
_atom_site_label
_atom_site_type_symbol
_atom_site_description
_atom_site_fract_x
_atom_site_fract_y
_atom_site_fract_z
_atom_type_partial_charge
O1    O     O_R   0.207310 0.594030 0.676830 -0.584631
O2    O     O_R   0.792690 0.405970 0.323170 -0.560606
O3    O     O_R   0.292690 0.094030 0.823170 -0.563349
O4    O     O_R   0.707310 0.905970 0.176830 -0.561657
O5    O     O_R   0.197320 0.262370 0.795700 -0.590550
O6    O     O_R   0.802680 0.737630 0.204300 -0.607025
O7    O     O_R   0.302680 0.762370 0.704300 -0.604171
O8    O     O_R   0.697320 0.237630 0.295700 -0.605412
C1    C     C_R   0.184644 0.432584 0.811926 0.957563
C2    C     C_R   0.815515 0.567410 0.188302 0.930935
C3    C     C_R   0.315499 0.932562 0.688264 0.939036
C4    C     C_R   0.684502 0.067434 0.311737 0.936849
O9    O     O_R   0.201410 0.264250 0.675590 -0.580219
O10   O     O_R   0.798590 0.735750 0.324410 -0.595757
O11   O     O_R   0.298590 0.764250 0.824410 -0.590127
O12   O     O_R   0.701410 0.235750 0.175590 -0.592249
O13   O     O_R   0.296810 0.094940 0.702210 -0.579430
O14   O     O_R   0.703190 0.905060 0.297790 -0.578968
O15   O     O_R   0.203190 0.594940 0.797790 -0.600511
O16   O     O_R   0.796810 0.405060 0.202210 -0.580400
C5    C     C_R   0.189494 0.433339 0.653560 1.023628
C6    C     C_R   0.810718 0.567167 0.346355 0.995166
C7    C     C_R   0.310449 0.932205 0.846402 0.998263
C8    C     C_R   0.689550 0.067794 0.153599 0.996495
O17   O     O_3   0.281300 0.427390 0.758870 -0.270160
O18   O     O_3   0.718700 0.572610 0.241130 -0.269408
O19   O     O_3   0.218700 0.927390 0.741130 -0.287665
O20   O     O_3   0.781300 0.072610 0.258870 -0.273411
V1    V     V_3+5 0.244190 0.152150 0.748350 1.205899
V2    V     V_3+5 0.755810 0.847850 0.251650 1.197603
V3    V     V_3+5 0.255810 0.652150 0.751650 1.182586
V4    V     V_3+5 0.744190 0.347850 0.248350 1.201981
C9    C     C_R   0.653459 0.065167 0.095890 -0.293343
C10   C     C_R   0.346538 0.934831 0.904112 -0.294348
C11   C     C_R   0.846478 0.565385 0.404672 -0.298872
C12   C     C_R   0.154033 0.446102 0.595290 -0.290556
C13   C     C_R   0.636725 0.142919 0.989826 -0.123052
C14   C     C_R   0.363269 0.857082 0.010176 -0.122696
C15   C     C_R   0.863737 0.673428 0.507794 -0.117125
C16   C     C_R   0.143042 0.485849 0.487218 -0.109900
C17   C     C_R   0.668342 0.145477 0.045833 -0.192298
C18   C     C_R   0.331652 0.854528 0.954168 -0.192697
C19   C     C_R   0.831002 0.652081 0.453176 -0.199561
C20   C     C_R   0.174142 0.468658 0.543384 -0.221542
C21   C     C_R   0.604462 0.991501 0.090171 0.336036
C22   C     C_R   0.395536 0.008487 0.909831 0.336280
C23   C     C_R   0.896529 0.499198 0.411538 0.340787
C24   C     C_R   0.101192 0.443766 0.590534 0.381313
C25   C     C_R   0.568734 0.024819 0.035711 -0.029027
C26   C     C_R   0.431263 0.975163 0.964292 -0.028958
C27   C     C_R   0.932480 0.549975 0.464312 -0.027929
C28   C     C_R   0.069556 0.494041 0.534349 -0.003208
C29   C     C_R   0.587485 0.080203 0.984197 0.081903
C30   C     C_R   0.412510 0.919785 0.015806 0.081823
C31   C     C_R   0.914305 0.625465 0.513701 0.126276
C32   C     C_R   0.091099 0.498418 0.482218 0.070887
C33   C     C_R   0.515476 0.003223 0.029552 -0.145014
C34   C     C_R   0.484521 0.996751 0.970451 -0.145114
C35   C     C_R   0.985740 0.534584 0.469610 -0.144598
C36   C     C_R   0.017539 0.542548 0.527995 -0.076375
C37   C     C_R   0.508629 0.001162 0.920032 0.625668
C38   C     C_R   0.491368 0.998809 0.079972 0.625625
C39   C     C_R   0.998676 0.626980 0.575933 0.640800
C40   C     C_R   0.009156 0.541065 0.418537 0.623282
C41   C     C_R   0.557787 0.062677 0.927056 -0.343204
C42   C     C_R   0.442209 0.937304 0.072947 -0.343201
C43   C     C_R   0.946810 0.663473 0.567946 -0.403131
C44   C     C_R   0.060946 0.522654 0.425506 -0.362254
H1    H     H_    0.573790 0.084729 0.887261 0.157756
H2    H     H_    0.426206 0.915254 0.112742 0.157857
H3    H     H_    0.930845 0.725783 0.603412 0.115797
H4    H     H_    0.077722 0.530900 0.385812 0.158527
H5    H     H_    0.294258 0.798940 0.950499 0.126626
H6    H     H_    0.705735 0.201075 0.049502 0.126170
H7    H     H_    0.214304 0.468321 0.546244 0.124565
H8    H     H_    0.792918 0.702098 0.448857 0.128286
H9    H     H_    0.650659 0.192004 0.950823 0.120893
H10   H     H_    0.349334 0.808002 0.049178 0.121098
H11   H     H_    0.849852 0.736512 0.544859 0.121650
H12   H     H_    0.159834 0.495493 0.447595 0.121915
C45   C     C_R   0.629755 0.881558 0.367918 -0.111199
C46   C     C_R   0.370351 0.118429 0.632220 -0.109219
C47   C     C_R   0.870673 0.381549 0.132653 -0.114923
C48   C     C_R   0.129725 0.618569 0.867882 -0.179608
H13   H     H_    0.645751 0.753951 0.354663 0.133460
H14   H     H_    0.354446 0.246060 0.645597 0.133094
H15   H     H_    0.854981 0.253906 0.146302 0.133076
H16   H     H_    0.145445 0.746176 0.854247 0.135906
C49   C     C_R   0.593749 0.868583 0.404314 -0.153002
C50   C     C_R   0.406346 0.131389 0.595809 -0.153292
C51   C     C_R   0.906696 0.368632 0.096276 -0.152701
C52   C     C_R   0.093679 0.631609 0.904218 -0.144200
H17   H     H_    0.583341 0.731888 0.417741 0.114920
H18   H     H_    0.416837 0.268097 0.582490 0.114746
H19   H     H_    0.917413 0.231937 0.083240 0.114651
H20   H     H_    0.082987 0.768337 0.917251 0.115006
C53   C     C_R   0.571817 0.029181 0.423408 0.123432
C54   C     C_R   0.428168 0.970764 0.576570 0.123598
C55   C     C_R   0.928263 0.529284 0.076714 0.124747
C56   C     C_R   0.072059 0.471018 0.923740 0.126233
C57   C     C_R   0.586585 0.203471 0.404369 -0.140941
C58   C     C_R   0.413300 0.796455 0.595477 -0.140887
C59   C     C_R   0.913108 0.703570 0.095260 -0.141092
C60   C     C_R   0.087167 0.296686 0.905170 -0.147587
H21   H     H_    0.570445 0.330362 0.417935 0.118430
H22   H     H_    0.429351 0.669542 0.581794 0.118364
H23   H     H_    0.928961 0.830501 0.081330 0.118338
H24   H     H_    0.071283 0.169797 0.919086 0.115540
C61   C     C_R   0.622691 0.216583 0.367830 -0.172586
C62   C     C_R   0.377199 0.783357 0.632024 -0.174211
C63   C     C_R   0.876979 0.716624 0.131767 -0.178707
C64   C     C_R   0.123261 0.283522 0.868618 -0.129457
H25   H     H_    0.633208 0.353131 0.354406 0.135577
H26   H     H_    0.366594 0.646795 0.645332 0.135467
H27   H     H_    0.866162 0.853176 0.144805 0.135745
H28   H     H_    0.134017 0.146934 0.855531 0.125784
C65   C     C_R   0.645085 0.055699 0.349371 -0.107078
C66   C     C_R   0.354916 0.944275 0.650629 -0.107333
C67   C     C_R   0.854956 0.555686 0.150702 -0.104612
C68   C     C_R   0.145328 0.444397 0.849709 -0.095116
N1    N     N_R   0.513132 0.168514 0.482514 -0.078049
N2    N     N_R   0.486845 0.831427 0.517453 -0.078082
N3    N     N_R   0.986703 0.668712 0.017298 -0.078301
N4    N     N_R   0.013610 0.331653 0.983142 -0.077720
N5    N     N_R   0.479727 0.154611 0.518383 -0.078861
N6    N     N_R   0.520250 0.845331 0.481586 -0.078866
N7    N     N_R   0.020145 0.654853 0.981475 -0.080057
N8    N     N_R   0.980170 0.345512 0.018964 -0.078975
C69   C     C_R   0.465807 0.985800 0.536730 0.101173
C70   C     C_R   0.534171 0.014142 0.463238 0.101238
C71   C     C_R   0.034376 0.486052 0.963521 0.098394
C72   C     C_R   0.965939 0.514307 0.036921 0.100909
N9    N     N_R   0.405934 0.140188 0.865827 0.257866
O21   O     O_R   0.428596 0.295148 0.883376 -0.425604
O22   O     O_R   0.392517 0.108083 0.808422 -0.407144
N10   N     N_R   0.594067 0.859794 0.134176 0.257891
O23   O     O_R   0.607485 0.891896 0.191581 -0.407109
O24   O     O_R   0.571406 0.704833 0.116627 -0.425634
N11   N     N_R   0.079864 0.367444 0.638954 0.241331
O25   O     O_R   0.100161 0.397220 0.694974 -0.449988
O26   O     O_R   0.040773 0.260571 0.626935 -0.427938
N12   N     N_R   0.908840 0.363455 0.369980 0.257831
O27   O     O_R   0.893016 0.381266 0.312208 -0.409917
O28   O     O_R   0.936063 0.219656 0.390176 -0.424849
O29   O     O_3   0.485249 0.945350 0.863226 -0.604844
C73   C     C_3   0.486321 0.749366 0.860526 0.210223
H29   H     H_    0.468667 0.684928 0.896117 0.127255
H30   H     H_    0.525555 0.698539 0.865529 0.098612
C74   C     C_3   0.457222 0.686846 0.799589 -0.711919
H31   H     H_    0.473242 0.750789 0.762783 0.237800
H32   H     H_    0.459265 0.533254 0.795977 0.237463
H33   H     H_    0.417372 0.728909 0.794473 0.250810
O30   O     O_3   0.514750 0.054613 0.136778 -0.604813
C75   C     C_3   0.513666 0.250593 0.139486 0.210414
H34   H     H_    0.474430 0.301373 0.134517 0.098683
H35   H     H_    0.531291 0.315075 0.103878 0.127158
C76   C     C_3   0.542791 0.313114 0.200409 -0.712269
H36   H     H_    0.582643 0.271115 0.205488 0.250590
H37   H     H_    0.540733 0.466700 0.204032 0.237467
H38   H     H_    0.526803 0.249114 0.237232 0.237895
O31   O     O_3   0.033694 0.691537 0.625266 -0.630528
C77   C     C_3   0.013715 0.785837 0.669968 0.283530
H39   H     H_    0.989068 0.692006 0.690356 0.097232
H40   H     H_    0.993170 0.912960 0.650907 0.128814
C78   C     C_3   0.056418 0.847215 0.719718 -0.729593
H41   H     H_    0.082466 0.938531 0.700871 0.276915
H42   H     H_    0.041332 0.925288 0.754608 0.188371
H43   H     H_    0.077318 0.724245 0.741146 0.258604
O32   O     O_3   0.982719 0.583347 0.361606 -0.606392
C79   C     C_3   0.979498 0.778462 0.354769 0.211085
H44   H     H_    0.017039 0.837827 0.353716 0.107692
H45   H     H_    0.964104 0.844796 0.391850 0.133287
C80   C     C_3   0.944633 0.825057 0.295539 -0.716239
H46   H     H_    0.906330 0.773853 0.296393 0.244464
H47   H     H_    0.943070 0.977976 0.288564 0.240470
H48   H     H_    0.958351 0.758950 0.257411 0.239747

loop_
_geom_bond_atom_site_label_1
_geom_bond_atom_site_label_2
_geom_bond_distance
_ccdc_geom_bond_type
O17   V3    1.753174 S    
C55   C59   1.409137 A    
O1    C5    1.325637 A    
C76   H36   1.110940 S    
N3    C72   1.359381 A    
O19   V1    1.757052 S    
C9    C21   1.420476 A    
O32   C79   1.412511 S    
O3    C7    1.327512 A    
C10   C18   1.397981 A    
C52   H20   1.082876 S    
N1    C70   1.359344 A    
O15   V3    1.972191 S    
C62   C66   1.408358 A    
O29   C73   1.411965 S    
C56   C71   1.493484 S    
C61   C65   1.408352 A    
C33   C38   1.421589 A    
C5    C12   1.479900 S    
C80   H46   1.111316 S    
O7    C3    1.342061 A    
C6    C11   1.482185 S    
C23   N12   1.440331 S    
C35   C40   1.423679 A    
C78   H41   1.110845 S    
C55   C72   1.493507 S    
C36   C39   1.423088 A    
C40   C44   1.395602 A    
O2    V4    1.983624 S    
O9    V1    1.992717 S    
C53   C70   1.493496 S    
C14   C18   1.389037 A    
C74   H32   1.110306 S    
O4    C8    1.327514 A    
C25   C29   1.415908 A    
C43   H3    1.081135 S    
C79   H44   1.113932 S    
N6    C70   1.360545 A    
C57   C61   1.404351 A    
C73   C74   1.522218 S    
C45   C65   1.409643 A    
C60   H24   1.082790 S    
O1    V3    1.983620 S    
O13   V1    1.971938 S    
C59   C63   1.404292 A    
C47   C67   1.409615 A    
C40   O32   1.382435 S    
O3    V1    1.980351 S    
C37   O29   1.381488 S    
O12   V4    1.998583 S    
C2    C67   1.495453 S    
C28   C36   1.439048 A    
C17   H6    1.083893 S    
C1    O15   1.335982 A    
C56   C60   1.409188 A    
C15   C31   1.400921 A    
C2    O16   1.336208 A    
C16   C32   1.400805 A    
O2    C6    1.329889 A    
C16   H12   1.083916 S    
C50   H18   1.082891 S    
C10   C22   1.420471 A    
C11   C19   1.396717 A    
C62   H26   1.082850 S    
N2    C69   1.359345 A    
O5    V1    1.982925 S    
O8    C4    1.342087 A    
N4    N8    1.334266 A    
C45   C49   1.399703 A    
C34   C37   1.421589 A    
O11   C7    1.324959 A    
C11   C23   1.423440 A    
C35   C36   1.435336 A    
O12   C8    1.324963 A    
C13   C17   1.389034 A    
O10   V2    1.992718 S    
N8    C72   1.360513 A    
C45   H13   1.082812 S    
O31   C77   1.411578 S    
C73   H30   1.114007 S    
C80   H47   1.110567 S    
C57   H21   1.082775 S    
C39   C43   1.413868 A    
O7    V3    1.983041 S    
C38   C42   1.391770 A    
C26   C34   1.439909 A    
C75   C76   1.522228 S    
N10   O24   1.301353 A    
C74   H33   1.110931 S    
C60   C64   1.404294 A    
O18   V4    1.753174 S    
C23   C27   1.440121 A    
C14   H10   1.083891 S    
C32   C44   1.394726 A    
C13   H9    1.083891 S    
O4    V2    1.980346 S    
N4    C71   1.359351 A    
C49   C53   1.406128 A    
C44   H4    1.084501 S    
O8    V4    1.983041 S    
N2    N6    1.334284 A    
C20   H7    1.083860 S    
O5    C1    1.342675 A    
C37   C41   1.391766 A    
C77   C78   1.522659 S    
C63   H27   1.082855 S    
N3    N7    1.334309 A    
C14   C30   1.399221 A    
C21   C25   1.435381 A    
C48   C68   1.409709 A    
C7    C10   1.476346 S    
O9    C5    1.329076 A    
C26   C30   1.415909 A    
C75   H34   1.114007 S    
C73   H29   1.114542 S    
O14   V2    1.971944 S    
C63   C67   1.408371 A    
O6    V2    1.982926 S    
C16   C20   1.390495 A    
N1    N5    1.334284 A    
C78   H43   1.109679 S    
N9    O21   1.301351 A    
N12   O28   1.301179 A    
C58   C62   1.404349 A    
C27   C35   1.437161 A    
C46   C66   1.409641 A    
C76   H37   1.110308 S    
C64   H28   1.082916 S    
C29   C41   1.393511 A    
C52   C56   1.406160 A    
C64   C68   1.408354 A    
C77   H39   1.113003 S    
O16   V4    1.972188 S    
C80   H48   1.111304 S    
C19   H8    1.084061 S    
C39   O31   1.402928 S    
C3    O13   1.335825 A    
C21   N10   1.439946 S    
C24   N11   1.442772 S    
C75   H35   1.114552 S    
C48   H16   1.082825 S    
N10   O23   1.301299 A    
C47   H15   1.082822 S    
O6    C2    1.342378 A    
C25   C33   1.439914 A    
C31   C43   1.396869 A    
N11   O25   1.300399 A    
O11   V3    1.998586 S    
C30   C42   1.393514 A    
C61   H25   1.082848 S    
C76   H38   1.110770 S    
C47   C51   1.399743 A    
C22   C26   1.435381 A    
C8    C9    1.476352 S    
C46   C50   1.399705 A    
C38   O30   1.381488 S    
C9    C17   1.397980 A    
O10   C6    1.326134 A    
O20   V2    1.757051 S    
C13   C29   1.399218 A    
C77   H40   1.112938 S    
C54   C58   1.409176 A    
C74   H31   1.110760 S    
C22   N9    1.439944 S    
C46   H14   1.082813 S    
N11   O26   1.301454 A    
C33   C34   1.438450 A    
C42   H2    1.084394 S    
C79   H45   1.115159 S    
C41   H1    1.084395 S    
C54   C69   1.493496 S    
C18   H5    1.083893 S    
C12   C24   1.423321 A    
C27   C31   1.415207 A    
C49   H17   1.082889 S    
N7    C71   1.360537 A    
C12   C20   1.396987 A    
C51   H19   1.082890 S    
C4    C65   1.495504 S    
N5    C69   1.360543 A    
C24   C28   1.437083 A    
C15   C19   1.387389 A    
C78   H42   1.110542 S    
C58   H22   1.082775 S    
C4    O14   1.335793 A    
N9    O22   1.301299 A    
C1    C68   1.495602 S    
N12   O27   1.301192 A    
C59   H23   1.082773 S    
C48   C52   1.399651 A    
C51   C55   1.406182 A    
O30   C75   1.411962 S    
C3    C66   1.495502 S    
C50   C54   1.406131 A    
C53   C57   1.409176 A    
C28   C32   1.414865 A    
C15   H11   1.084041 S    
C79   C80   1.522533 S    
