data_mof_unit_29450.cif
_audit_creation_date              2013-03-05T16:31:36-0500
_audit_creation_method            fapswitch 2.2
_symmetry_space_group_name_H-M    P1
_symmetry_Int_Tables_number       1
_space_group_crystal_system       triclinic
_cell_length_a                    9.573206
_cell_length_b                    10.734832
_cell_length_c                    15.361464
_cell_angle_alpha                 89.043972
_cell_angle_beta                  74.481028
_cell_angle_gamma                 88.734972
_cell_volume                      1520.62744644

loop_
_atom_site_label
_atom_site_type_symbol
_atom_site_description
_atom_site_fract_x
_atom_site_fract_y
_atom_site_fract_z
_atom_type_partial_charge
O1    O     O_R   0.118810 0.319640 0.500000 -0.570352
O2    O     O_R   0.881230 0.319680 0.499990 -0.582936
C1    C     C_R   0.001828 0.262832 0.497089 0.830546
O3    O     O_R   0.055580 0.499970 0.629840 -0.601952
O4    O     O_R   0.818000 0.500010 0.629830 -0.489282
C2    C     C_R   0.917114 0.507810 0.672586 0.842913
Cu1   Cu    Cu3+1 0.140670 0.499980 0.500000 0.974735
Cu2   Cu    Cu3+1 0.859330 0.500020 0.500000 1.002190
O5    O     O_R   0.118770 0.680320 0.500010 -0.595189
O6    O     O_R   0.881190 0.680360 0.500000 -0.573870
O7    O     O_R   0.182000 0.499990 0.370170 -0.543037
O8    O     O_R   0.944420 0.500030 0.370160 -0.601808
C3    C     C_R   0.998794 0.737180 0.499865 0.787507
C4    C     C_R   0.081853 0.497739 0.327571 0.852796
C5    C     C_R   0.868239 0.526222 0.772033 -0.149111
C6    C     C_R   0.126104 0.515101 0.229134 -0.126507
C7    C     C_R   0.923109 0.510844 0.917176 -0.197911
C8    C     C_R   0.968567 0.512798 0.823349 -0.251198
C9    C     C_R   0.720415 0.554474 0.816710 0.304230
C10   C     C_R   0.674738 0.560060 0.912730 -0.020059
C11   C     C_R   0.776489 0.527917 0.962020 0.125352
C12   C     C_R   0.528766 0.587542 0.962012 0.072567
C13   C     C_R   0.479244 0.546084 0.052897 0.102173
C14   C     C_R   0.583194 0.515059 0.100054 -0.129362
C15   C     C_R   0.730242 0.510928 0.055669 -0.224810
C16   C     C_R   0.433270 0.661335 0.926123 -0.129934
C17   C     C_R   0.288461 0.677279 0.972862 -0.218889
C18   C     C_R   0.234090 0.619173 0.056548 0.117028
C19   C     C_R   0.327884 0.547551 0.096061 -0.011581
C20   C     C_R   0.087763 0.635190 0.102367 -0.221795
C21   C     C_R   0.035777 0.587893 0.189421 -0.274514
C22   C     C_R   0.267068 0.480399 0.177266 0.253330
H1    H     H_    0.807348 0.488519 0.094189 0.141207
H2    H     H_    0.926188 0.612668 0.227068 0.168725
H3    H     H_    0.218763 0.735481 0.943327 0.147547
H4    H     H_    0.002468 0.491969 0.954742 0.157858
H5    H     H_    0.082140 0.498580 0.791128 0.173670
H6    H     H_    0.552214 0.498629 0.172297 0.157971
H7    H     H_    0.470744 0.714512 0.864534 0.196194
H8    H     H_    0.015688 0.690964 0.073114 0.152318
C23   C     C_R   0.009084 0.063003 0.571124 -0.006722
C24   C     C_R   0.003326 0.129416 0.493623 -0.063731
C25   C     C_R   0.998285 0.064838 0.414850 0.008970
C26   C     C_R   0.998089 0.934234 0.417336 -0.249959
H9    H     H_    0.992799 0.882811 0.358137 0.132426
C27   C     C_R   0.998505 0.870110 0.497349 -0.032097
C28   C     C_R   0.010268 0.934550 0.572586 0.018935
C29   C     C_3   0.914037 0.927759 0.666869 -0.503228
C30   C     C_3   0.909711 0.069505 0.664896 0.172151
H10   H     H_    0.808756 0.882996 0.670874 0.248991
H11   H     H_    0.972659 0.888560 0.714839 0.160698
H12   H     H_    0.959728 0.112807 0.714162 0.106517
C31   C     C_R   0.592068 0.588212 0.451863 0.211710
N1    N     N_R   0.648210 0.500930 0.499430 -0.193261
C32   C     C_R   0.561729 0.407335 0.540110 -0.018542
H13   H     H_    0.606448 0.334414 0.574738 0.209938
C33   C     C_R   0.414065 0.405684 0.539992 0.053601
N2    N     N_R   0.352300 0.500890 0.499430 -0.197482
C34   C     C_R   0.444697 0.588464 0.452069 0.252544
C35   C     C_3   0.430781 0.725985 0.465692 -0.497038
C36   C     C_3   0.589412 0.725673 0.464849 -0.449079
H14   H     H_    0.408448 0.776214 0.406843 0.194674
H15   H     H_    0.357502 0.751552 0.532502 0.220902
H16   H     H_    0.658961 0.774954 0.405190 0.186868
H17   H     H_    0.606455 0.751856 0.530937 0.258269
C37   C     C_R   0.985831 0.129713 0.331300 0.061289
C38   C     C_R   0.860343 0.199766 0.330418 -0.111087
C39   C     C_R   0.847973 0.258549 0.250805 -0.126349
C40   C     C_R   0.958971 0.245255 0.171080 -0.130665
C41   C     C_R   0.081974 0.172560 0.170755 -0.078572
C42   C     C_R   0.095532 0.114829 0.250481 -0.079709
H18   H     H_    0.771251 0.207478 0.390858 0.155675
H19   H     H_    0.751792 0.313490 0.250745 0.147045
H20   H     H_    0.949276 0.290369 0.109387 0.138387
H21   H     H_    0.167052 0.161192 0.108701 0.167058
H22   H     H_    0.191632 0.059005 0.249353 0.150879
N3    N     N_R   0.766009 0.122043 0.667473 0.144125
O9    O     O_R   0.691035 0.080267 0.615149 -0.372585
O10   O     O_R   0.713203 0.213309 0.721846 -0.342693
C43   C     C_R   0.334898 0.298207 0.587561 0.144567
C44   C     C_R   0.275844 0.303566 0.681300 -0.079981
C45   C     C_R   0.235325 0.194590 0.732017 -0.137965
C46   C     C_R   0.258907 0.078811 0.689760 -0.108861
C47   C     C_R   0.321113 0.072207 0.596629 -0.089603
C48   C     C_R   0.358705 0.181323 0.545599 -0.126751
H23   H     H_    0.271159 0.391141 0.715457 0.153323
H24   H     H_    0.190287 0.199603 0.804461 0.145105
H25   H     H_    0.229737 0.994245 0.729194 0.130965
H26   H     H_    0.341070 0.982559 0.564046 0.138163
H27   H     H_    0.412225 0.174652 0.474098 0.140461
N4    N     N_R   0.335406 0.364768 0.195913 0.093707
O11   O     O_R   0.405962 0.295762 0.128913 -0.373485
O12   O     O_R   0.312047 0.318368 0.277156 -0.384732
N5    N     N_R   0.614871 0.562972 0.765643 0.113431
O13   O     O_R   0.519626 0.476025 0.773218 -0.345606
O14   O     O_R   0.613598 0.657726 0.711752 -0.408352

loop_
_geom_bond_atom_site_label_1
_geom_bond_atom_site_label_2
_geom_bond_distance
_ccdc_geom_bond_type
C5    C8    1.399958 A    
C32   H13   1.082666 S    
C1    C24   1.433684 S    
C23   C24   1.390580 A    
C9    C10   1.423764 A    
C44   C45   1.397809 A    
C31   C34   1.409916 A    
Cu1   Cu2   2.693315 S    
C31   N1    1.365915 A    
C6    C21   1.402511 A    
Cu1   O7    1.926613 S    
C16   C17   1.388380 A    
C35   H15   1.111918 S    
O4    C2    1.295183 A    
C13   C19   1.422922 A    
C18   C19   1.418231 A    
C8    H5    1.075930 S    
C19   C22   1.419365 A    
C3    C27   1.426817 S    
O7    C4    1.298162 A    
C16   H7    1.076601 S    
C22   N4    1.450303 S    
C45   H24   1.082323 S    
C35   H14   1.111645 S    
C38   H18   1.082595 S    
O5    C3    1.289232 A    
C2    C5    1.488369 S    
N1    C32   1.350678 A    
C31   C36   1.491090 S    
C29   H11   1.111549 S    
C46   C47   1.397141 A    
C39   C40   1.397189 A    
C14   H6    1.081808 S    
C13   C14   1.410332 A    
C41   C42   1.398933 A    
C7    H4    1.084036 S    
Cu1   N2    2.023892 S    
C44   H23   1.078481 S    
C29   H10   1.112527 S    
C37   C38   1.406184 A    
C34   C35   1.492513 S    
C33   C43   1.467515 S    
N5    O13   1.301254 A    
O3    Cu1   1.942240 S    
C23   C30   1.500652 S    
C26   C27   1.399598 A    
N3    O10   1.300982 A    
C38   C39   1.398679 A    
C28   C29   1.495706 S    
C47   C48   1.397524 A    
O3    C2    1.313972 A    
Cu2   N1    2.023264 S    
N4    O11   1.302157 A    
C17   H3    1.084218 S    
C39   H19   1.082643 S    
N3    O9    1.302792 A    
C7    C11   1.397759 A    
C35   C36   1.515122 S    
O1    C1    1.298425 A    
C36   H16   1.111711 S    
C5    C9    1.426150 A    
C25   C26   1.401926 A    
C43   C48   1.406251 A    
N4    O12   1.300186 A    
C37   C42   1.404022 A    
Cu2   O8    1.942240 S    
C30   H12   1.110662 S    
C7    C8    1.389599 A    
C23   C28   1.378577 A    
C21   H2    1.083509 S    
C20   H8    1.084053 S    
C40   H20   1.082145 S    
C14   C15   1.390383 A    
N5    O14   1.302638 A    
C9    N5    1.436070 S    
C29   C30   1.521290 S    
C10   C12   1.426921 A    
C32   C33   1.414603 A    
C12   C16   1.410799 A    
C4    C6    1.466976 S    
C24   C25   1.417000 A    
C42   H22   1.083168 S    
C41   H21   1.082108 S    
C26   H9    1.084838 S    
Cu1   O5    1.942630 S    
C11   C15   1.397431 A    
C27   C28   1.388053 A    
O1    Cu1   1.951786 S    
O2    Cu2   1.942629 S    
O8    C4    1.303126 A    
C43   C44   1.400763 A    
O6    C3    1.291751 A    
O4    Cu2   1.926610 S    
C48   H27   1.083461 S    
C6    C22   1.416699 A    
C18   C20   1.397522 A    
O2    C1    1.284354 A    
N2    C34   1.365656 A    
C33   N2    1.389827 A    
C20   C21   1.387865 A    
C25   C37   1.481509 S    
C30   N3    1.466125 S    
C46   H25   1.082292 S    
C40   C41   1.397131 A    
C36   H17   1.111966 S    
C10   C11   1.418555 A    
Cu2   O6    1.951786 S    
C45   C46   1.397559 A    
C47   H26   1.081632 S    
C17   C18   1.393601 A    
C12   C13   1.416460 A    
C15   H1    1.083514 S    
