data_mof_unit_68110.cif
_audit_creation_date              2012-12-11T16:06:25-0500
_audit_creation_method            fapswitch 2.2
_symmetry_space_group_name_H-M    P1
_symmetry_Int_Tables_number       1
_space_group_crystal_system       triclinic
_cell_length_a                    7.496024
_cell_length_b                    16.169925
_cell_length_c                    15.174278
_cell_angle_alpha                 89.942609
_cell_angle_beta                  90.485848
_cell_angle_gamma                 90.031702
_cell_volume                      1839.20912868

loop_
_atom_site_label
_atom_site_type_symbol
_atom_type_description
_atom_site_fract_x
_atom_site_fract_y
_atom_site_fract_z
_atom_type_partial_charge
O1    O     O_R   0.388780 0.834790 0.412340 -0.547677
O2    O     O_R   0.111220 0.165210 0.912340 -0.545072
O3    O     O_R   0.888780 0.665210 0.587660 -0.539631
O4    O     O_R   0.611220 0.334790 0.087660 -0.545106
O5    O     O_R   0.059040 0.845930 0.587040 -0.538955
O6    O     O_R   0.440960 0.154070 0.087040 -0.538655
O7    O     O_R   0.559040 0.654070 0.412960 -0.538139
O8    O     O_R   0.940960 0.345930 0.912960 -0.537316
C1    C     C_R   0.226853 0.865525 0.616843 0.614864
C2    C     C_R   0.274376 0.136744 0.119907 0.613181
C3    C     C_R   0.725576 0.636260 0.380653 0.611314
C4    C     C_R   0.773635 0.363741 0.880764 0.612880
O9    O     O_R   0.059070 0.845930 0.412970 -0.544236
O10   O     O_R   0.440930 0.154070 0.912970 -0.542069
O11   O     O_R   0.559070 0.654070 0.587030 -0.546817
O12   O     O_R   0.940930 0.345930 0.087030 -0.542917
O13   O     O_R   0.888760 0.665210 0.412340 -0.532698
O14   O     O_R   0.611240 0.334790 0.912340 -0.532492
O15   O     O_R   0.388760 0.834790 0.587660 -0.535661
O16   O     O_R   0.111240 0.165210 0.087660 -0.530991
C5    C     C_R   0.229010 0.866270 0.383880 0.607072
C6    C     C_R   0.270008 0.133897 0.883195 0.607754
C7    C     C_R   0.728990 0.635604 0.618170 0.631280
C8    C     C_R   0.771158 0.365439 0.117176 0.609401
O17   O     O_3   0.222280 0.690700 0.500000 -0.398425
O18   O     O_3   0.277720 0.309300 0.000000 -0.396680
O19   O     O_3   0.722280 0.809300 0.500000 -0.388476
O20   O     O_3   0.777720 0.190700 0.000000 -0.395908
V1    V     V_3+5 0.947430 0.761000 0.500000 1.340013
V2    V     V_3+5 0.552570 0.239000 0.000000 1.328521
V3    V     V_3+5 0.447430 0.739000 0.500000 1.330372
V4    V     V_3+5 0.052570 0.261000 0.000000 1.330170
C9    C     C_3   0.912356 0.568433 0.755133 -0.116354
C10   C     C_3   0.586117 0.431065 0.253556 -0.109938
C11   C     C_3   0.413374 0.932684 0.248696 -0.115433
C12   C     C_3   0.083319 0.069261 0.745608 -0.091293
H1    H     H_    0.867549 0.606917 0.810827 0.121023
H2    H     H_    0.633321 0.391923 0.308930 0.122314
H3    H     H_    0.364567 0.892932 0.194740 0.126657
H4    H     H_    0.129947 0.112563 0.693908 0.117097
C13   C     C_3   0.953629 0.481642 0.798272 0.012453
C14   C     C_3   0.545481 0.517804 0.297252 0.007379
C15   C     C_3   0.453915 0.019490 0.205187 0.009591
C16   C     C_3   0.049314 0.985297 0.694343 0.000892
H5    H     H_    0.002108 0.493554 0.866596 0.109439
H6    H     H_    0.498656 0.505570 0.365361 0.109018
H7    H     H_    0.502861 0.008384 0.137449 0.102395
H8    H     H_    0.021528 0.004758 0.625548 0.094796
H9    H     H_    0.874884 0.471994 0.605247 0.109910
H10   H     H_    0.621759 0.527841 0.104457 0.111602
H11   H     H_    0.378337 0.029678 0.398272 0.109322
H12   H     H_    0.109757 0.969350 0.884476 0.120286
H13   H     H_    0.808896 0.357068 0.679872 0.127531
H14   H     H_    0.685436 0.642522 0.179556 0.128218
H15   H     H_    0.314807 0.144960 0.322190 0.128489
H16   H     H_    0.208980 0.851784 0.812970 0.136416
C17   C     C_3   0.744909 0.477612 0.639295 -0.014463
C18   C     C_3   0.752243 0.522719 0.139280 -0.014365
C19   C     C_3   0.248312 0.024502 0.363172 -0.013347
C20   C     C_3   0.246068 0.974948 0.856912 0.011798
C21   C     C_3   0.588316 0.559016 0.754123 -0.403868
C22   C     C_3   0.911076 0.441109 0.254933 -0.404918
C23   C     C_3   0.088183 0.942707 0.248255 -0.405232
C24   C     C_3   0.409033 0.060053 0.746300 -0.401388
C25   C     C_3   0.745735 0.562990 0.688141 0.044216
C26   C     C_3   0.753235 0.437176 0.187710 0.053685
C27   C     C_3   0.246978 0.938804 0.314687 0.057249
C28   C     C_3   0.250596 0.062152 0.811864 0.034688
H17   H     H_    0.460699 0.546032 0.719713 0.178304
H18   H     H_    0.038690 0.453193 0.221217 0.178490
H19   H     H_    0.960740 0.953381 0.282579 0.177337
H20   H     H_    0.534716 0.048289 0.782917 0.182586
H21   H     H_    0.583979 0.618169 0.788968 0.164877
H22   H     H_    0.915728 0.382348 0.290821 0.161247
H23   H     H_    0.084103 0.884280 0.211777 0.161731
H24   H     H_    0.411871 0.119295 0.711611 0.163374
C29   C     C_3   0.770894 0.432445 0.805164 0.047213
C30   C     C_3   0.727563 0.567453 0.305043 0.046721
C31   C     C_3   0.271972 0.069125 0.197181 0.045533
C32   C     C_3   0.229977 0.934524 0.690600 0.052978
C33   C     C_3   0.726078 0.405757 0.707389 -0.332240
C34   C     C_3   0.770390 0.594467 0.207522 -0.333430
C35   C     C_3   0.230454 0.096401 0.294737 -0.334299
C36   C     C_3   0.275849 0.905727 0.786962 -0.333672
C37   C     C_3   0.619863 0.494145 0.828795 -0.386506
C38   C     C_3   0.879718 0.505981 0.329267 -0.384514
C39   C     C_3   0.116730 0.008858 0.175020 -0.382581
C40   C     C_3   0.383174 0.996033 0.670081 -0.395013
H25   H     H_    0.653760 0.525733 0.891684 0.129869
H26   H     H_    0.846410 0.474245 0.392047 0.129014
H27   H     H_    0.141630 0.979140 0.111139 0.131655
H28   H     H_    0.355650 0.028100 0.606614 0.131354
H29   H     H_    0.494031 0.461404 0.842108 0.167158
H30   H     H_    0.005821 0.538753 0.343156 0.167557
H31   H     H_    0.991374 0.042795 0.164099 0.166992
H32   H     H_    0.510328 0.962526 0.660874 0.167694
H33   H     H_    0.590155 0.382625 0.703801 0.175936
H34   H     H_    0.905427 0.618765 0.204523 0.176075
H35   H     H_    0.095466 0.120504 0.298123 0.176314
H36   H     H_    0.415980 0.887433 0.786765 0.176394
C41   C     C_3   0.072176 0.620609 0.728207 -0.345178
C42   C     C_3   0.198943 0.644654 0.802203 -0.413138
C43   C     C_3   0.327609 0.706431 0.762862 -0.818770
H37   H     H_    0.394540 0.680523 0.706395 0.265394
H38   H     H_    0.255723 0.756131 0.731120 0.209495
H39   H     H_    0.425055 0.728754 0.811473 0.227836
H40   H     H_    0.124374 0.676113 0.855258 0.214272
H41   H     H_    0.269147 0.590860 0.831042 0.212184
H42   H     H_    0.142991 0.595465 0.670139 0.200733
H43   H     H_    0.016343 0.681583 0.712715 0.212384
C44   C     C_3   0.422259 0.379241 0.227619 -0.347838
C45   C     C_3   0.303935 0.356128 0.305090 -0.398944
C46   C     C_3   0.172050 0.291510 0.273852 -0.823487
H44   H     H_    0.093512 0.312882 0.217485 0.259493
H45   H     H_    0.242124 0.241752 0.242439 0.206105
H46   H     H_    0.089062 0.269380 0.328991 0.230873
H47   H     H_    0.385992 0.326970 0.357502 0.214500
H48   H     H_    0.235209 0.410168 0.333627 0.210056
H49   H     H_    0.344831 0.405212 0.171488 0.197016
H50   H     H_    0.472934 0.318392 0.209338 0.215716
C47   C     C_3   0.577979 0.880560 0.272912 -0.348076
C48   C     C_3   0.696015 0.859413 0.194362 -0.392091
C49   C     C_3   0.825962 0.792905 0.223480 -0.818378
H51   H     H_    0.904944 0.811951 0.280841 0.255884
H52   H     H_    0.754135 0.742542 0.252998 0.204637
H53   H     H_    0.908769 0.772073 0.167788 0.231796
H54   H     H_    0.614590 0.833462 0.139613 0.209476
H55   H     H_    0.767145 0.913974 0.168438 0.207153
H56   H     H_    0.656043 0.905999 0.329092 0.195321
H57   H     H_    0.528058 0.819169 0.290498 0.215470
C50   C     C_3   0.917148 0.117769 0.772846 -0.345621
C51   C     C_3   0.796685 0.142027 0.695377 -0.398705
C52   C     C_3   0.669520 0.208617 0.726053 -0.821370
H58   H     H_    0.593369 0.189140 0.783489 0.260490
H59   H     H_    0.743603 0.258271 0.755894 0.203371
H60   H     H_    0.584673 0.230858 0.670925 0.230753
H61   H     H_    0.878039 0.169970 0.642648 0.215364
H62   H     H_    0.724630 0.088522 0.666988 0.210823
H63   H     H_    0.844250 0.088432 0.828091 0.193640
H64   H     H_    0.964067 0.178898 0.793023 0.218152
C53   C     C_3   0.601385 0.469226 0.564836 -0.332673
C54   C     C_3   0.597699 0.382980 0.520660 -0.329510
C55   C     C_3   0.422255 0.337183 0.535587 -0.811254
H65   H     H_    0.398304 0.328506 0.606511 0.241610
H66   H     H_    0.308896 0.372568 0.506807 0.226971
H67   H     H_    0.428018 0.275212 0.504334 0.210627
H68   H     H_    0.613540 0.390693 0.449288 0.168357
H69   H     H_    0.710902 0.343373 0.541768 0.195079
H70   H     H_    0.466975 0.485160 0.589749 0.194545
H71   H     H_    0.631918 0.514869 0.512593 0.149250
C56   C     C_3   0.894804 0.532150 0.065831 -0.333511
C57   C     C_3   0.891635 0.617961 0.020699 -0.328577
C58   C     C_3   0.064277 0.666049 0.035007 -0.821415
H72   H     H_    0.091341 0.674977 0.105843 0.243801
H73   H     H_    0.178420 0.632273 0.005833 0.228256
H74   H     H_    0.051831 0.727797 0.003586 0.225168
H75   H     H_    0.874752 0.609542 0.949507 0.171424
H76   H     H_    0.776595 0.656332 0.041100 0.197945
H77   H     H_    0.030207 0.518522 0.092233 0.194271
H78   H     H_    0.867611 0.485668 0.013836 0.150096
C59   C     C_3   0.105742 0.033999 0.436432 -0.335529
C60   C     C_3   0.105253 0.120729 0.480085 -0.326369
C61   C     C_3   0.928491 0.165984 0.466355 -0.814993
H79   H     H_    0.902423 0.175804 0.395561 0.241847
H80   H     H_    0.816691 0.129461 0.494124 0.226080
H81   H     H_    0.934113 0.227383 0.498966 0.211559
H82   H     H_    0.128444 0.114544 0.551311 0.168449
H83   H     H_    0.215779 0.160588 0.457215 0.194759
H84   H     H_    0.970878 0.018877 0.410359 0.193465
H85   H     H_    0.135210 0.988013 0.488534 0.143917
C62   C     C_3   0.379825 0.962075 0.934560 -0.349844
C63   C     C_3   0.325140 0.891691 0.997254 -0.343789
C64   C     C_3   0.402765 0.806935 0.979366 -0.810953
H86   H     H_    0.322060 0.776510 0.928385 0.247791
H87   H     H_    0.546067 0.810436 0.963034 0.230455
H88   H     H_    0.391031 0.768270 0.039509 0.211072
H89   H     H_    0.379694 0.908676 0.061216 0.179758
H90   H     H_    0.177869 0.886466 0.002839 0.185069
H91   H     H_    0.518649 0.953631 0.911043 0.180147
H92   H     H_    0.382320 0.017921 0.976382 0.160573
C65   C     C_3   0.112239 0.438329 0.748374 -0.277243
C66   C     C_3   0.117020 0.343442 0.737899 -0.358287
C67   C     C_3   0.274458 0.302793 0.781934 -0.723367
H93   H     H_    0.393345 0.340747 0.780781 0.217647
H94   H     H_    0.243746 0.293043 0.851135 0.282256
H95   H     H_    0.299752 0.242967 0.749641 0.172236
H96   H     H_    0.002232 0.312763 0.765833 0.199329
H97   H     H_    0.116951 0.327318 0.666667 0.172812
H98   H     H_    0.123386 0.462449 0.680495 0.139679
H99   H     H_    0.235805 0.459499 0.780406 0.158932
C68   C     C_3   0.385321 0.561346 0.247167 -0.279166
C69   C     C_3   0.379131 0.656325 0.237484 -0.355884
C70   C     C_3   0.223800 0.696754 0.282382 -0.719971
H100  H     H_    0.105574 0.658305 0.282639 0.217481
H101  H     H_    0.258996 0.707019 0.351238 0.281548
H102  H     H_    0.195138 0.756467 0.249907 0.173019
H103  H     H_    0.495517 0.686764 0.264942 0.197696
H104  H     H_    0.375230 0.672849 0.166410 0.169945
H105  H     H_    0.374224 0.537941 0.178937 0.139996
H106  H     H_    0.262115 0.539653 0.278260 0.158786
C71   C     C_3   0.613069 0.063017 0.256045 -0.278922
C72   C     C_3   0.619406 0.158027 0.264084 -0.360312
C73   C     C_3   0.774785 0.197900 0.218785 -0.725208
H107  H     H_    0.894373 0.160787 0.221799 0.216237
H108  H     H_    0.742304 0.205316 0.149121 0.282537
H109  H     H_    0.800049 0.258701 0.249244 0.172763
H110  H     H_    0.503555 0.187688 0.235304 0.199657
H111  H     H_    0.621792 0.175805 0.334845 0.173485
H112  H     H_    0.622865 0.040021 0.324522 0.139459
H113  H     H_    0.736856 0.040996 0.226213 0.159069
C74   C     C_3   0.873947 0.936216 0.719663 -0.316424
C75   C     C_3   0.892874 0.854300 0.769898 -0.305273
C76   C     C_3   0.722698 0.805157 0.774480 -0.853490
H114  H     H_    0.645563 0.829155 0.829902 0.226278
H115  H     H_    0.646438 0.807273 0.711526 0.259409
H116  H     H_    0.754409 0.740034 0.790406 0.202122
H117  H     H_    0.986791 0.814071 0.735934 0.208414
H118  H     H_    0.934088 0.865939 0.839082 0.185089
H119  H     H_    0.781575 0.974097 0.758146 0.163609
H120  H     H_    0.801780 0.922493 0.657077 0.184420

loop_
_geom_bond_atom_site_label_1
_geom_bond_atom_site_label_2
_ccdc_geom_bond_type
C63   H89   S    
O17   V3    S    
C55   H67   S    
C45   H48   S    
C62   C63   S    
C40   H32   S    
O1    C5    A    
C41   C42   S    
C39   H27   S    
O19   V1    S    
O13   V1    S    
C71   C72   S    
O3    C7    A    
C61   H79   S    
C10   C14   S    
C47   H57   S    
C32   C36   S    
O15   V3    S    
C10   C26   S    
C31   C39   S    
C59   C60   S    
C9    C25   S    
C49   H51   S    
C65   C66   S    
C18   C56   S    
O7    C3    A    
C74   H120  S    
C73   H108  S    
C33   H33   S    
C9    C41   S    
C24   C28   S    
H13   C33   S    
C61   H80   S    
C68   H105  S    
C46   H44   S    
C67   H94   S    
C13   C29   S    
C45   H47   S    
O4    C8    A    
C49   H52   S    
C75   H117  S    
C15   C31   S    
C55   H65   S    
O1    V3    S    
H9    C17   S    
C22   H18   S    
O2    V4    S    
C14   H6    S    
C48   H54   S    
O3    V1    S    
C66   C67   S    
C50   H64   S    
C38   H30   S    
C19   C27   S    
C65   H98   S    
C14   C68   S    
C1    O15   A    
C40   H28   S    
C2    O16   A    
C51   C52   S    
C70   H101  S    
C39   H31   S    
C15   C71   S    
C52   H60   S    
C56   C57   S    
C42   H41   S    
O14   V2    S    
C69   H104  S    
C58   H73   S    
C11   C15   S    
C70   H100  S    
C8    C26   S    
C46   H46   S    
C59   H84   S    
C30   C38   S    
O11   C7    A    
C29   C37   S    
O12   C8    A    
C72   H111  S    
C5    C27   S    
C10   C44   S    
C34   H34   S    
C13   C65   S    
C37   H29   S    
O10   V2    S    
C71   H112  S    
C45   C46   S    
C18   C26   S    
C53   H71   S    
H16   C36   S    
O5    V1    S    
C64   H87   S    
C7    C25   S    
C73   H109  S    
C23   C27   S    
O7    V3    S    
C72   C73   S    
C22   C26   S    
C53   H70   S    
C68   C69   S    
C36   H36   S    
C54   H69   S    
C12   H4    S    
C61   H81   S    
C68   H106  S    
C38   H26   S    
C12   C50   S    
C47   H56   S    
C37   H25   S    
O18   V4    S    
C49   H53   S    
C21   H21   S    
C51   H61   S    
C76   H114  S    
C9    H1    S    
C44   H50   S    
C1    C32   S    
O8    V4    S    
C11   H3    S    
C67   H93   S    
O5    C1    A    
C19   C59   S    
C3    C30   S    
C22   C38   S    
C65   H99   S    
C30   C34   S    
C74   C75   S    
C16   C32   S    
O8    C4    A    
C70   H102  S    
C4    C29   S    
C24   H24   S    
H10   C18   S    
O9    C5    A    
C42   H40   S    
C43   H38   S    
C66   H97   S    
C69   H103  S    
C57   C58   S    
C58   H74   S    
C6    C28   S    
C47   C48   S    
C19   C35   S    
C21   C37   S    
C57   H76   S    
C60   H83   S    
C59   H85   S    
C44   H49   S    
O6    V2    S    
C23   H19   S    
C14   C30   S    
C72   H110  S    
C52   H58   S    
C17   C33   S    
C62   H92   S    
C12   C16   S    
H11   C19   S    
O9    V1    S    
H15   C35   S    
C50   C51   S    
C71   H113  S    
H14   C34   S    
C63   C64   S    
C23   H23   S    
C60   C61   S    
O16   V4    S    
C51   H62   S    
C63   H90   S    
C55   H66   S    
C76   H116  S    
C57   H75   S    
C3    O13   A    
C11   C47   S    
C44   C45   S    
C23   C39   S    
C10   H2    S    
C20   C62   S    
C54   H68   S    
C17   C25   S    
C15   H7    S    
O6    C2    A    
C2    C31   S    
C12   C28   S    
O11   V3    S    
O12   V4    S    
C74   H119  S    
C17   C53   S    
C67   H95   S    
C16   C74   S    
C21   H17   S    
C69   C70   S    
C62   H91   S    
C18   C34   S    
C41   H43   S    
C76   H115  S    
C9    C13   S    
C32   C40   S    
O2    C6    A    
C56   H78   S    
C31   C35   S    
C20   C36   S    
O10   C6    A    
C75   H118  S    
O20   V2    S    
C64   H88   S    
C43   H39   S    
C66   H96   S    
C24   H20   S    
C48   H55   S    
C42   C43   S    
C50   H63   S    
C11   C27   S    
C64   H86   S    
C60   H82   S    
C21   C25   S    
C75   C76   S    
C20   C28   S    
H12   C20   S    
C29   C33   S    
C4    O14   A    
C43   H37   S    
C52   H59   S    
C13   H5    S    
C54   C55   S    
C22   H22   S    
C35   H35   S    
C73   H107  S    
C46   H45   S    
C48   C49   S    
C53   C54   S    
C41   H42   S    
C24   C40   S    
O4    V2    S    
C16   H8    S    
C56   H77   S    
C58   H72   S    
