data_mof_unit_22603.cif
_audit_creation_date              2012-12-10T21:21:32-0500
_audit_creation_method            fapswitch 2.2
_symmetry_space_group_name_H-M    P1
_symmetry_Int_Tables_number       1
_space_group_crystal_system       triclinic
_cell_length_a                    17.542792
_cell_length_b                    16.742885
_cell_length_c                    23.462019
_cell_angle_alpha                 90.054902
_cell_angle_beta                  90.35439
_cell_angle_gamma                 90.482418
_cell_volume                      6890.81304032

loop_
_atom_site_label
_atom_site_type_symbol
_atom_type_description
_atom_site_fract_x
_atom_site_fract_y
_atom_site_fract_z
_atom_type_partial_charge
C1    C     C_R   0.353563 0.499578 0.499630 0.929058
C2    C     C_R   0.646434 0.500240 0.499430 0.923306
C3    C     C_R   0.527949 0.561233 0.235970 -0.219211
C4    C     C_R   0.473734 0.559468 0.764193 -0.218925
C5    C     C_R   0.525483 0.566542 0.295382 0.425688
C6    C     C_R   0.473833 0.564552 0.704753 0.429162
C7    C     C_R   0.501951 0.498973 0.326897 -0.143337
C8    C     C_R   0.501042 0.499280 0.672942 -0.141026
C9    C     C_R   0.479783 0.428529 0.298540 -0.303609
C10   C     C_R   0.529995 0.431761 0.700839 -0.307843
C11   C     C_R   0.480604 0.424872 0.239604 -0.101223
C12   C     C_R   0.531281 0.428383 0.759808 -0.099399
C13   C     C_R   0.504563 0.491165 0.208381 0.274557
C14   C     C_R   0.503001 0.492061 0.791413 0.274170
C15   C     C_R   0.844013 0.526341 0.441831 0.449794
C16   C     C_R   0.156912 0.450699 0.447544 0.413142
C17   C     C_R   0.148064 0.522099 0.538434 0.430496
C18   C     C_R   0.849031 0.448950 0.530350 0.408849
C19   C     C_R   0.764667 0.533384 0.447056 -0.030381
C20   C     C_R   0.236166 0.460200 0.448357 0.022396
C21   C     C_R   0.227664 0.528486 0.541473 -0.014170
C22   C     C_R   0.770824 0.459451 0.538113 0.024053
C23   C     C_R   0.728659 0.499629 0.495466 -0.240709
C24   C     C_R   0.271261 0.497494 0.496136 -0.242883
C25   C     C_R   0.885141 0.486322 0.484167 -0.177853
C26   C     C_R   0.113719 0.486456 0.490488 -0.187817
C27   C     C_R   0.500838 0.499953 0.389093 0.882743
C28   C     C_R   0.499759 0.500012 0.610852 0.899814
C29   C     C_1   0.965719 0.488342 0.483121 0.073346
C30   C     C_1   0.033379 0.488297 0.485114 0.054000
C31   C     C_R   0.434541 0.831812 0.482318 0.086875
C32   C     C_R   0.518227 0.167977 0.550657 0.080070
C33   C     C_R   0.565410 0.832726 0.518753 0.083759
C34   C     C_R   0.482652 0.167051 0.449772 0.082527
C35   C     C_R   0.437109 0.747158 0.481834 -0.054603
C36   C     C_R   0.518081 0.252690 0.548673 -0.030588
C37   C     C_R   0.562811 0.748024 0.518603 -0.048985
C38   C     C_R   0.482455 0.251796 0.451404 -0.035869
C39   C     C_R   0.500087 0.875232 0.500483 0.020571
C40   C     C_R   0.500398 0.124540 0.500326 0.010903
C41   C     C_1   0.500240 0.963377 0.500531 -0.080175
C42   C     C_1   0.500351 0.036358 0.500502 -0.076272
C43   C     C_R   0.570601 0.491828 0.880416 0.511324
C44   C     C_R   0.437490 0.484817 0.119333 0.511575
C45   C     C_R   0.434772 0.481254 0.879568 0.501979
C46   C     C_R   0.573606 0.487736 0.120247 0.501648
C47   C     C_R   0.432218 0.481806 0.939813 -0.047239
C48   C     C_R   0.576137 0.488659 0.059984 -0.046952
C49   C     C_R   0.503103 0.485491 0.969828 -0.053807
C50   C     C_R   0.505243 0.485489 0.029951 -0.053924
C51   C     C_R   0.572181 0.489721 0.939748 -0.039548
C52   C     C_R   0.436099 0.482828 0.060015 -0.039762
C53   C     C_R   0.362827 0.479028 0.971371 0.157408
C54   C     C_R   0.645478 0.492700 0.028417 0.157894
C55   C     C_R   0.366512 0.479516 0.030829 -0.199592
C56   C     C_R   0.641766 0.493080 0.968945 -0.199968
H1    H     H_    0.388989 0.712222 0.467120 0.161712
H2    H     H_    0.532475 0.287442 0.585939 0.160867
H3    H     H_    0.610773 0.713693 0.533277 0.159666
H4    H     H_    0.468420 0.285839 0.413903 0.159799
H5    H     H_    0.313834 0.478307 0.054735 0.188942
H6    H     H_    0.694343 0.497076 0.945042 0.188646
H7    H     H_    0.548748 0.611204 0.211062 0.143580
H8    H     H_    0.449998 0.607322 0.789408 0.142993
H9    H     H_    0.461871 0.376024 0.321910 0.171781
H10   H     H_    0.551775 0.381511 0.677033 0.171105
H11   H     H_    0.463168 0.370393 0.218084 0.149607
H12   H     H_    0.553489 0.376022 0.781050 0.150136
N1    N     N_R   0.502833 0.487906 0.852042 -0.341830
N2    N     N_R   0.505279 0.487429 0.147742 -0.341782
N3    N     N_R   0.500000 0.707230 0.500000 -0.129390
N4    N     N_R   0.500000 0.292770 0.500000 -0.128283
O1    O     O_R   0.389110 0.566570 0.500000 -0.627313
O2    O     O_R   0.610890 0.433430 0.500000 -0.608120
O3    O     O_R   0.610890 0.566570 0.500000 -0.629160
O4    O     O_R   0.389110 0.433430 0.500000 -0.609220
O5    O     O_R   0.499970 0.566560 0.416150 -0.584652
O6    O     O_R   0.500030 0.433440 0.583850 -0.637218
O7    O     O_R   0.500030 0.566560 0.583850 -0.585076
O8    O     O_R   0.499970 0.433440 0.416150 -0.635480
O9    O     O_2   0.636272 0.498472 0.850965 -0.576033
O10   O     O_2   0.371535 0.484870 0.148757 -0.574955
O11   O     O_2   0.370800 0.473475 0.847979 -0.577174
O12   O     O_2   0.637888 0.486424 0.151868 -0.580190
Zn1   Zn    Zn3+2 0.500000 0.588860 0.500000 0.943685
Zn2   Zn    Zn3+2 0.500000 0.411140 0.500000 0.928234
C57   C     C_3   0.283277 0.478159 0.945203 -0.344913
C58   C     C_3   0.260302 0.561314 0.924829 -0.781665
H13   H     H_    0.301998 0.586360 0.894187 0.281154
H14   H     H_    0.203535 0.557974 0.903732 0.241751
H15   H     H_    0.256636 0.602531 0.961828 0.239167
H16   H     H_    0.277539 0.432736 0.911065 0.246708
H17   H     H_    0.240272 0.458963 0.977141 0.174281
C59   C     C_3   0.724815 0.499247 0.054607 -0.344949
C60   C     C_3   0.741966 0.584261 0.075107 -0.783842
H18   H     H_    0.742860 0.625704 0.038161 0.239558
H19   H     H_    0.698620 0.605333 0.105729 0.281263
H20   H     H_    0.798740 0.586200 0.096266 0.240781
H21   H     H_    0.733644 0.454487 0.088690 0.246198
H22   H     H_    0.769010 0.484139 0.022651 0.174262
O13   O     O_3   0.554964 0.633448 0.322668 -0.642991
C61   C     C_3   0.505125 0.698353 0.314655 0.100977
H23   H     H_    0.448740 0.684944 0.334292 0.142927
H24   H     H_    0.496894 0.711930 0.268578 0.128152
C62   C     C_3   0.539590 0.772308 0.343413 -0.311950
H25   H     H_    0.547605 0.760470 0.389596 0.236893
H26   H     H_    0.596337 0.785539 0.324680 0.217703
C63   C     C_3   0.488697 0.844981 0.335679 -0.975998
H27   H     H_    0.485214 0.861580 0.289922 0.265968
H28   H     H_    0.512794 0.896313 0.360027 0.266591
H29   H     H_    0.430456 0.831927 0.351499 0.271877
O14   O     O_3   0.439242 0.628379 0.677799 -0.640274
C64   C     C_3   0.484956 0.697562 0.684995 0.099812
H30   H     H_    0.542687 0.688066 0.666651 0.141809
H31   H     H_    0.490727 0.713760 0.730872 0.128439
C65   C     C_3   0.447312 0.767156 0.653910 -0.307625
H32   H     H_    0.441210 0.752338 0.607977 0.238230
H33   H     H_    0.389491 0.776940 0.671551 0.217173
C66   C     C_3   0.494020 0.843947 0.660388 -0.977570
H34   H     H_    0.495671 0.862969 0.705744 0.265614
H35   H     H_    0.467689 0.892114 0.634604 0.267598
H36   H     H_    0.553175 0.834691 0.645442 0.272096
O15   O     O_3   0.882554 0.564384 0.397971 -0.626868
C67   C     C_3   0.883577 0.515294 0.348693 0.041039
H37   H     H_    0.864053 0.552131 0.312119 0.177078
H38   H     H_    0.844851 0.461970 0.350644 0.110839
C68   C     C_3   0.964822 0.487801 0.337023 -0.295452
H39   H     H_    0.004593 0.539798 0.338807 0.250912
H40   H     H_    0.981691 0.444391 0.370264 0.235578
C69   C     C_3   0.970901 0.447749 0.278802 -0.957776
H41   H     H_    0.932559 0.394684 0.276495 0.259002
H42   H     H_    0.030446 0.428062 0.271982 0.278556
H43   H     H_    0.955363 0.490331 0.244449 0.268647
O16   O     O_3   0.121961 0.410862 0.402471 -0.642157
C70   C     C_3   0.098333 0.334209 0.421136 0.061355
H44   H     H_    0.047106 0.339036 0.448267 0.125326
H45   H     H_    0.143896 0.303665 0.446114 0.140614
C71   C     C_3   0.077605 0.282558 0.369499 -0.327999
H46   H     H_    0.029969 0.310412 0.345583 0.230174
H47   H     H_    0.127390 0.278405 0.340640 0.228284
C72   C     C_3   0.053315 0.198658 0.387623 -0.975174
H48   H     H_    0.100680 0.168627 0.410531 0.265994
H49   H     H_    0.038099 0.162797 0.349317 0.271145
H50   H     H_    0.002806 0.201433 0.415882 0.262196
O17   O     O_3   0.103713 0.556082 0.580555 -0.626908
C73   C     C_3   0.078359 0.495478 0.618043 0.062715
H51   H     H_    0.127588 0.466200 0.639446 0.119330
H52   H     H_    0.044509 0.449050 0.595008 0.166187
C74   C     C_3   0.027710 0.532905 0.663359 -0.276537
H53   H     H_    0.061186 0.578323 0.687663 0.219126
H54   H     H_    0.978935 0.563177 0.642270 0.239479
C75   C     C_3   0.996968 0.470188 0.704606 -0.951465
H55   H     H_    0.960586 0.426075 0.681546 0.287860
H56   H     H_    0.961915 0.499697 0.737626 0.267606
H57   H     H_    0.044692 0.438668 0.725993 0.259839
O18   O     O_3   0.891012 0.408177 0.571073 -0.645023
C76   C     C_3   0.909182 0.331808 0.549430 0.065388
H58   H     H_    0.951088 0.336918 0.514437 0.124375
H59   H     H_    0.857586 0.300094 0.532654 0.143043
C77   C     C_3   0.944512 0.281721 0.596955 -0.339047
H60   H     H_    0.996693 0.312134 0.613439 0.214605
H61   H     H_    0.903354 0.275605 0.632540 0.226611
C78   C     C_3   0.965780 0.198822 0.575494 -0.968178
H62   H     H_    0.914266 0.166499 0.559702 0.265691
H63   H     H_    0.991411 0.163975 0.610885 0.269648
H64   H     H_    0.007976 0.203650 0.540506 0.260854
C79   C     C_3   0.720036 0.577984 0.401367 -0.295250
C80   C     C_3   0.724724 0.668023 0.410877 -0.758463
H65   H     H_    0.699799 0.683795 0.452669 0.244620
H66   H     H_    0.784876 0.689066 0.409678 0.268953
H67   H     H_    0.692384 0.699044 0.376823 0.248254
H68   H     H_    0.741566 0.563832 0.358304 0.195644
H69   H     H_    0.659408 0.559212 0.399793 0.217453
C81   C     C_3   0.281548 0.436210 0.396018 -0.293684
C82   C     C_3   0.300597 0.347436 0.395612 -0.837407
H70   H     H_    0.325547 0.328418 0.436905 0.270302
H71   H     H_    0.249208 0.310837 0.386528 0.256185
H72   H     H_    0.342183 0.335769 0.361326 0.226203
H73   H     H_    0.249091 0.450914 0.356616 0.228819
H74   H     H_    0.335244 0.471403 0.392996 0.172460
C83   C     C_3   0.264613 0.568277 0.593183 -0.302217
C84   C     C_3   0.265970 0.658929 0.586798 -0.764253
H75   H     H_    0.300936 0.676595 0.549602 0.247759
H76   H     H_    0.207279 0.682071 0.581119 0.268652
H77   H     H_    0.291238 0.686364 0.625687 0.246857
H78   H     H_    0.233261 0.552470 0.632561 0.208986
H79   H     H_    0.323580 0.546977 0.600543 0.205948
C85   C     C_3   0.734574 0.434109 0.594217 -0.300102
C86   C     C_3   0.713911 0.345348 0.595514 -0.838357
H80   H     H_    0.685058 0.326340 0.555477 0.270090
H81   H     H_    0.765432 0.308759 0.602246 0.256171
H82   H     H_    0.674955 0.333801 0.631694 0.226410
H83   H     H_    0.773886 0.447997 0.630295 0.227139
H84   H     H_    0.682444 0.469193 0.602870 0.171754
C87   C     C_3   0.363543 0.877401 0.464249 -0.400086
C88   C     C_3   0.295559 0.826455 0.444501 -0.904997
H85   H     H_    0.310933 0.789961 0.406794 0.253667
H86   H     H_    0.275518 0.787212 0.479558 0.260646
H87   H     H_    0.247893 0.866164 0.432074 0.261921
H88   H     H_    0.344647 0.914427 0.500802 0.217251
H89   H     H_    0.378797 0.918642 0.428944 0.213656
C89   C     C_3   0.536924 0.122283 0.605090 -0.384684
C90   C     C_3   0.553379 0.173107 0.658021 -0.915157
H90   H     H_    0.604847 0.210863 0.651458 0.254533
H91   H     H_    0.503646 0.211017 0.668317 0.262271
H92   H     H_    0.564410 0.133308 0.694942 0.261399
H93   H     H_    0.488119 0.082005 0.615109 0.216191
H94   H     H_    0.587491 0.084345 0.597198 0.210885
C91   C     C_3   0.636032 0.879323 0.537998 -0.400214
C92   C     C_3   0.702720 0.829388 0.559800 -0.908233
H95   H     H_    0.685120 0.792924 0.597072 0.254298
H96   H     H_    0.724477 0.790230 0.525443 0.259926
H97   H     H_    0.749871 0.869792 0.573566 0.261657
H98   H     H_    0.656613 0.916002 0.501659 0.217452
H99   H     H_    0.619676 0.920895 0.572722 0.213400
C93   C     C_3   0.464679 0.120284 0.395459 -0.384370
C94   C     C_3   0.448081 0.170026 0.342264 -0.917906
H100  H     H_    0.396029 0.206068 0.348454 0.256914
H101  H     H_    0.497383 0.209430 0.332051 0.260356
H102  H     H_    0.437914 0.129506 0.305448 0.261964
H103  H     H_    0.513897 0.081239 0.385777 0.215383
H104  H     H_    0.414403 0.081047 0.403328 0.210922

loop_
_geom_bond_atom_site_label_1
_geom_bond_atom_site_label_2
_ccdc_geom_bond_type
C70   C71   S    
C57   C58   S    
C76   H58   S    
C81   H74   S    
C41   C42   T    
C58   H14   S    
C53   C55   A    
C69   H42   S    
C60   H18   S    
C90   H90   S    
C16   O16   S    
C68   H40   S    
O17   C73   S    
C83   H79   S    
C60   H20   S    
C70   H44   S    
C47   C49   A    
C83   C84   S    
C65   H32   S    
C94   H102  S    
C21   C83   S    
C90   H91   S    
C33   C39   A    
C15   O15   S    
C34   C40   A    
C17   C26   A    
C32   C36   A    
O18   C76   S    
C78   H63   S    
C64   H30   S    
C44   O10   S    
C72   H49   S    
C92   H95   S    
C80   H66   S    
C15   C25   A    
C13   N2    S    
C55   H5    S    
C93   H103  S    
C7    C27   S    
C63   H27   S    
C82   H71   S    
C61   C62   S    
C70   H45   S    
C51   C56   A    
C45   C47   A    
C86   H81   S    
C28   O7    A    
C81   C82   S    
O8    Zn2   S    
C15   C19   A    
C33   C91   S    
O3    Zn1   S    
C80   H67   S    
C20   C81   S    
C78   H62   S    
C65   H33   S    
C49   C51   A    
C50   C52   A    
C75   H57   S    
C44   N2    A    
C28   O6    A    
C3    C13   A    
C52   C55   A    
C47   C53   A    
C64   C65   S    
O6    Zn2   S    
C40   C42   S    
C35   N3    A    
C76   H59   S    
C34   C38   A    
C57   H16   S    
C32   C89   S    
C45   O11   S    
C18   C25   A    
C19   C79   S    
C88   H87   S    
O14   C64   S    
C62   C63   S    
C11   H11   S    
C82   H72   S    
C73   H52   S    
C10   H10   S    
C16   C26   A    
C90   H92   S    
C38   N4    A    
C54   C59   S    
C89   C90   S    
C73   H51   S    
C45   N1    A    
O13   C61   S    
C20   C24   A    
O15   C67   S    
C78   H64   S    
C93   C94   S    
C39   C41   S    
C27   O8    A    
C74   C75   S    
C79   C80   S    
C5    C7    A    
C93   H104  S    
C6    C8    A    
C3    C5    A    
C94   H100  S    
C17   C21   A    
C85   C86   S    
C84   H77   S    
C77   H61   S    
C48   C54   A    
C86   H82   S    
C19   C23   A    
C77   C78   S    
C29   C30   T    
C73   C74   S    
C62   H26   S    
C82   H70   S    
C58   H15   S    
C59   H22   S    
C16   C20   A    
C60   H19   S    
C91   C92   S    
C59   C60   S    
C53   C57   S    
C91   H99   S    
O2    Zn2   S    
C66   H34   S    
C61   H24   S    
C9    C11   A    
O1    Zn1   S    
C37   H3    S    
C66   H35   S    
C10   C12   A    
C67   C68   S    
C38   H4    S    
C4    C6    A    
C80   H65   S    
C12   C14   A    
C85   H83   S    
C26   C30   S    
C76   C77   S    
C92   H96   S    
C89   H93   S    
C37   N3    A    
C17   O17   S    
C8    C28   S    
C14   N1    S    
C56   H6    S    
C72   H50   S    
C69   H43   S    
C68   H39   S    
C85   H84   S    
O4    Zn2   S    
O7    Zn1   S    
C18   O18   S    
C67   H38   S    
C87   H88   S    
C66   H36   S    
C86   H80   S    
C7    C9    A    
C65   C66   S    
C84   H76   S    
C18   C22   A    
C1    O4    A    
C6    O14   S    
C8    C10   A    
C75   H56   S    
C88   H85   S    
C27   O5    A    
C71   C72   S    
C2    O2    A    
N4    Zn2   S    
C83   H78   S    
C63   H29   S    
C54   C56   A    
C79   H68   S    
C71   H47   S    
C3    H7    S    
C94   H101  S    
C92   H97   S    
C62   H25   S    
C4    H8    S    
O16   C70   S    
C36   H2    S    
C91   H98   S    
C5    O13   S    
C79   H69   S    
C35   H1    S    
C1    O1    A    
C77   H60   S    
C12   H12   S    
C74   H54   S    
C69   H41   S    
C68   C69   S    
C4    C14   A    
C34   C93   S    
C72   H48   S    
C87   H89   S    
C25   C29   S    
C31   C87   S    
C11   C13   A    
C44   C52   A    
C59   H21   S    
C43   C51   A    
C43   O9    S    
C57   H17   S    
C31   C35   A    
C48   C50   A    
C63   H28   S    
C33   C37   A    
C46   O12   S    
N3    Zn1   S    
C32   C40   A    
C22   C85   S    
C61   H23   S    
C9    H9    S    
C46   N2    A    
C88   H86   S    
C71   H46   S    
O5    Zn1   S    
C87   C88   S    
C46   C48   A    
C36   N4    A    
C58   H13   S    
C1    C24   S    
C43   N1    A    
C49   C50   A    
C21   C24   A    
C2    C23   S    
C31   C39   A    
C22   C23   A    
C89   H94   S    
C75   H55   S    
C74   H53   S    
C81   H73   S    
C2    O3    A    
C84   H75   S    
C67   H37   S    
C64   H31   S    
