data_mof_unit_46380.cif
_audit_creation_date              2013-03-05T16:04:06-0500
_audit_creation_method            fapswitch 2.2
_symmetry_space_group_name_H-M    P1
_symmetry_Int_Tables_number       1
_space_group_crystal_system       triclinic
_cell_length_a                    10.828554
_cell_length_b                    9.521107
_cell_length_c                    10.782155
_cell_angle_alpha                 89.959526
_cell_angle_beta                  90.033938
_cell_angle_gamma                 89.964756
_cell_volume                      1111.63757065

loop_
_atom_site_label
_atom_site_type_symbol
_atom_site_description
_atom_site_fract_x
_atom_site_fract_y
_atom_site_fract_z
_atom_type_partial_charge
O1    O     O_R   0.319640 0.618740 0.499990 -0.581798
O2    O     O_R   0.680360 0.618740 0.500010 -0.593610
O3    O     O_R   0.319620 0.381170 0.499990 -0.589846
O4    O     O_R   0.680380 0.381170 0.500010 -0.584718
C1    C     C_R   0.262062 0.499985 0.500268 0.806966
C2    C     C_R   0.737920 0.499925 0.500467 0.777317
O5    O     O_R   0.500000 0.618810 0.319650 -0.581505
O6    O     O_R   0.500000 0.618810 0.680350 -0.577151
O7    O     O_R   0.499970 0.381240 0.319640 -0.576494
O8    O     O_R   0.500030 0.381240 0.680360 -0.580309
C3    C     C_R   0.504760 0.500112 0.262497 0.791884
C4    C     C_R   0.504218 0.499997 0.737500 0.792604
Cu1   Cu    Cu3+1 0.500000 0.640660 0.500000 0.971531
Cu2   Cu    Cu3+1 0.500000 0.359340 0.500000 0.964970
C5    C     C_R   0.700632 0.649659 0.128611 -0.305389
C6    C     C_R   0.700982 0.647638 0.870238 -0.322464
C7    C     C_R   0.792226 0.724155 0.064397 0.298731
C8    C     C_R   0.793812 0.720691 0.933684 0.296442
C9    C     C_R   0.606007 0.576487 0.934315 0.050526
C10   C     C_R   0.606253 0.576661 0.065168 0.044529
C11   C     C_R   0.513593 0.500087 0.128738 -0.055571
C12   C     C_R   0.513263 0.499788 0.871187 -0.056959
C13   C     C_R   0.427071 0.420048 0.064041 -0.176821
C14   C     C_R   0.426874 0.419946 0.936179 -0.170905
C15   C     C_R   0.063904 0.372594 0.493540 -0.159798
C16   C     C_R   0.936167 0.372538 0.493727 -0.149831
H1    H     H_    0.112020 0.273090 0.487002 0.164209
H2    H     H_    0.888171 0.273010 0.487320 0.171184
C17   C     C_R   0.871733 0.499850 0.501388 -0.055642
C18   C     C_R   0.128193 0.499969 0.501064 -0.056103
C19   C     C_R   0.935997 0.627109 0.509701 -0.057433
C20   C     C_R   0.063734 0.627227 0.509419 -0.096078
C21   C     C_R   0.422385 0.074527 0.423887 -0.004104
C22   C     C_R   0.577654 0.074281 0.576078 0.005173
H3    H     H_    0.360193 0.130689 0.362908 0.128293
H4    H     H_    0.639871 0.130228 0.637050 0.140277
C23   C     C_R   0.422402 0.925707 0.423874 -0.000388
C24   C     C_R   0.577610 0.925468 0.576102 0.009756
H5    H     H_    0.360220 0.869726 0.362896 0.139483
H6    H     H_    0.639661 0.869293 0.637123 0.156332
N1    N     N_R   0.500000 0.852070 0.500000 -0.172201
N2    N     N_R   0.500000 0.147940 0.500000 -0.169736
H7    H     H_    0.357378 0.359941 0.112948 0.154311
H8    H     H_    0.357042 0.359804 0.887513 0.161560
H9    H     H_    0.704232 0.650229 0.228735 0.198451
H10   H     H_    0.707285 0.642530 0.770313 0.182129
N3    N     N_R   0.880468 0.805913 0.133030 0.152168
O9    O     O_R   0.915822 0.765580 0.242766 -0.383716
O10   O     O_R   0.913068 0.929732 0.093750 -0.300189
N4    N     N_R   0.892399 0.784112 0.864253 0.150046
O11   O     O_R   0.870734 0.838877 0.755798 -0.408596
O12   O     O_R   0.006231 0.770977 0.901278 -0.301306
H11   H     H_    0.887821 0.726580 0.515818 0.191915
H12   H     H_    0.111699 0.726782 0.515666 0.167875

loop_
_geom_bond_atom_site_label_1
_geom_bond_atom_site_label_2
_geom_bond_distance
_ccdc_geom_bond_type
C7    C8    1.409898 A    
N4    O12   1.301373 A    
O7    Cu2   1.955669 S    
O6    Cu1   1.955512 S    
C15   H1    1.083288 S    
C7    N3    1.437882 S    
C16   H2    1.083282 S    
N3    O9    1.300997 A    
C22   N2    1.367273 A    
O6    C4    1.288565 A    
Cu2   N2    2.012762 S    
C9    C12   1.416311 A    
Cu1   N1    2.012857 S    
N4    O11   1.301155 A    
C23   H5    1.081749 S    
Cu1   Cu2   2.678478 S    
C19   H11   1.083034 S    
C18   C20   1.400920 A    
O7    C3    1.289332 A    
O2    C2    1.291263 A    
O3    Cu2   1.964155 S    
O8    C4    1.288844 A    
C16   C17   1.400758 A    
C6    C9    1.412443 A    
O1    C1    1.291527 A    
C21   N2    1.367160 A    
C6    C8    1.401047 A    
C24   H6    1.081190 S    
N3    O10   1.301446 A    
O5    C3    1.288629 A    
C22   H4    1.081781 S    
C11   C13   1.394992 A    
O4    Cu2   1.964408 S    
C5    C10   1.412856 A    
C14   H8    1.084220 S    
C12   C14   1.394611 A    
O4    C2    1.291343 A    
O1    Cu1   1.964285 S    
C5    H9    1.080256 S    
C13   C14   1.378633 A    
C6    H10   1.080725 S    
C4    C12   1.444694 S    
O5    Cu1   1.955806 S    
C2    C17   1.449026 S    
C13   H7    1.084291 S    
C10   C11   1.417427 A    
C8    N4    1.437295 S    
C24   N1    1.366979 A    
C17   C19   1.400536 A    
C1    C18   1.449630 S    
O8    Cu2   1.955961 S    
C20   H12   1.083244 S    
C15   C18   1.401102 A    
C5    C7    1.402556 A    
O2    Cu1   1.964030 S    
C21   H3    1.081800 S    
C15   C16   1.383212 A    
C22   C24   1.416867 A    
C23   N1    1.367101 A    
C3    C11   1.445433 S    
C19   C20   1.383211 A    
C21   C23   1.416930 A    
C9    C10   1.410877 A    
O3    C1    1.291260 A    
