data_mof_unit_37432.cif
_audit_creation_date              2012-12-10T20:24:52-0500
_audit_creation_method            fapswitch 2.2
_symmetry_space_group_name_H-M    P1
_symmetry_Int_Tables_number       1
_space_group_crystal_system       triclinic
_cell_length_a                    10.723729
_cell_length_b                    19.242546
_cell_length_c                    18.489
_cell_angle_alpha                 88.978166
_cell_angle_beta                  90.285547
_cell_angle_gamma                 90.771081
_cell_volume                      3814.24422139

loop_
_atom_site_label
_atom_site_type_symbol
_atom_type_description
_atom_site_fract_x
_atom_site_fract_y
_atom_site_fract_z
_atom_type_partial_charge
C1    C     C_R   0.497739 0.365504 0.500548 0.945893
C2    C     C_R   0.453926 0.182181 0.568329 0.151167
C3    C     C_R   0.468014 0.852652 0.495544 0.091713
C4    C     C_R   0.456093 0.146445 0.502683 0.102819
C5    C     C_R   0.417930 0.814063 0.553808 0.443821
C6    C     C_R   0.471093 0.182042 0.436353 0.474894
C7    C     C_R   0.430804 0.742015 0.555009 -0.312353
C8    C     C_R   0.485949 0.254211 0.436229 -0.330155
C9    C     C_R   0.491553 0.709292 0.498428 -0.107107
C10   C     C_R   0.485689 0.290142 0.501457 -0.117009
C11   C     C_R   0.354018 0.961547 0.479207 -0.363206
C12   C     C_R   0.499861 0.634308 0.499437 0.955883
C13   C     C_R   0.564888 0.037223 0.523187 -0.355602
C14   C     C_R   0.348888 0.033996 0.480960 0.490757
C15   C     C_R   0.570664 0.964978 0.520341 0.495460
C16   C     C_R   0.259948 0.501390 0.499526 0.936963
C17   C     C_R   0.739965 0.498544 0.500506 0.920700
C18   C     C_R   0.455206 0.071117 0.503299 0.093069
C19   C     C_R   0.464578 0.927823 0.497817 0.101771
C20   C     C_R   0.559673 0.552704 0.724348 -0.086058
C21   C     C_R   0.445659 0.446272 0.274549 -0.071043
C22   C     C_R   0.563759 0.554219 0.800268 -0.379888
C23   C     C_R   0.872277 0.498151 0.501655 -0.082556
C24   C     C_R   0.446475 0.444729 0.198545 -0.386151
C25   C     C_R   0.510153 0.499763 0.841689 0.031288
C26   C     C_R   0.499695 0.500070 0.158097 0.002886
C27   C     C_R   0.449863 0.445137 0.805338 0.414939
C28   C     C_R   0.553746 0.555871 0.195652 0.389611
C29   C     C_R   0.443327 0.446948 0.728679 0.430716
C30   C     C_R   0.555677 0.554051 0.272342 0.442923
C31   C     C_R   0.549933 0.442086 0.963759 -0.075267
C32   C     C_R   0.464613 0.558313 0.035783 -0.096254
C33   C     C_R   0.543593 0.441305 0.039687 -0.230995
C34   C     C_R   0.127520 0.502524 0.498583 -0.095054
C35   C     C_R   0.470802 0.559051 0.959926 -0.229325
C36   C     C_R   0.501176 0.499490 0.076835 0.167856
C37   C     C_R   0.512668 0.500789 0.922808 0.175361
C38   C     C_R   0.242001 0.653119 0.313592 0.251596
C39   C     C_R   0.761997 0.342104 0.682811 0.246537
C40   C     C_R   0.190129 0.622736 0.376926 0.398549
C41   C     C_R   0.820612 0.372275 0.621210 0.385152
C42   C     C_R   0.118250 0.561211 0.372427 -0.074482
C43   C     C_R   0.879753 0.437721 0.626119 -0.067159
C44   C     C_R   0.090937 0.532406 0.304129 0.057941
C45   C     C_R   0.939131 0.470205 0.560961 0.182342
C46   C     C_R   0.882298 0.473052 0.692234 0.021941
C47   C     C_R   0.128911 0.568123 0.240500 0.134167
C48   C     C_R   0.827229 0.442258 0.754366 0.148329
C49   C     C_R   0.205342 0.627915 0.244855 0.256972
C50   C     C_R   0.768784 0.376596 0.750099 0.287501
C51   C     C_R   0.932485 0.528225 0.442113 -0.234287
C52   C     C_R   0.067064 0.472564 0.558308 -0.238496
C53   C     C_3   0.082523 0.406952 0.319381 -0.708837
C54   C     C_3   0.064692 0.541773 0.727032 -0.729441
C55   C     C_3   0.157826 0.499461 0.133735 -0.717916
C56   C     C_R   0.060457 0.530270 0.439046 0.157528
C57   C     C_3   0.909143 0.446409 0.878111 -0.647738
C58   C     C_3   0.496966 0.878114 0.323199 -0.718707
C59   C     C_3   0.312473 0.129228 0.654504 -0.708244
C60   C     C_R   0.540112 0.748034 0.440209 -0.217009
C61   C     C_R   0.468454 0.254115 0.567122 -0.215761
C62   C     C_R   0.528987 0.820028 0.438331 0.199588
H1    H     H_    0.392095 0.711453 0.599513 0.168517
H2    H     H_    0.429665 0.603691 0.062486 0.193483
H3    H     H_    0.573814 0.395555 0.069508 0.150276
H4    H     H_    0.439976 0.604669 0.930091 0.150377
H5    H     H_    0.879569 0.550985 0.397667 0.164112
H6    H     H_    0.119624 0.449436 0.602639 0.163944
H7    H     H_    0.587242 0.722492 0.396537 0.197363
H8    H     H_    0.464846 0.281721 0.617537 0.216647
H9    H     H_    0.257771 0.710733 0.190658 0.350904
H10   H     H_    0.725296 0.296509 0.810540 0.344915
H11   H     H_    0.176851 0.035474 0.447304 0.338368
H12   H     H_    0.498294 0.282060 0.385267 0.163750
H13   H     H_    0.742979 0.963630 0.553745 0.339453
H14   H     H_    0.357170 0.356921 0.814145 0.377836
H15   H     H_    0.640204 0.646152 0.188771 0.376629
H16   H     H_    0.345272 0.413788 0.649074 0.372289
H17   H     H_    0.655520 0.586845 0.351043 0.367701
H18   H     H_    0.386764 0.705278 0.279809 0.354552
H19   H     H_    0.630144 0.277211 0.711376 0.345424
H20   H     H_    0.245639 0.698641 0.438418 0.379122
H21   H     H_    0.775615 0.294737 0.558554 0.384576
H22   H     H_    0.964770 0.465076 0.253396 0.257891
H23   H     H_    0.273094 0.931366 0.462575 0.163355
H24   H     H_    0.159901 0.398002 0.281189 0.217486
H25   H     H_    0.016518 0.362073 0.317385 0.240762
H26   H     H_    0.120938 0.409599 0.375069 0.248162
H27   H     H_    0.883852 0.579454 0.711094 0.222097
H28   H     H_    0.125714 0.576137 0.693331 0.251173
H29   H     H_    0.106949 0.489297 0.729990 0.246275
H30   H     H_    0.060857 0.562948 0.782447 0.223838
H31   H     H_    0.052125 0.588128 0.139583 0.272046
H32   H     H_    0.108777 0.482782 0.083817 0.230653
H33   H     H_    0.176679 0.452588 0.167500 0.239146
H34   H     H_    0.645952 0.067305 0.539831 0.163712
H35   H     H_    0.246831 0.525346 0.118205 0.261399
H36   H     H_    0.832431 0.530275 0.820536 0.219192
H37   H     H_    0.991358 0.480724 0.888010 0.207526
H38   H     H_    0.943304 0.394240 0.863378 0.249843
H39   H     H_    0.854723 0.441170 0.928858 0.240708
H40   H     H_    0.663811 0.838583 0.360689 0.237577
H41   H     H_    0.544828 0.912783 0.283193 0.243876
H42   H     H_    0.415886 0.906150 0.344835 0.250061
H43   H     H_    0.463619 0.830691 0.295276 0.252943
H44   H     H_    0.487911 0.168689 0.677735 0.245357
H45   H     H_    0.604543 0.593978 0.693239 0.166627
H46   H     H_    0.310553 0.098445 0.705861 0.241063
H47   H     H_    0.267014 0.097779 0.611844 0.268719
H48   H     H_    0.259235 0.177738 0.661958 0.240536
H49   H     H_    0.330090 0.813298 0.645743 0.336622
H50   H     H_    0.485530 0.177859 0.331560 0.332112
H51   H     H_    0.402285 0.403931 0.304808 0.157758
H52   H     H_    0.610924 0.597062 0.826565 0.176461
H53   H     H_    0.403701 0.401017 0.171389 0.178085
H54   H     H_    0.584058 0.396616 0.936885 0.204295
N1    N     N_R   0.500020 0.499980 0.689440 -0.154979
N2    N     N_R   0.499980 0.500020 0.310560 -0.149970
N3    N     N_2   0.017555 0.470085 0.299799 -0.283723
N4    N     N_2   0.940839 0.539790 0.695364 -0.284345
N5    N     N_2   0.080747 0.547240 0.172181 -0.290038
N6    N     N_2   0.830979 0.476743 0.822046 -0.261863
N7    N     N_2   0.583216 0.859690 0.380549 -0.292045
N8    N     N_2   0.440279 0.145776 0.635598 -0.304188
O1    O     O_R   0.500010 0.398180 0.560840 -0.614454
O2    O     O_3   0.719570 0.347729 0.812812 -0.759776
O3    O     O_3   0.242422 0.069498 0.461469 -0.752549
O4    O     O_3   0.677597 0.929607 0.539292 -0.757842
O5    O     O_3   0.392562 0.392931 0.846101 -0.778362
O6    O     O_3   0.610731 0.609100 0.156183 -0.776721
O7    O     O_3   0.377747 0.394797 0.694971 -0.822129
O8    O     O_3   0.616920 0.606967 0.307272 -0.812784
O9    O     O_3   0.327292 0.706950 0.320550 -0.780988
O10   O     O_3   0.698296 0.279782 0.675473 -0.793794
O11   O     O_3   0.208300 0.651570 0.444199 -0.770567
O12   O     O_R   0.499990 0.601820 0.439160 -0.589912
O13   O     O_3   0.819914 0.340088 0.554850 -0.763758
O14   O     O_3   0.359357 0.848050 0.609157 -0.755369
O15   O     O_3   0.473996 0.145014 0.373005 -0.747372
O16   O     O_R   0.499950 0.398180 0.439210 -0.631115
O17   O     O_R   0.500050 0.601820 0.560790 -0.634269
O18   O     O_R   0.316790 0.500010 0.560810 -0.654673
O19   O     O_R   0.683210 0.499990 0.439190 -0.649619
O20   O     O_R   0.316730 0.500000 0.439190 -0.622465
O21   O     O_R   0.683270 0.500000 0.560810 -0.627853
O22   O     O_3   0.239685 0.661162 0.181021 -0.774962
Zn1   Zn    Zn3+2 0.500040 0.500000 0.581210 0.949034
Zn2   Zn    Zn3+2 0.499960 0.500000 0.418790 0.963321

loop_
_geom_bond_atom_site_label_1
_geom_bond_atom_site_label_2
_ccdc_geom_bond_type
C61   H8    S    
C43   C46   A    
C55   N5    S    
C34   C56   A    
C23   C45   A    
C54   N4    S    
C27   C29   A    
C14   C18   A    
C17   O21   A    
O20   Zn2   S    
O16   Zn2   S    
C33   H3    S    
C5    O14   S    
C39   C41   A    
C38   C49   A    
C15   C19   A    
C11   C19   A    
C58   N7    S    
C17   C23   S    
C2    C4    A    
C13   C18   A    
C32   C36   A    
C16   O20   A    
C1    O1    A    
C54   H28   S    
C48   N6    S    
C11   C14   A    
C47   N5    S    
C57   H37   S    
C6    O15   S    
C33   C36   A    
C12   O17   A    
C60   C62   A    
H13   O4    S    
C38   O9    S    
H20   O11   S    
C62   N7    S    
C25   C37   S    
C57   N6    S    
C22   C25   A    
C31   C33   A    
C3    C19   S    
C53   H24   S    
C50   O2    S    
C41   O13   S    
C52   H6    S    
C44   C47   A    
C20   H45   S    
C4    C18   S    
C40   C42   A    
C41   C43   A    
H50   O15   S    
C42   C44   A    
C55   H32   S    
C47   C49   A    
C20   N1    A    
O21   Zn1   S    
C2    C61   A    
O19   Zn2   S    
C40   O11   S    
C46   C48   A    
H9    O22   S    
C13   H34   S    
C32   C35   A    
H19   O10   S    
C32   H2    S    
C55   H33   S    
O1    Zn1   S    
C5    C7    A    
O17   Zn1   S    
C6    C8    A    
C30   N2    A    
C45   C52   A    
H11   O3    S    
C57   H38   S    
C29   N1    A    
C14   O3    S    
C31   C37   A    
H10   O2    S    
C16   O18   A    
H16   O7    S    
C54   H30   S    
C21   N2    A    
H14   O5    S    
C23   C51   A    
H27   N4    S    
C16   C34   S    
C55   H35   S    
C8    H12   S    
C46   N4    S    
C53   H25   S    
C51   H5    S    
C42   C56   S    
C48   C50   A    
C43   C45   S    
C7    H1    S    
O12   Zn2   S    
C1    O16   A    
C21   H51   S    
C20   C22   A    
C15   O4    S    
C13   C15   A    
C27   O5    S    
C4    C6    A    
C58   H42   S    
H40   N7    S    
C31   H54   S    
H21   O13   S    
C3    C62   A    
C26   C36   S    
C59   N8    S    
H36   N6    S    
H31   N5    S    
C35   C37   A    
C34   C52   A    
O18   Zn1   S    
C1    C10   S    
C51   C56   A    
C24   C26   A    
C3    C5    A    
C59   H48   S    
C53   N3    S    
C2    N8    S    
C25   C27   A    
C57   H39   S    
C26   C28   A    
C59   H46   S    
C35   H4    S    
C17   O19   A    
N1    Zn1   S    
C58   H43   S    
C9    C60   A    
C28   C30   A    
C54   H29   S    
C38   C40   A    
C44   N3    S    
C29   O7    S    
C60   H7    S    
C11   H23   S    
H22   N3    S    
C30   O8    S    
H17   O8    S    
N2    Zn2   S    
C59   H47   S    
C49   O22   S    
C53   H26   S    
C28   O6    S    
H15   O6    S    
C9    C12   S    
H18   O9    S    
C10   C61   A    
C7    C9    A    
C22   H52   S    
C39   C50   A    
C24   H53   S    
C8    C10   A    
C12   O12   A    
C21   C24   A    
H44   N8    S    
C58   H41   S    
H49   O14   S    
C39   O10   S    
