data_mof_unit_41108.cif
_audit_creation_date              2012-12-11T16:56:13-0500
_audit_creation_method            fapswitch 2.2
_symmetry_space_group_name_H-M    P1
_symmetry_Int_Tables_number       1
_space_group_crystal_system       triclinic
_cell_length_a                    6.982565
_cell_length_b                    14.64154
_cell_length_c                    16.119659
_cell_angle_alpha                 90.419287
_cell_angle_beta                  90.299742
_cell_angle_gamma                 90.726114
_cell_volume                      1647.80165176

loop_
_atom_site_label
_atom_site_type_symbol
_atom_type_description
_atom_site_fract_x
_atom_site_fract_y
_atom_site_fract_z
_atom_type_partial_charge
O1    O     O_R   0.505830 0.583360 0.413880 -0.542475
O2    O     O_R   0.175830 0.595460 0.585520 -0.546287
O3    O     O_R   0.005520 0.416640 0.586120 -0.543218
C1    C     C_R   0.345300 0.617205 0.614481 0.683348
O4    O     O_R   0.176120 0.594390 0.414490 -0.537405
O5    O     O_R   0.005810 0.415570 0.413870 -0.535742
C2    C     C_R   0.345187 0.616923 0.386484 0.730052
O6    O     O_R   0.505540 0.584430 0.586130 -0.539640
O7    O     O_3   0.339200 0.441330 0.500000 -0.370529
V1    V     V_3+5 0.064350 0.510880 0.500000 1.413722
O8    O     O_R   0.676100 0.404540 0.414480 -0.538161
C3    C     C_R   0.844096 0.383804 0.384567 0.713712
O9    O     O_R   0.675810 0.405610 0.585510 -0.541386
C4    C     C_R   0.844764 0.383769 0.613614 0.736049
V2    V     V_3+5 0.564340 0.489120 0.500000 1.420107
O10   O     O_3   0.839360 0.558670 0.500000 -0.379453
C5    C     C_2   0.721789 0.208849 0.786365 -0.126910
C6    C     C_2   0.886194 0.181748 0.822612 -0.308465
H1    H     H_    0.586605 0.180132 0.807531 0.137557
H2    H     H_    0.023116 0.209747 0.803558 0.128256
C7    C     C_2   0.708964 0.277273 0.718399 -0.134610
C8    C     C_2   0.861091 0.315573 0.680443 -0.307858
H3    H     H_    0.565779 0.296053 0.698830 0.135036
H4    H     H_    0.005303 0.297431 0.698238 0.130172
C9    C     C_R   0.731820 0.178564 0.244233 0.073391
C10   C     C_R   0.887820 0.177790 0.189533 -0.099780
C11   C     C_R   0.029566 0.246913 0.198665 -0.215527
H5    H     H_    0.145742 0.250930 0.154490 0.136835
C12   C     C_R   0.012487 0.316259 0.259524 -0.052562
C13   C     C_R   0.856888 0.316018 0.315116 -0.146090
C14   C     C_R   0.711214 0.251286 0.301008 0.051433
C15   C     C_3   0.517841 0.271020 0.265081 -0.231317
C16   C     C_3   0.526982 0.182182 0.217863 -0.438535
H6    H     H_    0.402062 0.274664 0.311830 0.131672
H7    H     H_    0.502856 0.188393 0.149842 0.188252
H8    H     H_    0.440580 0.126619 0.246648 0.158508
C17   C     C_R   0.510942 0.746305 0.692434 0.099892
C18   C     C_R   0.353927 0.686791 0.682126 -0.108535
C19   C     C_R   0.200442 0.696940 0.737845 -0.171992
H9    H     H_    0.076505 0.652367 0.732692 0.133100
C20   C     C_R   0.211312 0.759919 0.804509 -0.174578
H10   H     H_    0.094727 0.762640 0.848250 0.133829
C21   C     C_R   0.376635 0.814281 0.817932 -0.110053
C22   C     C_R   0.522092 0.808270 0.758594 0.102076
C23   C     C_3   0.730446 0.792059 0.770671 -0.411015
C24   C     C_3   0.718273 0.724920 0.698462 -0.401479
H11   H     H_    0.760930 0.758906 0.831048 0.174952
H12   H     H_    0.818790 0.853798 0.757093 0.171091
H13   H     H_    0.742229 0.652906 0.716852 0.170248
H14   H     H_    0.799075 0.747969 0.643023 0.172042
C25   C     C_R   0.502403 0.683515 0.259430 0.113214
C26   C     C_R   0.352523 0.683052 0.316834 -0.109187
C27   C     C_R   0.202529 0.744891 0.302578 -0.168365
H15   H     H_    0.081682 0.746764 0.344111 0.122000
C28   C     C_R   0.212852 0.809034 0.237539 -0.177311
H16   H     H_    0.098906 0.857773 0.230637 0.124348
C29   C     C_R   0.374640 0.813976 0.185508 -0.106863
C30   C     C_R   0.514502 0.748274 0.196889 0.099968
C31   C     C_3   0.725690 0.758833 0.206424 -0.444896
C32   C     C_3   0.713457 0.684769 0.272240 -0.250868
H17   H     H_    0.765768 0.826938 0.232511 0.158522
H18   H     H_    0.803249 0.739558 0.148868 0.184196
H19   H     H_    0.758335 0.706110 0.335745 0.122809
O11   O     O_R   0.229930 0.912420 0.917160 -0.540004
O12   O     O_R   0.559420 0.902500 0.088780 -0.539365
O13   O     O_R   0.729660 0.081330 0.089380 -0.539790
C33   C     C_R   0.389920 0.882243 0.118343 0.699221
O14   O     O_R   0.559650 0.901420 0.917750 -0.538846
O15   O     O_R   0.729880 0.080250 0.917130 -0.536898
C34   C     C_R   0.389885 0.879486 0.888965 0.698394
O16   O     O_R   0.229700 0.913500 0.089410 -0.540448
O17   O     O_3   0.396250 0.055540 0.003280 -0.373640
V3    V     V_3+5 0.671130 0.986010 0.003260 1.402212
O18   O     O_R   0.059600 0.091310 0.917720 -0.543626
C35   C     C_R   0.891157 0.113183 0.889597 0.747870
O19   O     O_R   0.059370 0.092380 0.088750 -0.546092
C36   C     C_R   0.892244 0.112908 0.118507 0.702464
V4    V     V_3+5 0.171120 0.007820 0.003230 1.396034
O20   O     O_3   0.896130 0.938240 0.003240 -0.372262
C37   C     C_1   0.793414 0.598690 0.242994 0.403762
N1    N     N_1   0.853256 0.531011 0.217696 -0.339798
C38   C     C_1   0.134777 0.396107 0.256105 0.354029
N2    N     N_1   0.226947 0.462335 0.255040 -0.339169
C39   C     C_1   0.530743 0.347626 0.205639 0.384020
N3    N     N_1   0.543397 0.405869 0.157719 -0.317366

loop_
_geom_bond_atom_site_label_1
_geom_bond_atom_site_label_2
_ccdc_geom_bond_type
C9    C14   A    
C28   H16   S    
C6    C35   S    
C11   C12   A    
C20   H10   S    
C1    O6    A    
C19   C20   A    
C23   C24   S    
C22   C23   S    
C24   H13   S    
C10   C11   A    
C17   C18   A    
C32   H19   S    
O19   V4    S    
C2    C26   S    
O5    C3    A    
C18   C19   A    
V2    O10   S    
C16   H8    S    
O12   V3    S    
O17   V4    S    
C16   H7    S    
O8    V2    S    
O12   C33   A    
O15   V3    S    
O1    V2    S    
O11   C34   A    
O7    V1    S    
C33   O16   A    
C27   C28   A    
C31   C32   S    
O9    C4    A    
C20   C21   A    
C29   C33   S    
C9    C10   A    
C23   H11   S    
C7    H3    S    
C15   C39   S    
C31   H17   S    
C10   C36   S    
O18   C35   A    
C25   C26   A    
C39   N3    T    
C19   H9    S    
O4    C2    A    
V4    O20   S    
O17   V3    S    
O14   V3    S    
C27   H15   S    
O13   V3    S    
C5    C7    S    
C15   H6    S    
O2    C1    A    
C21   C22   A    
C12   C13   A    
C14   C15   S    
C5    C6    D    
V3    O20   S    
C25   C30   A    
O19   C36   A    
O3    C4    A    
C1    C18   S    
O6    V2    S    
O9    V2    S    
C8    H4    S    
C30   C31   S    
O2    V1    S    
C26   C27   A    
C23   H12   S    
O13   C36   A    
C32   C37   S    
C31   H18   S    
C3    C13   S    
O1    C2    A    
O11   V4    S    
C37   N1    T    
O5    V1    S    
O8    C3    A    
C21   C34   S    
C24   H14   S    
C15   C16   S    
C4    C8    S    
C17   C22   A    
C28   C29   A    
O7    V2    S    
O4    V1    S    
O3    V1    S    
V1    O10   S    
C29   C30   A    
C13   C14   A    
C5    H1    S    
O15   C35   A    
C6    H2    S    
C12   C38   S    
O14   C34   A    
C38   N2    T    
O18   V4    S    
C11   H5    S    
C25   C32   S    
C17   C24   S    
C7    C8    D    
O16   V4    S    
C9    C16   S    
