data_mof_unit_22981.cif
_audit_creation_date              2012-10-26T19:02:36-0400
_audit_creation_method            fapswitch 2.2
_symmetry_space_group_name_H-M    P1
_symmetry_Int_Tables_number       1
_space_group_crystal_system       triclinic
_cell_length_a                    17.14144
_cell_length_b                    8.692033
_cell_length_c                    7.450128
_cell_angle_alpha                 103.090751
_cell_angle_beta                  89.12816
_cell_angle_gamma                 92.834582
_cell_volume                      1079.84533531

loop_
_atom_site_label
_atom_site_type_symbol
_atom_type_description
_atom_site_fract_x
_atom_site_fract_y
_atom_site_fract_z
_atom_type_partial_charge
C1    C     C_R   0.497655 0.199805 0.453614 0.543404
C2    C     C_R   0.777223 0.638606 0.522599 -0.127790
C3    C     C_R   0.140097 0.374050 0.514058 -0.065300
C4    C     C_R   0.858085 0.639974 0.505256 -0.113391
C5    C     C_R   0.106035 0.519294 0.582773 0.120620
C6    C     C_R   0.894758 0.501129 0.420269 -0.015705
C7    C     C_R   0.153171 0.656998 0.644015 -0.033768
C8    C     C_R   0.849717 0.364370 0.340607 -0.130796
C9    C     C_R   0.234056 0.650454 0.630352 -0.112214
C10   C     C_R   0.768588 0.364515 0.353227 -0.117097
C11   C     C_2   0.020679 0.528089 0.581996 -0.002016
C12   C     C_R   0.502328 0.800193 0.546390 0.543221
C13   C     C_2   0.980451 0.497577 0.419864 -0.047710
C14   C     C_2   0.018236 0.462316 0.234199 0.265218
C15   C     C_2   0.980674 0.561971 0.764803 0.190930
C16   C     C_2   0.496519 0.031830 0.427639 -0.156513
C17   C     C_2   0.503438 0.968166 0.572373 -0.157624
C18   C     C_R   0.351334 0.502196 0.528075 0.541513
C19   C     C_R   0.648704 0.498272 0.472001 0.537944
C20   C     C_R   0.267603 0.506803 0.552928 0.031314
C21   C     C_R   0.732650 0.500456 0.448306 0.029322
C22   C     C_R   0.220854 0.368321 0.496488 -0.106592
Cu1   Cu    Cu3+1 0.508700 0.517250 0.683000 0.962557
Cu2   Cu    Cu3+1 0.491300 0.482750 0.317000 0.968721
H1    H     H_    0.246849 0.256769 0.437991 0.108754
H2    H     H_    0.509965 0.039799 0.711812 0.135338
H3    H     H_    0.439163 0.379571 0.959106 0.243846
H4    H     H_    0.560837 0.620428 0.040893 0.240517
H5    H     H_    0.983641 0.404974 0.114754 0.127081
H6    H     H_    0.919129 0.531005 0.777850 0.116744
H7    H     H_    0.749404 0.744708 0.593948 0.108191
H8    H     H_    0.734028 0.257710 0.294413 0.111209
H9    H     H_    0.270337 0.757681 0.674784 0.109078
H10   H     H_    0.127253 0.769488 0.697570 0.137740
H11   H     H_    0.877425 0.256948 0.273296 0.103939
H12   H     H_    0.892354 0.747214 0.563826 0.124044
H13   H     H_    0.103919 0.266947 0.467956 0.109723
H14   H     H_    0.489990 0.960195 0.288202 0.136685
N1    N     N_2   0.478180 0.456750 0.041980 -0.253353
N2    N     N_2   0.521820 0.543250 0.958020 -0.255713
O1    O     O_R   0.505650 0.286040 0.618880 -0.506699
O2    O     O_2   0.016718 0.625174 0.904176 -0.487380
O3    O     O_R   0.494350 0.713960 0.381120 -0.505471
O4    O     O_R   0.490960 0.256910 0.309800 -0.500041
O5    O     O_R   0.509040 0.743090 0.690200 -0.500059
O6    O     O_R   0.394600 0.516230 0.672450 -0.501626
O7    O     O_R   0.605400 0.483770 0.327550 -0.504868
O8    O     O_R   0.379910 0.487100 0.363380 -0.486225
O9    O     O_R   0.620090 0.512900 0.636620 -0.497117
O10   O     O_2   0.086172 0.502338 0.210301 -0.462582

loop_
_geom_bond_atom_site_label_1
_geom_bond_atom_site_label_2
_ccdc_geom_bond_type
C12   C17   S    
C2    C4    A    
Cu1   Cu2   S    
C4    H12   S    
Cu1   O5    S    
C19   O9    A    
C1    O4    A    
Cu1   O1    S    
C7    C9    A    
C2    C21   A    
C1    C16   S    
Cu1   O6    S    
C13   C14   S    
C6    C13   S    
C9    H9    S    
C11   C13   D    
C14   O10   D    
C17   H2    S    
C18   O6    A    
C4    C6    A    
C19   C21   S    
C20   C22   A    
C5    C11   S    
C12   O3    A    
C18   C20   S    
C10   C21   A    
Cu2   O4    S    
C7    H10   S    
C19   O7    A    
Cu1   O9    S    
H4    N2    S    
C14   H5    S    
H3    N1    S    
Cu1   N2    S    
Cu2   O8    S    
C10   H8    S    
Cu2   N1    S    
C3    H13   S    
C15   H6    S    
C8    C10   A    
C12   O5    A    
C1    O1    A    
N1    N2    D    
C5    C7    A    
Cu2   O3    S    
C16   C17   D    
C3    C22   A    
C6    C8    A    
C9    C20   A    
Cu2   O7    S    
C11   C15   S    
C8    H11   S    
C15   O2    D    
C16   H14   S    
C2    H7    S    
C3    C5    A    
C22   H1    S    
C18   O8    A    
