data_mof_unit_36517.cif
_audit_creation_date              2012-12-10T17:03:29-0500
_audit_creation_method            fapswitch 2.2
_symmetry_space_group_name_H-M    P1
_symmetry_Int_Tables_number       1
_space_group_crystal_system       triclinic
_cell_length_a                    14.911189
_cell_length_b                    10.976356
_cell_length_c                    9.940685
_cell_angle_alpha                 110.772473
_cell_angle_beta                  97.930895
_cell_angle_gamma                 92.238255
_cell_volume                      1499.86905113

loop_
_atom_site_label
_atom_site_type_symbol
_atom_type_description
_atom_site_fract_x
_atom_site_fract_y
_atom_site_fract_z
_atom_type_partial_charge
C1    C     C_R   0.494040 0.254473 0.440879 0.838233
C2    C     C_2   0.501405 0.465968 0.906127 0.233053
C3    C     C_R   0.329089 0.497543 0.500906 0.786379
C4    C     C_R   0.670988 0.503866 0.499773 0.812571
C5    C     C_R   0.825165 0.618123 0.557269 0.101166
C6    C     C_R   0.179188 0.369855 0.457673 0.088531
C7    C     C_R   0.768236 0.500426 0.498928 -0.113490
C8    C     C_R   0.232017 0.491829 0.506384 -0.157987
C9    C     C_R   0.803573 0.378002 0.460516 0.062853
C10   C     C_R   0.196700 0.609833 0.578930 0.080447
C11   C     C_R   0.898790 0.370911 0.487407 0.079864
C12   C     C_R   0.507468 0.745537 0.559017 0.841809
C13   C     C_R   0.107288 0.608701 0.609602 0.083932
C14   C     C_R   0.956204 0.490046 0.545094 -0.087172
C15   C     C_R   0.050912 0.488649 0.548800 -0.098593
C16   C     C_R   0.919203 0.611898 0.596874 0.061359
C17   C     C_R   0.088343 0.368028 0.488071 0.086402
C18   C     C_R   0.939443 0.251127 0.468247 0.127208
C19   C     C_R   0.072225 0.721371 0.704001 0.143574
C20   C     C_3   0.786113 0.746467 0.561413 -0.371313
C21   C     C_3   0.745557 0.743093 0.409787 -0.889802
C22   C     C_3   0.217898 0.247062 0.361420 -0.341566
C23   C     C_R   0.034695 0.251060 0.467785 0.094525
C24   C     C_3   0.165791 0.194889 0.205414 -0.835119
C25   C     C_3   0.885497 0.127340 0.464123 -0.361781
C26   C     C_3   0.851815 0.148810 0.608713 -0.822450
C27   C     C_3   0.134534 0.834343 0.822055 -0.370147
C28   C     C_3   0.191649 0.787513 0.931098 -0.842665
C29   C     C_3   0.613596 0.646292 0.964914 -0.211892
C30   C     C_3   0.630251 0.771244 0.935295 -0.737223
C31   C     C_3   0.365893 0.461373 0.087655 -0.137490
C32   C     C_3   0.348666 0.605166 0.125436 -0.818000
C33   C     C_R   0.976669 0.720918 0.696979 0.077027
C34   C     C_2   0.492250 0.114781 0.407716 -0.364629
C35   C     C_2   0.513830 0.885292 0.591735 -0.359378
C36   C     C_2   0.509852 0.069777 0.515470 -0.148724
C37   C     C_2   0.505353 0.930386 0.483275 -0.158361
C38   C     C_2   0.523525 0.458577 0.060305 0.226779
Cu1   Cu    Cu3+1 0.515770 0.521810 0.644910 0.937923
Cu2   Cu    Cu3+1 0.484230 0.478190 0.355090 0.935172
H1    H     H_    0.493478 0.864367 0.369776 0.181778
H2    H     H_    0.093083 0.166667 0.201818 0.255902
H3    H     H_    0.170390 0.270824 0.156104 0.242225
H4    H     H_    0.196201 0.107393 0.138797 0.233130
H5    H     H_    0.289658 0.265004 0.351626 0.189474
H6    H     H_    0.222021 0.170306 0.409230 0.223793
H7    H     H_    0.708161 0.269088 0.288197 0.242889
H8    H     H_    0.694556 0.255017 0.449376 0.220151
H9    H     H_    0.265713 0.733138 0.508783 0.214949
H10   H     H_    0.309054 0.739160 0.678633 0.233552
H11   H     H_    0.910813 0.169206 0.697566 0.238646
H12   H     H_    0.526343 0.135799 0.628641 0.193558
H13   H     H_    0.809129 0.231819 0.637760 0.263483
H14   H     H_    0.810662 0.059394 0.600827 0.235773
H15   H     H_    0.829612 0.090164 0.370335 0.227556
H16   H     H_    0.925472 0.041891 0.444663 0.181292
H17   H     H_    0.146401 0.744175 0.985626 0.245866
H18   H     H_    0.236438 0.713362 0.877062 0.263703
H19   H     H_    0.235222 0.871680 0.015525 0.235619
H20   H     H_    0.177781 0.887272 0.774922 0.228112
H21   H     H_    0.096826 0.912837 0.887181 0.183245
H22   H     H_    0.053387 0.058842 0.365034 0.216535
H23   H     H_    0.525426 0.951711 0.704987 0.147128
H24   H     H_    0.069326 0.111928 0.552481 0.223606
H25   H     H_    0.962431 0.821118 0.907780 0.230014
H26   H     H_    0.954329 0.911914 0.798341 0.202395
H27   H     H_    0.434630 0.280928 0.836549 0.173534
H28   H     H_    0.381339 0.387398 0.769617 0.230485
H29   H     H_    0.658426 0.516135 0.138550 0.195079
H30   H     H_    0.635284 0.362111 0.013709 0.189576
H31   H     H_    0.659980 0.750872 0.834262 0.261443
H32   H     H_    0.566576 0.819920 0.931373 0.245623
H33   H     H_    0.680733 0.840058 0.025908 0.195691
H34   H     H_    0.476188 0.048286 0.294674 0.150767
H35   H     H_    0.597825 0.679511 0.077864 0.146547
H36   H     H_    0.677585 0.597420 0.960350 0.168297
H37   H     H_    0.353491 0.655610 0.244758 0.270397
H38   H     H_    0.397907 0.656283 0.084401 0.228390
H39   H     H_    0.278851 0.611205 0.074003 0.215934
H40   H     H_    0.342219 0.407103 0.971794 0.110822
H41   H     H_    0.318982 0.412977 0.133835 0.201402
H42   H     H_    0.790125 0.696113 0.328887 0.253662
H43   H     H_    0.676543 0.691194 0.373850 0.271089
H44   H     H_    0.738743 0.844433 0.412895 0.243627
H45   H     H_    0.734047 0.770087 0.634286 0.192473
H46   H     H_    0.838952 0.829838 0.601830 0.232055
N1    N     N_2   0.460520 0.445420 0.137370 -0.134631
N2    N     N_2   0.539480 0.554580 0.862630 -0.127572
N3    N     N_3   0.742260 0.262242 0.384109 -0.609164
N4    N     N_3   0.248998 0.731548 0.606974 -0.612394
N5    N     N_3   0.078956 0.136136 0.462450 -0.620889
N6    N     N_3   0.937444 0.820690 0.804012 -0.626150
N7    N     N_3   0.444146 0.357267 0.798609 -0.544590
N8    N     N_3   0.613985 0.431444 0.103574 -0.549068
O1    O     O_R   0.508410 0.332340 0.577400 -0.543890
O2    O     O_R   0.491590 0.667660 0.422600 -0.579514
O3    O     O_R   0.481780 0.295500 0.332650 -0.574801
O4    O     O_R   0.518220 0.704500 0.667350 -0.579940
O5    O     O_R   0.383570 0.518390 0.622380 -0.579976
O6    O     O_R   0.616430 0.481610 0.377620 -0.550812
O7    O     O_R   0.356940 0.481550 0.377630 -0.590402
O8    O     O_R   0.643060 0.518450 0.622370 -0.578502

loop_
_geom_bond_atom_site_label_1
_geom_bond_atom_site_label_2
_ccdc_geom_bond_type
H25   N6    S    
C11   C18   A    
C23   N5    S    
C24   H2    S    
C25   H16   S    
H9    N4    S    
C30   H31   S    
C31   H40   S    
C29   H36   S    
C28   H17   S    
C17   C23   A    
Cu2   N1    S    
C36   C37   S    
H30   N8    S    
C27   H20   S    
C11   C14   A    
C6    C22   S    
C15   C17   A    
C29   N2    S    
C27   H21   S    
C32   H37   S    
H10   N4    S    
C21   H43   S    
C5    C16   A    
C4    O8    A    
C2    N2    D    
C19   C27   S    
C12   O4    A    
C36   H12   S    
C3    O7    A    
Cu2   O7    S    
H26   N6    S    
H22   N5    S    
H7    N3    S    
C18   C25   S    
Cu1   N2    S    
Cu2   O2    S    
C4    C7    S    
C26   H14   S    
C1    C34   S    
C31   N1    S    
C13   C19   A    
C18   C23   A    
C3    C8    S    
C19   C33   A    
C33   N6    S    
C1    O3    A    
Cu1   Cu2   S    
C5    C20   S    
C30   H33   S    
Cu1   O4    S    
C6    C8    A    
C25   C26   S    
C20   H46   S    
C29   C30   S    
C16   C33   A    
C2    C38   S    
Cu1   O5    S    
C31   C32   S    
C21   H44   S    
C1    O1    A    
C20   H45   S    
C38   N8    S    
C21   H42   S    
C12   C35   S    
C9    C11   A    
Cu1   O1    S    
C34   H34   S    
C22   H6    S    
H29   N8    S    
H8    N3    S    
C13   C15   A    
C24   H4    S    
C14   C16   A    
C9    N3    S    
C26   H13   S    
Cu2   O3    S    
Cu1   O8    S    
C5    C7    A    
C28   H19   S    
C7    C9    A    
C6    C17   A    
C35   C37   D    
C2    N7    S    
C25   H15   S    
C10   C13   A    
Cu2   O6    S    
C30   H32   S    
C29   H35   S    
C28   H18   S    
H28   N7    S    
C31   H41   S    
C38   N1    D    
C4    O6    A    
C26   H11   S    
C32   H39   S    
C34   C36   D    
C22   C24   S    
C37   H1    S    
C32   H38   S    
C3    O5    A    
C22   H5    S    
C20   C21   S    
C10   N4    S    
C8    C10   A    
C27   C28   S    
H27   N7    S    
C24   H3    S    
C14   C15   A    
C12   O2    A    
C35   H23   S    
H24   N5    S    
