data_mof_unit_41474.cif
_audit_creation_date              2012-12-11T17:36:25-0500
_audit_creation_method            fapswitch 2.2
_symmetry_space_group_name_H-M    P1
_symmetry_Int_Tables_number       1
_space_group_crystal_system       triclinic
_cell_length_a                    25.95588
_cell_length_b                    6.902126
_cell_length_c                    21.64352
_cell_angle_alpha                 90.007387
_cell_angle_beta                  95.933644
_cell_angle_gamma                 89.999092
_cell_volume                      3856.67861565

loop_
_atom_site_label
_atom_site_type_symbol
_atom_type_description
_atom_site_fract_x
_atom_site_fract_y
_atom_site_fract_z
_atom_type_partial_charge
O1    O     O_R   0.208650 0.594520 0.175450 -0.546518
O2    O     O_R   0.791350 0.405480 0.824550 -0.548710
O3    O     O_R   0.291350 0.094520 0.324550 -0.546526
O4    O     O_R   0.708650 0.905480 0.675450 -0.548701
O5    O     O_R   0.192980 0.260780 0.300160 -0.509179
O6    O     O_R   0.807020 0.739220 0.699840 -0.521345
O7    O     O_R   0.307020 0.760780 0.199840 -0.509184
O8    O     O_R   0.692980 0.239220 0.800160 -0.521389
C1    C     C_R   0.179065 0.432904 0.318913 0.856482
C2    C     C_R   0.821050 0.567235 0.681612 0.877711
C3    C     C_R   0.320934 0.932888 0.181084 0.856468
C4    C     C_R   0.678952 0.067250 0.818390 0.877727
O9    O     O_R   0.202550 0.264660 0.174420 -0.547386
O10   O     O_R   0.797450 0.735340 0.825580 -0.538426
O11   O     O_R   0.297450 0.764660 0.325580 -0.547384
O12   O     O_R   0.702550 0.235340 0.674420 -0.538423
O13   O     O_R   0.300990 0.096480 0.197920 -0.507279
O14   O     O_R   0.699010 0.903520 0.802080 -0.519530
O15   O     O_R   0.199010 0.596480 0.302080 -0.507279
O16   O     O_R   0.800990 0.403520 0.697920 -0.519522
C5    C     C_R   0.191265 0.433561 0.151032 0.874379
C6    C     C_R   0.808985 0.566298 0.848797 0.883722
C7    C     C_R   0.308733 0.933577 0.348969 0.874359
C8    C     C_R   0.691016 0.066281 0.651202 0.883758
O17   O     O_3   0.282290 0.427760 0.257860 -0.371060
O18   O     O_3   0.717710 0.572240 0.742140 -0.378247
O19   O     O_3   0.217710 0.927760 0.242140 -0.371051
O20   O     O_3   0.782290 0.072240 0.757860 -0.378229
V1    V     V_3+5 0.244010 0.152080 0.248540 1.708137
V2    V     V_3+5 0.755990 0.847920 0.751460 1.680465
V3    V     V_3+5 0.255990 0.652080 0.251460 1.708160
V4    V     V_3+5 0.744010 0.347920 0.748540 1.680428
C9    C     C_R   0.657047 0.057210 0.592185 -0.290087
C10   C     C_R   0.342358 0.941953 0.408193 -0.275272
C11   C     C_R   0.842954 0.557255 0.907815 -0.290087
C12   C     C_R   0.157638 0.441907 0.091809 -0.275336
C13   C     C_R   0.648230 0.054820 0.480168 -0.187212
C14   C     C_R   0.350888 0.936231 0.520235 -0.200413
C15   C     C_R   0.851759 0.554679 0.019835 -0.187343
C16   C     C_R   0.149115 0.436298 0.979761 -0.200409
C17   C     C_R   0.679030 0.071621 0.536284 0.551346
C18   C     C_R   0.320346 0.919318 0.463852 0.523911
C19   C     C_R   0.820964 0.571539 0.963719 0.551434
C20   C     C_R   0.179653 0.419316 0.036144 0.523951
C21   C     C_R   0.603181 0.030714 0.591722 0.502966
C22   C     C_R   0.396020 0.973724 0.409104 0.492144
C23   C     C_R   0.896823 0.530821 0.908275 0.502969
C24   C     C_R   0.103975 0.473691 0.090903 0.492176
C25   C     C_R   0.569998 0.026829 0.534389 -0.060813
C26   C     C_R   0.429013 0.974393 0.466497 -0.059067
C27   C     C_R   0.930001 0.526877 0.965613 -0.060780
C28   C     C_R   0.070985 0.474413 0.033506 -0.059082
C29   C     C_R   0.594328 0.029224 0.478364 -0.121784
C30   C     C_R   0.404638 0.967279 0.522372 -0.111487
C31   C     C_R   0.905664 0.529151 0.021638 -0.121860
C32   C     C_R   0.095365 0.467365 0.977629 -0.111489
C33   C     C_R   0.514217 0.014736 0.530072 0.016879
C34   C     C_R   0.484714 0.986838 0.470904 0.017240
C35   C     C_R   0.985784 0.514816 0.969932 0.016894
C36   C     C_R   0.015283 0.486849 0.029098 0.017185
C37   C     C_R   0.511990 0.966183 0.418387 -0.169390
C38   C     C_R   0.486759 0.033439 0.582578 -0.169308
C39   C     C_R   0.988002 0.466107 0.081611 -0.169230
C40   C     C_R   0.013248 0.533610 0.917431 -0.169292
C41   C     C_R   0.565091 0.999878 0.420912 0.447892
C42   C     C_R   0.433733 0.996509 0.579929 0.444943
C43   C     C_R   0.934898 0.499729 0.079088 0.447852
C44   C     C_R   0.066275 0.496687 0.920073 0.444952
H1    H     H_    0.667082 0.060407 0.437829 0.213158
H2    H     H_    0.332038 0.925504 0.562478 0.200311
H3    H     H_    0.832903 0.560153 0.062174 0.213083
H4    H     H_    0.167967 0.425621 0.937515 0.200294
H5    H     H_    0.493601 0.918033 0.374299 0.221932
H6    H     H_    0.504857 0.081045 0.626823 0.230142
H7    H     H_    0.006390 0.417953 0.125696 0.222031
H8    H     H_    0.995152 0.581277 0.873195 0.230141
C45   C     C_R   0.435530 0.805137 0.090151 0.554638
C46   C     C_R   0.553876 0.161376 0.892204 0.485466
C47   C     C_R   0.064462 0.305182 0.409822 0.554585
C48   C     C_R   0.946111 0.661410 0.607784 0.485480
C49   C     C_R   0.396418 0.789541 0.130238 0.539221
C50   C     C_R   0.593697 0.178707 0.853164 0.494288
C51   C     C_R   0.103578 0.289576 0.369740 0.539281
C52   C     C_R   0.906295 0.678725 0.646833 0.494445
C53   C     C_R   0.362527 0.945958 0.137878 -0.477349
C54   C     C_R   0.637027 0.054780 0.860477 -0.432345
C55   C     C_R   0.137466 0.445998 0.362111 -0.477351
C56   C     C_R   0.862976 0.554739 0.639529 -0.432415
C57   C     C_R   0.368885 0.117505 0.103558 0.542894
C58   C     C_R   0.639780 0.914785 0.908147 0.516959
C59   C     C_R   0.131101 0.617566 0.396432 0.542893
C60   C     C_R   0.860234 0.414688 0.591865 0.517229
C61   C     C_R   0.407390 0.131405 0.062478 0.351742
C62   C     C_R   0.600019 0.897457 0.947418 0.318117
C63   C     C_R   0.092591 0.631477 0.437506 0.351777
C64   C     C_R   0.899987 0.397380 0.552585 0.318067
C65   C     C_R   0.441450 0.975869 0.056366 -0.346096
C66   C     C_R   0.557019 0.022517 0.939904 -0.310295
C67   C     C_R   0.058535 0.475930 0.443610 -0.346028
C68   C     C_R   0.942975 0.522505 0.560086 -0.310347
C69   C     C_1   0.482280 0.992027 0.015315 0.215049
C70   C     C_1   0.516153 0.006827 0.980908 0.190584
C71   C     C_1   0.017706 0.492080 0.484661 0.214947
C72   C     C_1   0.983834 0.506855 0.519072 0.190234
O21   O     O_3   0.589499 0.982677 0.367234 -0.552138
C73   C     C_3   0.578907 0.150041 0.330732 -0.152598
H9    H     H_    0.591260 0.283985 0.356932 0.139388
H10   H     H_    0.537177 0.158928 0.313049 0.167107
H11   H     H_    0.601312 0.141967 0.289856 0.188114
O22   O     O_3   0.409176 0.010345 0.633592 -0.553860
C74   C     C_3   0.420807 0.843338 0.669930 -0.166880
H12   H     H_    0.462541 0.838177 0.687788 0.175124
H13   H     H_    0.409443 0.708756 0.643533 0.137047
H14   H     H_    0.398230 0.848393 0.710706 0.176464
O23   O     O_3   0.910496 0.482363 0.132764 -0.552103
C75   C     C_3   0.920920 0.649987 0.169206 -0.152665
H15   H     H_    0.908306 0.783620 0.143004 0.139429
H16   H     H_    0.962666 0.659794 0.186747 0.167003
H17   H     H_    0.898634 0.641504 0.210175 0.188151
O24   O     O_3   0.090835 0.510622 0.866415 -0.553852
C76   C     C_3   0.079227 0.343634 0.830041 -0.166901
H18   H     H_    0.037489 0.338384 0.812198 0.175104
H19   H     H_    0.090620 0.209039 0.856406 0.137053
H20   H     H_    0.101790 0.348807 0.789256 0.176444
F1    F     F_    0.413727 0.018445 0.354058 -0.704933
F2    F     F_    0.585506 0.994368 0.647356 -0.694915
F3    F     F_    0.086265 0.518365 0.145957 -0.704866
F4    F     F_    0.914505 0.494587 0.852634 -0.694912
F5    F     F_    0.268655 0.888422 0.463621 -0.653145
F6    F     F_    0.730931 0.094110 0.536008 -0.603483
F7    F     F_    0.231344 0.388426 0.036371 -0.653125
F8    F     F_    0.769059 0.593942 0.963995 -0.603582
F9    F     F_    0.468152 0.653653 0.084829 -0.589499
F10   F     F_    0.512135 0.280516 0.883428 -0.644501
F11   F     F_    0.031843 0.153691 0.415136 -0.589572
F12   F     F_    0.987836 0.780637 0.616543 -0.644575
F13   F     F_    0.392766 0.622649 0.162659 -0.566474
F14   F     F_    0.589260 0.313711 0.807312 -0.610825
F15   F     F_    0.107236 0.122667 0.337316 -0.566444
F16   F     F_    0.910723 0.813785 0.692679 -0.610807
F17   F     F_    0.337425 0.272601 0.108817 -0.571500
F18   F     F_    0.681714 0.797061 0.917753 -0.588929
F19   F     F_    0.162557 0.772668 0.391178 -0.571512
F20   F     F_    0.818319 0.296861 0.582277 -0.588747
O25   O     O_3   0.413865 0.303378 0.031481 -0.478565
C77   C     C_3   0.380481 0.302676 0.975819 -0.029783
H21   H     H_    0.339124 0.296689 0.985085 0.172074
H22   H     H_    0.389568 0.180678 0.945071 0.101281
H23   H     H_    0.386204 0.439512 0.950530 0.162790
O26   O     O_3   0.605085 0.766317 0.995939 -0.511611
C78   C     C_3   0.586204 0.585456 0.973471 0.028401
H24   H     H_    0.609489 0.528226 0.937132 0.154447
H25   H     H_    0.544540 0.594394 0.955335 0.155286
H26   H     H_    0.589505 0.480411 0.012466 0.162007
O27   O     O_3   0.086106 0.803464 0.468508 -0.478588
C79   C     C_3   0.119498 0.802843 0.524163 -0.029889
H27   H     H_    0.160854 0.796915 0.514887 0.172131
H28   H     H_    0.110430 0.680848 0.554911 0.101290
H29   H     H_    0.113764 0.939684 0.549457 0.162756
O28   O     O_3   0.894910 0.266194 0.504066 -0.511611
C80   C     C_3   0.913956 0.085515 0.526486 0.028907
H30   H     H_    0.890964 0.028497 0.563134 0.154128
H31   H     H_    0.955710 0.094687 0.544204 0.155357
H32   H     H_    0.910400 0.980190 0.487559 0.161925

loop_
_geom_bond_atom_site_label_1
_geom_bond_atom_site_label_2
_ccdc_geom_bond_type
O17   V3    S    
C51   C55   A    
C14   H2    S    
O1    C5    A    
C69   C70   T    
C55   C59   A    
O19   V1    S    
C9    C21   A    
C22   F1    S    
O3    C7    A    
C74   H12   S    
C10   C18   A    
O1    V3    S    
C46   C66   A    
C48   C52   A    
O15   V3    S    
C51   F15   S    
C80   H30   S    
C25   C33   A    
C33   C38   A    
C5    C12   S    
C20   F7    S    
O7    C3    A    
C6    C11   S    
C2    C56   S    
C35   C40   A    
C26   C30   A    
C39   H7    S    
C36   C39   A    
C40   C44   A    
C47   C67   A    
C79   H27   S    
C14   C18   A    
C13   H1    S    
O25   C77   S    
C17   F6    S    
O4    C8    A    
C63   C67   A    
C73   H9    S    
C62   C66   A    
O23   C75   S    
C60   C64   A    
O13   V1    S    
C75   H15   S    
O2    V4    S    
C78   H26   S    
O3    V1    S    
C43   O23   S    
O22   C74   S    
C76   H20   S    
C28   C36   A    
C1    O15   A    
C68   C72   S    
C15   C31   A    
C56   C60   A    
C2    O16   A    
C16   C32   A    
O2    C6    A    
C78   H24   S    
C45   C65   A    
C10   C22   A    
C45   C49   A    
C18   F5    S    
C11   C19   A    
C16   C20   A    
C77   H22   S    
C13   C29   A    
C34   C37   A    
O11   C7    A    
C11   C23   A    
C35   C36   A    
O12   C8    A    
C48   C68   A    
C57   C61   A    
C45   F9    S    
O10   V2    S    
O20   V4    S    
C41   O21   S    
C80   H31   S    
C58   C62   A    
C59   F19   S    
O17   V1    S    
C39   C43   A    
O7    V3    S    
C38   C42   A    
O19   V3    S    
C26   C34   A    
C23   F4    S    
C67   C71   S    
C54   C58   A    
C53   C57   A    
O18   V4    S    
C23   C27   A    
C37   H5    S    
C32   C44   A    
O8    V4    S    
C49   F13   S    
O5    C1    A    
C77   H23   S    
C46   C50   A    
C14   C30   A    
C21   C25   A    
C21   F2    S    
O8    C4    A    
C7    C10   S    
C65   C69   S    
C40   H8    S    
O9    C5    A    
C74   H13   S    
C42   O22   S    
C61   O25   S    
C46   F10   S    
C52   F16   S    
C76   H18   S    
C58   F18   S    
O14   V2    S    
C64   O28   S    
O18   V2    S    
C12   C20   A    
C27   C35   A    
O5    V1    S    
C61   C65   A    
O27   C79   S    
C80   H32   S    
C29   C41   A    
O24   C76   S    
C77   H21   S    
O16   V4    S    
O9    V1    S    
C19   F8    S    
C16   H4    S    
O6    V2    S    
C79   H29   S    
C52   C56   A    
C3    O13   A    
O6    C2    A    
C31   C43   A    
O11   V3    S    
C30   C42   A    
O12   V4    S    
C47   F11   S    
O21   C73   S    
C22   C26   A    
C8    C9    S    
C48   F12   S    
C75   H17   S    
C4    C54   S    
C9    C17   A    
O28   C80   S    
O10   C6    A    
C79   H28   S    
C50   F14   S    
C66   C70   S    
C44   O24   S    
C24   F3    S    
C50   C54   A    
C33   C34   A    
C1    C55   S    
C73   H10   S    
C3    C53   S    
C57   F17   S    
C64   C68   A    
O20   V2    S    
C75   H16   S    
C12   C24   A    
C74   H14   S    
C27   C31   A    
C63   O27   S    
C78   H25   S    
C13   C17   A    
C60   F20   S    
C49   C53   A    
C76   H19   S    
C25   C29   A    
C59   C63   A    
C47   C51   A    
C37   C41   A    
C62   O26   S    
C24   C28   A    
C15   C19   A    
C4    O14   A    
C71   C72   T    
C15   H3    S    
O26   C78   S    
C38   H6    S    
O4    V2    S    
C28   C32   A    
C73   H11   S    
