data_mof_unit_9588.cif
_audit_creation_date              2012-12-11T15:43:05-0500
_audit_creation_method            fapswitch 2.2
_symmetry_space_group_name_H-M    P1
_symmetry_Int_Tables_number       1
_space_group_crystal_system       triclinic
_cell_length_a                    19.088784
_cell_length_b                    11.054758
_cell_length_c                    18.726382
_cell_angle_alpha                 90.238473
_cell_angle_beta                  89.998156
_cell_angle_gamma                 90.229362
_cell_volume                      3951.61058707

loop_
_atom_site_label
_atom_site_type_symbol
_atom_type_description
_atom_site_fract_x
_atom_site_fract_y
_atom_site_fract_z
_atom_type_partial_charge
C1    C     C_R   0.728982 0.374511 0.145390 0.584278
C2    C     C_R   0.948715 0.976805 0.054984 0.322252
C3    C     C_R   0.738542 0.404298 0.581973 0.005102
C4    C     C_R   0.712339 0.334574 0.359774 0.573859
C5    C     C_R   0.288270 0.332943 0.640116 0.560959
C6    C     C_R   0.211184 0.832038 0.359681 0.583666
C7    C     C_R   0.788165 0.833078 0.640172 0.564376
C8    C     C_R   0.531984 0.157640 0.352811 0.542138
C9    C     C_R   0.467313 0.155971 0.646426 0.538912
C10   C     C_R   0.035117 0.656978 0.355145 0.539517
C11   C     C_R   0.969462 0.655770 0.647774 0.526237
C12   C     C_R   0.741522 0.969428 0.353646 0.560886
C13   C     C_R   0.490721 0.501174 0.971460 0.322272
C14   C     C_R   0.256602 0.968638 0.647129 0.520879
C15   C     C_R   0.241642 0.468779 0.353448 0.558091
C16   C     C_R   0.757179 0.468972 0.647037 0.529442
C17   C     C_R   0.501832 0.170045 0.923296 0.040016
C18   C     C_R   0.505147 0.161097 0.073056 0.021734
C19   C     C_R   0.003043 0.675372 0.922341 0.005656
C20   C     C_R   0.010955 0.659223 0.071362 0.010444
C21   C     C_R   0.496320 0.279394 0.963510 0.009654
C22   C     C_R   0.491721 0.273117 0.038888 -0.010158
C23   C     C_R   0.987318 0.779448 0.965729 0.008365
C24   C     C_R   0.479785 0.493714 0.044996 0.347760
C25   C     C_R   0.985518 0.766475 0.040743 -0.004701
C26   C     C_R   0.517637 0.057655 0.031213 -0.160251
C27   C     C_R   0.518854 0.063153 0.957984 -0.159495
C28   C     C_R   0.032075 0.562917 0.027428 -0.143131
C29   C     C_R   0.029620 0.571592 0.954225 -0.151056
C30   C     C_R   0.740087 0.942616 0.915190 0.015344
C31   C     C_R   0.235149 0.895830 0.067675 -0.010099
C32   C     C_R   0.242672 0.440106 0.916384 0.014986
C33   C     C_R   0.738839 0.391200 0.070265 0.035365
C34   C     C_R   0.687028 0.893746 0.957691 -0.064606
C35   C     C_R   0.298167 0.873059 0.034530 -0.032179
C36   C     C_R   0.191259 0.386822 0.959024 -0.061228
C37   C     C_R   0.269029 0.379353 0.852759 0.579047
C38   C     C_R   0.798250 0.446429 0.044645 -0.009499
C39   C     C_R   0.681714 0.924636 0.028860 -0.041932
C40   C     C_R   0.304351 0.880814 0.961661 -0.004930
C41   C     C_R   0.185103 0.417278 0.030327 -0.045303
C42   C     C_R   0.805535 0.464326 0.972725 0.013142
C43   C     C_R   0.772835 0.074733 0.013982 0.215584
C44   C     C_R   0.180278 0.909893 0.949639 0.206411
C45   C     C_R   0.280560 0.561054 0.017789 0.192250
C46   C     C_R   0.699774 0.351039 0.947831 0.209982
C47   C     C_R   0.773568 0.047853 0.940031 0.292409
C48   C     C_R   0.227222 0.872204 0.143589 0.562535
C49   C     C_R   0.174985 0.916105 0.024270 0.257273
C50   C     C_R   0.280656 0.539261 0.943733 0.274066
C51   C     C_R   0.693645 0.330773 0.022022 0.280456
C52   C     C_3   0.659890 0.768748 0.969846 -0.245585
C53   C     C_3   0.367606 0.929547 0.047906 -0.271060
C54   C     C_3   0.174476 0.256698 0.972218 -0.243508
C55   C     C_3   0.830309 0.564698 0.064001 -0.291172
C56   C     C_3   0.655736 0.801486 0.048758 -0.234562
C57   C     C_3   0.374376 0.939389 0.967547 -0.226766
C58   C     C_3   0.167419 0.289804 0.050519 -0.243410
C59   C     C_R   0.768705 0.879390 0.852890 0.576797
C60   C     C_3   0.839597 0.584061 0.984434 -0.256490
C61   C     C_R   0.729350 0.004403 0.061357 -0.023072
C62   C     C_R   0.246950 0.907576 0.918477 -0.017191
C63   C     C_R   0.232166 0.497797 0.062666 -0.023550
C64   C     C_R   0.754082 0.427214 0.924199 -0.015153
C65   C     C_R   0.531291 0.154737 0.146824 0.562438
C66   C     C_R   0.469509 0.156670 0.852452 0.532639
C67   C     C_R   0.033372 0.654048 0.145842 0.531030
C68   C     C_R   0.969643 0.657558 0.852254 0.524163
C69   C     C_R   0.486865 0.158371 0.572039 0.013600
C70   C     C_R   0.498453 0.394604 0.931058 -0.084926
C71   C     C_R   0.502941 0.171772 0.423369 0.012079
C72   C     C_R   0.006292 0.655694 0.579653 -0.014036
C73   C     C_R   0.018135 0.663430 0.430466 0.026985
C74   C     C_R   0.449497 0.082435 0.525567 -0.031634
C75   C     C_R   0.457816 0.087472 0.452772 0.001017
C76   C     C_R   0.005624 0.549247 0.538513 0.032440
C77   C     C_R   0.009591 0.554612 0.465816 0.086129
C78   C     C_R   0.532691 0.259600 0.468627 -0.175491
C79   C     C_R   0.528308 0.249491 0.542993 -0.186926
C80   C     C_R   0.033371 0.766657 0.471994 -0.181569
C81   C     C_R   0.477860 0.379889 0.077934 -0.120220
C82   C     C_R   0.030461 0.761417 0.547150 -0.178199
C83   C     C_3   0.442034 0.947716 0.523287 0.206654
C84   C     C_3   0.450420 0.954024 0.442658 0.107687
C85   C     C_3   0.954424 0.445966 0.533933 0.198306
C86   C     C_3   0.958821 0.454042 0.453396 0.151363
C87   C     C_R   0.775664 0.853326 0.564785 -0.048002
C88   C     C_R   0.218922 0.847108 0.437048 0.001237
C89   C     C_R   0.275924 0.352969 0.564545 -0.050456
C90   C     C_R   0.723177 0.354392 0.435673 -0.003248
C91   C     C_R   0.831958 0.862652 0.517692 -0.020078
C92   C     C_R   0.974112 0.896014 0.937397 -0.083437
C93   C     C_R   0.171607 0.920727 0.472714 -0.015249
C94   C     C_R   0.332137 0.357718 0.516843 -0.029850
C95   C     C_R   0.674117 0.421339 0.472863 -0.024431
C96   C     C_R   0.821229 0.887068 0.445843 -0.051474
C97   C     C_R   0.177345 0.944404 0.544321 -0.065816
C98   C     C_R   0.321240 0.381457 0.444825 -0.058437
C99   C     C_R   0.679131 0.441593 0.544591 -0.074553
C100  C     C_R   0.695818 0.875427 0.465251 0.231691
C101  C     C_R   0.275156 0.809266 0.552713 0.172184
C102  C     C_R   0.195839 0.374982 0.465137 0.236950
C103  C     C_R   0.960067 0.861846 0.083599 -0.119365
C104  C     C_R   0.784549 0.322324 0.548295 0.191242
C105  C     C_R   0.707534 0.857495 0.537629 -0.117296
C106  C     C_R   0.267829 0.782816 0.478857 -0.071065
C107  C     C_R   0.207690 0.359305 0.537683 -0.109183
C108  C     C_R   0.776751 0.297991 0.474820 -0.069555
C109  C     C_3   0.891338 0.951623 0.520364 0.110890
C110  C     C_3   0.145543 0.045071 0.456167 0.128590
C111  C     C_3   0.393434 0.443352 0.517998 0.101667
C112  C     C_3   0.642673 0.542105 0.457871 0.128886
C113  C     C_R   0.727575 0.021276 0.139968 0.583391
C114  C     C_R   0.956709 0.994549 0.981709 0.311110
C115  C     C_R   0.258252 0.967596 0.851096 0.534848
C116  C     C_R   0.228240 0.519114 0.140016 0.555070
C117  C     C_R   0.759296 0.471246 0.852472 0.532362
C118  C     C_3   0.883124 0.969974 0.441066 -0.227092
C119  C     C_3   0.149874 0.070085 0.535606 -0.209537
C120  C     C_3   0.385071 0.459501 0.438434 -0.232931
C121  C     C_3   0.646162 0.564040 0.537710 -0.207446
C122  C     C_R   0.753298 0.902938 0.419556 0.032198
C123  C     C_R   0.234906 0.902232 0.583036 0.003051
C124  C     C_R   0.253347 0.400863 0.419058 0.028576
Cr1   Cr    Cr6+3 0.772010 0.169670 0.250090 1.018408
Cr2   Cr    Cr6+3 0.383290 0.010760 0.749160 1.062776
Cr3   Cr    Cr6+3 0.116710 0.510760 0.250840 1.027772
Cr4   Cr    Cr6+3 0.883290 0.510760 0.749160 1.031271
Cr5   Cr    Cr6+3 0.227990 0.169670 0.749910 1.017756
Cr6   Cr    Cr6+3 0.272010 0.669670 0.250090 1.009755
Cr7   Cr    Cr6+3 0.727990 0.669670 0.749910 1.021678
Cr8   Cr    Cr6+3 0.615000 0.323260 0.249260 1.034389
Cr9   Cr    Cr6+3 0.385000 0.323260 0.750740 1.057438
Cr10  Cr    Cr6+3 0.115000 0.823260 0.249260 1.043701
Cr11  Cr    Cr6+3 0.885000 0.823260 0.750740 1.045888
Cr12  Cr    Cr6+3 0.616710 0.010760 0.250840 1.028406
H1    H     H_    0.561090 0.332961 0.445687 0.129865
H2    H     H_    0.302440 0.718219 0.453864 0.163439
H3    H     H_    0.162829 0.350921 0.572833 0.179411
H4    H     H_    0.814254 0.240656 0.448167 0.159537
H5    H     H_    0.607583 0.755489 0.945026 0.192031
H6    H     H_    0.363735 0.018626 0.075441 0.125086
H7    H     H_    0.124029 0.228776 0.947349 0.177801
H8    H     H_    0.792578 0.627933 0.089192 0.128546
H9    H     H_    0.601257 0.802179 0.069503 0.176487
H10   H     H_    0.373572 0.034601 0.948828 0.145321
H11   H     H_    0.112907 0.280680 0.070723 0.171607
H12   H     H_    0.553409 0.315996 0.577119 0.131797
H13   H     H_    0.810736 0.662134 0.962438 0.120131
H14   H     H_    0.529384 0.971166 0.054935 0.155339
H15   H     H_    0.527614 0.980080 0.928436 0.150357
H16   H     H_    0.051095 0.479322 0.049771 0.162233
H17   H     H_    0.042786 0.492453 0.922673 0.153660
H18   H     H_    0.541527 0.925417 0.546243 0.347246
H19   H     H_    0.398174 0.935642 0.355369 0.341514
H20   H     H_    0.979268 0.340238 0.611682 0.358034
H21   H     H_    0.902103 0.490487 0.371080 0.337012
H22   H     H_    0.624468 0.823787 0.399894 0.372816
H23   H     H_    0.044672 0.851478 0.446308 0.118827
H24   H     H_    0.311291 0.747951 0.641580 0.350946
H25   H     H_    0.124742 0.322383 0.399675 0.366375
H26   H     H_    0.826394 0.257490 0.633235 0.348506
H27   H     H_    0.941219 0.914224 0.536075 0.164988
H28   H     H_    0.091405 0.047296 0.434498 0.155158
H29   H     H_    0.442851 0.404816 0.534584 0.174475
H30   H     H_    0.588525 0.538235 0.436235 0.155463
H31   H     H_    0.825723 0.074610 0.551776 0.354673
H32   H     H_    0.240819 0.106012 0.436563 0.342252
H33   H     H_    0.330144 0.569495 0.546218 0.365399
H34   H     H_    0.039252 0.842374 0.578694 0.133434
H35   H     H_    0.735200 0.615079 0.438958 0.348497
H36   H     H_    0.871105 0.064732 0.426940 0.174415
H37   H     H_    0.189884 0.137453 0.550625 0.161311
H38   H     H_    0.375338 0.554755 0.423221 0.182115
H39   H     H_    0.682669 0.636575 0.553585 0.167461
H40   H     H_    0.926162 0.929195 0.409240 0.113819
H41   H     H_    0.097791 0.082005 0.561202 0.149116
H42   H     H_    0.426849 0.414477 0.406870 0.118914
H43   H     H_    0.593707 0.567853 0.563414 0.148045
H44   H     H_    0.510724 0.403598 0.875005 0.144255
H45   H     H_    0.902006 0.467710 0.556126 0.201029
H46   H     H_    0.466263 0.376048 0.134385 0.114788
H47   H     H_    0.984125 0.915952 0.882023 0.164052
H48   H     H_    0.951377 0.849144 0.140144 0.114981
H49   H     H_    0.959896 0.109154 0.903161 0.322323
H50   H     H_    0.934148 0.048891 0.148804 0.314277
H51   H     H_    0.500921 0.604482 0.888238 0.310998
H52   H     H_    0.466552 0.579375 0.134935 0.309011
H53   H     H_    0.816324 0.176639 0.087014 0.386880
H54   H     H_    0.129467 0.880320 0.861752 0.331787
H55   H     H_    0.321646 0.670251 0.087789 0.367557
H56   H     H_    0.981522 0.373121 0.426466 0.182907
H57   H     H_    0.667184 0.309925 0.851725 0.333747
H58   H     H_    0.824544 0.195310 0.913805 0.381993
H59   H     H_    0.088650 0.004855 0.023349 0.355408
H60   H     H_    0.351069 0.665432 0.924284 0.388529
H61   H     H_    0.634117 0.191468 0.010101 0.356101
H62   H     H_    0.219423 0.195593 0.961328 0.147562
H63   H     H_    0.880357 0.553185 0.093314 0.158361
H64   H     H_    0.697926 0.696417 0.957743 0.149860
H65   H     H_    0.405285 0.864940 0.071871 0.195139
H66   H     H_    0.693643 0.751410 0.082332 0.143288
H67   H     H_    0.389977 0.921014 0.541724 0.236124
H68   H     H_    0.416031 0.880759 0.944877 0.184901
H69   H     H_    0.208116 0.247511 0.084716 0.155895
H70   H     H_    0.894208 0.578231 0.968120 0.170267
H71   H     H_    0.497135 0.906416 0.421457 0.198877
H72   H     H_    0.662692 0.847285 0.572583 0.168656
O1    O     O_R   0.787520 0.042810 0.170440 -0.530290
O2    O     O_R   0.454050 0.051210 0.669140 -0.468699
O3    O     O_R   0.045950 0.551210 0.330860 -0.511575
O4    O     O_R   0.954050 0.551210 0.669140 -0.537290
O5    O     O_R   0.681390 0.959480 0.325510 -0.479750
O6    O     O_R   0.318610 0.959480 0.674490 -0.485542
O7    O     O_R   0.181390 0.459480 0.325510 -0.480305
O8    O     O_R   0.818610 0.459480 0.674490 -0.501492
O9    O     O_3   0.667900 0.167900 0.250060 -0.291661
O10   O     O_3   0.332100 0.167900 0.749940 -0.292383
O11   O     O_3   0.167900 0.667900 0.250060 -0.308968
O12   O     O_R   0.212480 0.042810 0.829560 -0.501072
O13   O     O_3   0.832100 0.667900 0.749940 -0.283523
O14   O     O_R   0.765640 0.292100 0.175020 -0.522245
O15   O     O_R   0.234360 0.292100 0.824980 -0.509303
O16   O     O_R   0.265640 0.792100 0.175020 -0.542202
O17   O     O_R   0.734360 0.792100 0.824980 -0.508081
O18   O     O_R   0.670190 0.408840 0.168540 -0.481195
O19   O     O_R   0.329810 0.408840 0.831460 -0.450431
O20   O     O_R   0.170190 0.908840 0.168540 -0.437567
O21   O     O_R   0.829810 0.908840 0.831460 -0.464985
O22   O     O_R   0.556620 0.251410 0.175160 -0.475042
O23   O     O_R   0.287520 0.542810 0.170440 -0.515586
O24   O     O_R   0.443380 0.251410 0.824840 -0.519326
O25   O     O_R   0.056620 0.751410 0.175160 -0.479908
O26   O     O_R   0.943380 0.751410 0.824840 -0.524760
O27   O     O_R   0.545960 0.049620 0.170320 -0.533853
O28   O     O_R   0.454040 0.049620 0.829680 -0.523014
O29   O     O_R   0.045960 0.549620 0.170320 -0.530098
O30   O     O_R   0.954040 0.549620 0.829680 -0.506994
O31   O     O_R   0.681390 0.958010 0.176690 -0.492982
O32   O     O_R   0.318610 0.958010 0.823310 -0.495279
O33   O     O_R   0.181390 0.458010 0.176690 -0.491626
O34   O     O_R   0.712480 0.542810 0.829560 -0.519520
O35   O     O_R   0.818610 0.458010 0.823310 -0.484655
O36   O     O_R   0.787510 0.044390 0.330970 -0.546563
O37   O     O_R   0.212490 0.044390 0.669030 -0.532494
O38   O     O_R   0.287510 0.544390 0.330970 -0.542573
O39   O     O_R   0.712490 0.544390 0.669030 -0.529251
O40   O     O_R   0.765630 0.293570 0.323840 -0.504509
O41   O     O_R   0.234370 0.293570 0.676160 -0.518792
O42   O     O_R   0.265630 0.793570 0.323840 -0.482306
O43   O     O_R   0.734370 0.793570 0.676160 -0.513235
O44   O     O_R   0.670190 0.410420 0.329080 -0.472310
O45   O     O_R   0.556610 0.252880 0.323980 -0.537643
O46   O     O_R   0.329810 0.410420 0.670920 -0.450812
O47   O     O_R   0.170190 0.910420 0.329080 -0.470287
O48   O     O_R   0.829810 0.910420 0.670920 -0.455984
O49   O     O_3   0.496443 0.884870 0.557612 -0.646683
O50   O     O_3   0.388157 0.924901 0.406948 -0.717647
O51   O     O_3   0.983920 0.338154 0.558962 -0.651024
O52   O     O_3   0.895831 0.494867 0.423605 -0.741619
O53   O     O_3   0.627285 0.876073 0.442877 -0.709584
O54   O     O_3   0.327599 0.756141 0.591549 -0.659330
O55   O     O_3   0.127214 0.374216 0.442876 -0.681119
O56   O     O_R   0.443390 0.252880 0.676020 -0.521501
O57   O     O_3   0.841176 0.275712 0.583662 -0.656713
O58   O     O_3   0.875859 0.055565 0.559991 -0.616872
O59   O     O_3   0.193250 0.113965 0.415536 -0.677575
O60   O     O_3   0.379802 0.549649 0.555813 -0.608220
O61   O     O_3   0.687380 0.617805 0.418012 -0.679235
O62   O     O_3   0.951308 0.110573 0.955374 -0.619327
O63   O     O_3   0.935767 0.075435 0.098310 -0.626316
O64   O     O_3   0.493661 0.614075 0.940382 -0.677531
O65   O     O_3   0.473494 0.599523 0.083863 -0.639687
O66   O     O_3   0.817829 0.165513 0.035521 -0.659158
O67   O     O_R   0.056610 0.752880 0.323980 -0.535123
O68   O     O_3   0.120298 0.917749 0.909047 -0.720707
O69   O     O_3   0.335411 0.629280 0.043733 -0.674426
O70   O     O_3   0.652253 0.297330 0.901748 -0.728262
O71   O     O_3   0.811049 0.117179 0.891769 -0.658030
O72   O     O_3   0.111870 0.945856 0.055011 -0.652448
O73   O     O_3   0.323107 0.604846 0.897798 -0.663925
O74   O     O_3   0.646486 0.248723 0.048794 -0.695302
O75   O     O_R   0.943390 0.752880 0.676020 -0.511680
O76   O     O_R   0.545950 0.051210 0.330860 -0.516269

loop_
_geom_bond_atom_site_label_1
_geom_bond_atom_site_label_2
_ccdc_geom_bond_type
C3    C104  A    
C44   C49   A    
Cr9   O56   S    
H53   O66   S    
C82   H34   S    
C87   C91   A    
C7    O48   A    
C35   C53   S    
C60   H70   S    
C8    O45   A    
C20   C67   S    
C18   C26   A    
C59   O21   A    
C11   O75   A    
C10   O67   A    
C72   C76   A    
Cr2   O32   S    
C61   C113  S    
Cr7   O39   S    
Cr6   O38   S    
C1    C33   S    
C90   C95   A    
C121  H43   S    
C43   O66   S    
Cr5   O37   S    
Cr1   O14   S    
C18   C65   S    
C98   C124  A    
C2    O63   S    
Cr8   O44   S    
C100  C105  A    
C101  C123  A    
C65   O22   A    
C81   H46   S    
C96   C118  S    
C28   C29   A    
C2    C103  A    
C9    C69   S    
C41   C58   S    
C38   C42   A    
Cr5   O12   S    
C95   C112  S    
C115  O32   A    
C8    O76   A    
C10   C73   S    
C95   C99   A    
C75   C84   S    
C106  H2    S    
H21   O52   S    
C56   H66   S    
C20   C25   A    
C94   C98   A    
Cr4   O30   S    
Cr10  O11   S    
Cr12  O27   S    
C66   O24   A    
C94   C111  S    
C89   C94   A    
C40   C62   A    
C14   O6    A    
Cr1   O36   S    
Cr8   O9    S    
C56   H9    S    
C16   O8    A    
C120  H42   S    
H55   O69   S    
Cr2   O6    S    
C91   C96   A    
C88   C93   A    
C77   C86   S    
C40   C57   S    
H50   O63   S    
Cr10  O25   S    
C14   O37   A    
C7    C87   S    
C38   C55   S    
C83   C84   S    
Cr7   O43   S    
C12   O36   A    
Cr3   O33   S    
C27   H15   S    
C51   O74   S    
C4    O40   A    
C52   H64   S    
C71   C78   A    
Cr11  O48   S    
C83   H67   S    
Cr2   O28   S    
C74   C83   S    
H61   O74   S    
Cr5   O15   S    
C93   C110  S    
C99   C121  S    
H20   O51   S    
C117  O34   A    
C54   H7    S    
C110  C119  S    
C118  H40   S    
H58   O71   S    
C36   C54   S    
H54   O68   S    
C55   C60   S    
H24   O54   S    
Cr10  O67   S    
C5    C89   S    
C36   C41   A    
C12   O5    A    
C31   C49   A    
C102  C124  A    
C114  O62   S    
C52   H5    S    
C9    O56   A    
C47   O71   S    
C109  C118  S    
C4    C90   S    
C24   O65   S    
Cr6   O42   S    
C69   C74   A    
C39   C61   A    
Cr5   O41   S    
C74   C75   A    
C30   C34   A    
C50   O73   S    
Cr3   O11   S    
C34   C39   A    
C17   C27   A    
C22   C81   A    
C5    O41   A    
C30   C47   A    
C19   C68   S    
C101  C106  A    
Cr11  O75   S    
C76   C77   A    
C4    O44   A    
C53   C57   S    
C15   O7    A    
H60   O73   S    
Cr2   O2    S    
C13   O64   S    
C42   C60   S    
C104  O57   S    
C108  H4    S    
H19   O50   S    
Cr1   O1    S    
C11   C72   S    
C55   H8    S    
C80   H23   S    
C52   C56   S    
Cr12  O9    S    
C20   C28   A    
C58   H69   S    
C44   C62   A    
C85   C86   S    
C80   C82   A    
C46   C51   A    
C67   O29   A    
C17   C21   A    
C64   C117  S    
C103  H48   S    
C13   C24   A    
C66   O28   A    
C111  C120  S    
C101  O54   S    
Cr10  O20   S    
C5    O46   A    
C97   C119  S    
C19   C23   A    
C24   C81   A    
C1    O18   A    
Cr5   O10   S    
C6    O42   A    
Cr8   O18   S    
C11   O4    A    
C58   H11   S    
C88   C106  A    
Cr7   O17   S    
C83   O49   S    
C39   C56   S    
C87   C105  A    
C15   O38   A    
C118  H36   S    
C9    O2    A    
C53   H6    S    
H22   O53   S    
C112  H30   S    
C30   C59   S    
C89   C107  A    
C110  H28   S    
C26   C27   A    
Cr11  O26   S    
C102  C107  A    
Cr7   O13   S    
H49   O62   S    
C32   C37   S    
C85   O51   S    
C98   C120  S    
C86   O52   S    
H18   O49   S    
C68   O26   A    
Cr8   O45   S    
Cr4   O8    S    
C111  H29   S    
C63   C116  S    
C117  O35   A    
Cr3   O3    S    
C15   C124  S    
C44   O68   S    
H51   O64   S    
Cr11  O13   S    
C37   O15   A    
C45   O69   S    
C31   C48   S    
C116  O23   A    
Cr11  O21   S    
C31   C35   A    
C115  O12   A    
H35   O61   S    
C41   C63   A    
C19   C29   A    
C78   H1    S    
C93   C97   A    
C104  C108  A    
C119  H41   S    
H25   O55   S    
C43   C61   A    
C105  H72   S    
C29   H17   S    
Cr12  O5    S    
C54   C58   S    
C16   O39   A    
C112  O61   S    
H57   O70   S    
C84   O50   S    
C116  O33   A    
C67   O25   A    
H33   O60   S    
C85   H45   S    
C14   C123  S    
C112  C121  S    
H59   O72   S    
C78   C79   A    
C110  O59   S    
C86   H56   S    
C65   O27   A    
C25   C103  A    
C54   H62   S    
Cr9   O10   S    
C109  O58   S    
C92   H47   S    
Cr8   O22   S    
Cr4   O13   S    
Cr10  O47   S    
C42   C64   A    
C120  H38   S    
C32   C36   A    
Cr3   O29   S    
C79   H12   S    
H52   O65   S    
C33   C51   A    
C48   O16   A    
C59   O17   A    
H26   O57   S    
C34   C52   S    
C33   C38   A    
C49   O72   S    
C96   C122  A    
C21   C70   A    
C21   C22   A    
C91   C109  S    
C28   H16   S    
C18   C22   A    
C35   C40   A    
H31   O58   S    
C113  O1    A    
C62   C115  S    
C97   C123  A    
C6    C88   S    
C119  H37   S    
C71   C75   A    
C2    C114  A    
C84   H71   S    
C70   H44   S    
C121  H39   S    
Cr9   O46   S    
C43   C47   A    
Cr6   O23   S    
C48   O20   A    
C111  O60   S    
C57   H68   S    
Cr6   O16   S    
H32   O59   S    
C46   O70   S    
C73   C80   A    
C45   C63   A    
C6    O47   A    
C32   C50   A    
C109  H27   S    
C100  C122  A    
C60   H13   S    
C23   C25   A    
C17   C66   S    
Cr6   O11   S    
Cr12  O76   S    
C53   H65   S    
Cr4   O4    S    
Cr9   O24   S    
C69   C79   A    
Cr9   O19   S    
C90   C108  A    
C26   H14   S    
Cr3   O7    S    
C3    C99   A    
C10   O3    A    
C113  O31   A    
C12   C122  S    
C100  O53   S    
C102  O55   S    
C13   C70   A    
Cr12  O31   S    
C46   C64   A    
Cr4   O35   S    
C73   C77   A    
C23   C92   A    
C1    O14   A    
Cr1   O40   S    
C68   O30   A    
C45   C50   A    
C37   O19   A    
Cr7   O34   S    
C7    O43   A    
C57   H10   S    
C92   C114  A    
C76   C85   S    
C107  H3    S    
C72   C82   A    
C3    C16   S    
Cr2   O10   S    
C55   H63   S    
C8    C71   S    
Cr1   O9    S    
