data_mof_unit_8855.cif
_audit_creation_date              2012-12-11T17:01:35-0500
_audit_creation_method            fapswitch 2.2
_symmetry_space_group_name_H-M    P1
_symmetry_Int_Tables_number       1
_space_group_crystal_system       triclinic
_cell_length_a                    15.282152
_cell_length_b                    14.961957
_cell_length_c                    14.749369
_cell_angle_alpha                 109.775254
_cell_angle_beta                  108.400831
_cell_angle_gamma                 110.047074
_cell_volume                      2601.74231598

loop_
_atom_site_label
_atom_site_type_symbol
_atom_type_description
_atom_site_fract_x
_atom_site_fract_y
_atom_site_fract_z
_atom_type_partial_charge
C1    C     C_R   0.014516 0.808574 0.105584 0.536518
C2    C     C_R   0.222892 0.748858 0.314400 0.845904
C3    C     C_R   0.891717 0.410326 0.201973 0.550466
C4    C     C_R   0.792433 0.192780 0.702209 0.794440
C5    C     C_R   0.285209 0.589024 0.975772 0.445019
C6    C     C_R   0.914531 0.501493 0.294172 -0.184884
C7    C     C_R   0.284864 0.497136 0.907140 0.060113
C8    C     C_R   0.322238 0.776069 0.323432 -0.057866
C9    C     C_R   0.051951 0.228879 0.054369 -0.167112
C10   C     C_3   0.479531 0.386640 0.869518 0.900758
C11   C     C_3   0.375573 0.392682 0.831590 0.237748
C12   C     C_R   0.701985 0.131389 0.702327 -0.234722
C13   C     C_3   0.547567 0.507336 0.075577 0.599122
C14   C     C_3   0.572975 0.590834 0.948245 1.178759
C15   C     C_3   0.573450 0.498692 0.977383 -0.794072
C16   C     C_R   0.036093 0.592646 0.775523 0.447955
C17   C     C_3   0.387787 0.493478 0.929900 -0.722523
C18   C     C_3   0.429167 0.481137 0.036029 0.893096
C19   C     C_3   0.475290 0.602073 0.945176 0.482964
C20   C     C_R   0.569498 0.934345 0.592962 -0.099523
C21   C     C_R   0.606124 0.039691 0.606468 -0.046903
C22   C     C_R   0.538199 0.059990 0.536519 0.327417
C23   C     C_R   0.957529 0.502775 0.671633 -0.072675
C24   C     C_R   0.444107 0.971861 0.443252 0.788068
C25   C     C_R   0.417053 0.864701 0.421791 -0.155093
C26   C     C_R   0.474947 0.847473 0.501195 -0.206439
C27   C     C_3   0.515165 0.768830 0.491620 1.270547
C28   C     C_R   0.688631 0.408766 0.968857 0.011919
C29   C     C_3   0.620056 0.864391 0.594290 0.522636
C30   C     C_R   0.918430 0.607746 0.470196 -0.136515
C31   C     C_R   0.869667 0.507496 0.371931 -0.155002
C32   C     C_R   0.802372 0.413648 0.369489 0.775121
C33   C     C_R   0.819209 0.414729 0.469116 0.348102
C34   C     C_R   0.677941 0.501394 0.004970 0.122433
C35   C     C_R   0.909033 0.506652 0.568983 -0.083234
C36   C     C_R   0.942525 0.607995 0.571382 -0.144518
C37   C     C_3   0.895791 0.678710 0.605356 0.843394
C38   C     C_3   0.863578 0.672731 0.495420 0.910282
C39   C     C_R   0.006780 0.998755 0.106298 -0.255136
C40   C     C_R   0.941844 0.410114 0.682730 0.459257
C41   C     C_R   0.084708 0.976362 0.093589 -0.170190
C42   C     C_R   0.172201 0.057335 0.100779 0.714344
C43   C     C_R   0.170024 0.150815 0.101874 0.749863
C44   C     C_R   0.079178 0.160018 0.092848 -0.170143
C45   C     C_R   0.984999 0.591037 0.295319 0.511492
C46   C     C_R   0.004608 0.089546 0.107725 -0.176962
C47   C     C_3   0.884491 0.028895 0.046940 1.275326
C48   C     C_3   0.887381 0.928508 0.045860 0.843850
C49   C     C_R   0.780887 0.593007 0.065777 0.556499
C50   C     C_R   0.702002 0.197162 0.792445 0.758883
C51   C     C_R   0.092699 0.804060 0.002781 0.005206
C52   C     C_R   0.065418 0.866961 0.066519 0.008411
C53   C     C_R   0.194481 0.408491 0.883432 0.557753
C54   C     C_R   0.311788 0.749383 0.220502 -0.034384
C55   C     C_R   0.982784 0.261638 0.073599 0.773617
C56   C     C_R   0.062269 0.247052 0.971305 0.476637
Cl1   Cl    Cl    0.057569 0.878792 0.247872 -0.326569
Cl2   Cl    Cl    0.524006 0.726123 0.071048 -0.278579
Cl3   Cl    Cl    0.638144 0.638515 0.199196 -0.263788
Cl4   Cl    Cl    0.412373 0.556013 0.148215 -0.419011
Cl5   Cl    Cl    0.568764 0.194050 0.562795 -0.356904
Cl6   Cl    Cl    0.131649 0.714909 0.796217 -0.413854
Cl7   Cl    Cl    0.647893 0.849979 0.713802 -0.229719
Cl8   Cl    Cl    0.732050 0.902846 0.571303 -0.250650
Cl9   Cl    Cl    0.713851 0.315999 0.467427 -0.283170
Cl10  Cl    Cl    0.990232 0.814974 0.719813 -0.307056
Cl11  Cl    Cl    0.721826 0.599336 0.408140 -0.299231
Cl12  Cl    Cl    0.100902 0.307832 0.745278 -0.364615
Cl13  Cl    Cl    0.830712 0.815266 0.910662 -0.376408
Cl14  Cl    Cl    0.899317 0.282548 0.572457 -0.326159
Cl15  Cl    Cl    0.830142 0.723544 0.173716 -0.255367
Cl16  Cl    Cl    0.005484 0.723884 0.362231 -0.292001
Cl17  Cl    Cl    0.107899 0.185053 0.887856 -0.279536
Cl18  Cl    Cl    0.776422 0.279582 0.125822 -0.276131
Cl19  Cl    Cl    0.313076 0.707728 0.964530 -0.390244
Cl20  Cl    Cl    0.503942 0.346685 0.753850 -0.371103
Cl21  Cl    Cl    0.269407 0.254544 0.771555 -0.157061
Cl22  Cl    Cl    0.567395 0.414784 0.121666 -0.216771
Cl23  Cl    Cl    0.422341 0.625472 0.832636 -0.262235
F1    F     F_    0.960713 0.266171 0.156154 -0.619216
F2    F     F_    0.522385 0.730501 0.396204 -0.584151
F3    F     F_    0.712049 0.329921 0.275403 -0.500792
F4    F     F_    0.810752 0.627252 0.619789 -0.594307
F5    F     F_    0.911461 0.773847 0.502743 -0.492397
F6    F     F_    0.254855 0.043051 0.099341 -0.544208
F7    F     F_    0.251644 0.226779 0.103369 -0.508973
F8    F     F_    0.841468 0.067949 0.109895 -0.497581
F9    F     F_    0.841818 0.018894 0.943718 -0.655135
F10   F     F_    0.849528 0.898735 0.110745 -0.492510
F11   F     F_    0.637391 0.162263 0.832967 -0.576892
F12   F     F_    0.205522 0.776222 0.401346 -0.592443
F13   F     F_    0.463736 0.301890 0.893144 -0.527738
F14   F     F_    0.837104 0.145906 0.650840 -0.527234
F15   F     F_    0.365591 0.372835 0.005593 -0.510641
F16   F     F_    0.663321 0.692224 0.019254 -0.518565
F17   F     F_    0.570310 0.564430 0.847394 -0.576497
F18   F     F_    0.380634 0.990046 0.372010 -0.581426
F19   F     F_    0.459147 0.685264 0.506592 -0.568632
H1    H     H_    0.374525 0.765914 0.198710 0.230126
H2    H     H_    0.361716 0.407892 0.761031 0.174456
H3    H     H_    0.629222 0.323644 0.928571 0.277148
H4    H     H_    0.153261 0.835587 0.981878 0.251330
N1    N     N_R   0.995640 0.706130 0.053910 -0.124096
N2    N     N_R   0.054010 0.556790 0.847890 -0.134136
N3    N     N_R   0.789940 0.443190 0.997130 -0.125428
N4    N     N_R   0.997630 0.443170 0.791110 -0.133386
N5    N     N_R   0.846320 0.556810 0.053910 -0.153318
N6    N     N_R   0.791080 0.293860 0.847890 -0.178618
N7    N     N_R   0.052880 0.706130 0.997130 -0.104412
N8    N     N_R   0.002370 0.556830 0.208890 -0.168667
N9    N     N_R   0.153680 0.443190 0.946090 -0.148625
N10   N     N_R   0.208920 0.706140 0.152110 -0.105698
N11   N     N_R   0.947120 0.293870 0.002870 -0.160518
N12   N     N_R   0.004360 0.293870 0.946090 -0.157777
N13   N     N_R   0.151690 0.706140 0.208890 -0.140119
N14   N     N_R   0.945990 0.443210 0.152110 -0.153850
N15   N     N_R   0.210060 0.556810 0.002870 -0.137709
N16   N     N_R   0.848310 0.293860 0.791110 -0.181669
Ni1   Ni    Ni4+2 0.999010 0.630300 0.130220 0.336222
Ni2   Ni    Ni4+2 0.000990 0.369700 0.869780 0.351703
Ni3   Ni    Ni4+2 0.130280 0.630280 0.000000 0.309093
Ni4   Ni    Ni4+2 0.869720 0.369720 0.000000 0.327423

loop_
_geom_bond_atom_site_label_1
_geom_bond_atom_site_label_2
_ccdc_geom_bond_type
C29   Cl7   S    
C27   F19   S    
C6    C45   A    
C27   C29   S    
C41   C42   A    
C35   C36   A    
C48   Cl13  S    
C3    C6    A    
N2    N4    A    
C33   Cl9   S    
C39   C41   A    
C51   H4    S    
N3    N5    A    
C26   C27   S    
N14   Ni4   S    
C13   C18   S    
C36   C37   S    
C3    N14   A    
C30   C31   A    
N9    N15   A    
C23   C40   A    
C30   C38   S    
C14   F17   S    
C3    Cl18  S    
C53   Cl12  S    
N15   Ni3   S    
C11   Cl21  S    
C17   C19   S    
C46   C47   S    
C10   Cl20  S    
C28   H3    S    
C50   F11   S    
N11   Ni4   S    
C31   C32   A    
C44   C46   A    
C7    C17   S    
C9    C55   A    
C4    C12   A    
C1    N1    A    
C15   C34   S    
N4    Ni2   S    
C53   N9    A    
C6    C31   S    
C29   Cl8   S    
C10   F13   S    
C51   N7    A    
N1    N7    A    
C21   C22   A    
C45   Cl16  S    
C50   N6    A    
C8    C25   S    
C4    N16   A    
C16   Cl6   S    
N5    Ni1   S    
C16   N2    A    
C20   C29   S    
C19   Cl2   S    
N1    Ni1   S    
C51   C52   A    
N6    N16   A    
C27   F2    S    
C24   C25   A    
C49   N5    A    
C8    C54   A    
C5    C7    A    
C45   N8    A    
N2    Ni3   S    
C55   N11   A    
C25   C26   A    
C12   C21   S    
C24   F18   S    
C5    N15   A    
C11   H2    S    
C47   F8    S    
C5    Cl19  S    
C43   C44   A    
C37   C38   S    
C1    Cl1   S    
C2    N13   A    
C47   C48   S    
C28   N3    A    
C37   Cl10  S    
C17   C18   S    
C54   N10   A    
C9    C56   A    
C38   Cl11  S    
C19   Cl23  S    
C40   Cl14  S    
C39   C46   A    
C18   Cl4   S    
C16   C23   A    
C23   C35   S    
C48   F10   S    
C13   C15   S    
C18   F15   S    
C22   C24   A    
C54   H1    S    
C42   C43   A    
C7    C53   A    
N8    N14   A    
C14   F16   S    
C40   N4    A    
N11   N12   A    
C13   Cl22  S    
C11   C17   S    
C9    C44   S    
C56   Cl17  S    
C41   C52   S    
C38   F5    S    
C43   F7    S    
C14   C19   S    
C2    C8    A    
N6    Ni4   S    
N8    Ni1   S    
C12   C50   A    
C13   Cl3   S    
C32   F3    S    
N13   Ni1   S    
C30   C36   A    
C10   C15   S    
C32   C33   A    
C37   F4    S    
N10   Ni3   S    
C47   F9    S    
C22   Cl5   S    
C55   F1    S    
N7    Ni3   S    
C20   C26   A    
C33   C35   A    
N3    Ni4   S    
C2    F12   S    
C1    C52   A    
N16   Ni2   S    
C10   C11   S    
C28   C34   A    
C4    F14   S    
C20   C21   A    
C34   C49   A    
C49   Cl15  S    
C56   N12   A    
C14   C15   S    
N9    Ni2   S    
N10   N13   A    
N12   Ni2   S    
C39   C48   S    
C42   F6    S    
