data_mof_unit_19881.cif
_audit_creation_date              2013-03-05T16:42:22-0500
_audit_creation_method            fapswitch 2.2
_symmetry_space_group_name_H-M    P1
_symmetry_Int_Tables_number       1
_space_group_crystal_system       triclinic
_cell_length_a                    9.92649
_cell_length_b                    10.714853
_cell_length_c                    15.657659
_cell_angle_alpha                 91.225203
_cell_angle_beta                  69.02306
_cell_angle_gamma                 89.366385
_cell_volume                      1554.32192405

loop_
_atom_site_label
_atom_site_type_symbol
_atom_site_description
_atom_site_fract_x
_atom_site_fract_y
_atom_site_fract_z
_atom_type_partial_charge
O1    O     O_R   0.385310 0.683210 0.499990 -0.611439
O2    O     O_R   0.614650 0.683240 0.500000 -0.637415
C1    C     C_R   0.500968 0.740021 0.497488 0.909973
O3    O     O_R   0.319830 0.499970 0.632240 -0.612371
O4    O     O_R   0.549170 0.500000 0.632250 -0.602660
C2    C     C_R   0.410373 0.500822 0.674822 0.886147
Zn1   Zn    Zn3+2 0.346870 0.499980 0.499990 1.005960
Zn2   Zn    Zn3+2 0.653130 0.500020 0.500010 0.961578
O5    O     O_R   0.385350 0.316760 0.500000 -0.567671
O6    O     O_R   0.614690 0.316790 0.500010 -0.624692
O7    O     O_R   0.450830 0.500000 0.367750 -0.590092
O8    O     O_R   0.680170 0.500030 0.367760 -0.629632
C3    C     C_R   0.502717 0.260209 0.496610 0.902225
C4    C     C_R   0.589678 0.504304 0.325136 0.878737
C5    C     C_R   0.357484 0.502108 0.774112 -0.082048
C6    C     C_R   0.642193 0.525073 0.226881 -0.066492
C7    C     C_R   0.176959 0.462052 0.921066 -0.208172
C8    C     C_R   0.218909 0.463430 0.826242 -0.182916
C9    C     C_R   0.453069 0.537743 0.816517 -0.169039
C10   C     C_R   0.419866 0.523238 0.909775 0.109908
C11   C     C_R   0.275351 0.494622 0.963282 0.153594
C12   C     C_R   0.524583 0.539479 0.951542 -0.066759
C13   C     C_R   0.476535 0.542032 0.048308 -0.014028
C14   C     C_R   0.326921 0.535888 0.099442 -0.126660
C15   C     C_R   0.229632 0.504422 0.057940 -0.197887
C16   C     C_R   0.675665 0.547098 0.901176 0.578835
C17   C     C_R   0.772037 0.571541 0.945407 -0.295126
C18   C     C_R   0.725926 0.570280 0.040282 0.086816
C19   C     C_R   0.579639 0.547257 0.091442 0.081696
C20   C     C_R   0.825934 0.581995 0.084549 -0.174041
C21   C     C_R   0.784195 0.559429 0.177836 -0.189201
C22   C     C_R   0.542322 0.519910 0.183451 -0.203540
H1    H     H_    0.117517 0.491636 0.100005 0.151636
H2    H     H_    0.436203 0.488520 0.221919 0.209364
H3    H     H_    0.862350 0.568119 0.211187 0.156886
H4    H     H_    0.885664 0.580319 0.904933 0.174071
H5    H     H_    0.068683 0.434000 0.961134 0.151117
H6    H     H_    0.143624 0.435209 0.793998 0.173855
H7    H     H_    0.551454 0.580906 0.775582 0.205834
H8    H     H_    0.282178 0.555445 0.172074 0.174139
H9    H     H_    0.936396 0.606640 0.046844 0.138973
C23   C     C_R   0.391160 0.938194 0.478269 -0.006111
C24   C     C_R   0.509199 0.871390 0.483325 -0.053576
C25   C     C_R   0.639203 0.933102 0.469982 -0.212849
H10   H     H_    0.736530 0.883006 0.466434 0.165750
C26   C     C_R   0.640680 0.062326 0.469171 -0.204239
H11   H     H_    0.738537 0.109476 0.465440 0.176192
C27   C     C_R   0.512184 0.128544 0.481583 -0.064818
C28   C     C_R   0.392940 0.065672 0.477473 0.093811
C29   C     C_3   0.237941 0.080209 0.537321 -0.462437
C30   C     C_3   0.235359 0.939406 0.538516 0.448307
H12   H     H_    0.222457 0.125181 0.604994 0.223706
H13   H     H_    0.170982 0.120754 0.500730 0.193222
H14   H     H_    0.164910 0.899647 0.503926 0.051689
C31   C     C_R   0.886203 0.541177 0.575184 0.294704
N1    N     N_R   0.856900 0.500860 0.500610 -0.145326
C32   C     C_R   0.966152 0.446675 0.430169 -0.220761
H15   H     H_    0.941624 0.404271 0.374240 0.198613
C33   C     C_R   0.109700 0.443984 0.429710 0.317977
N2    N     N_R   0.142540 0.500820 0.500610 -0.173980
C34   C     C_R   0.027723 0.538816 0.576007 0.126738
C35   C     C_3   0.007208 0.663878 0.621813 -0.398810
C36   C     C_3   0.856783 0.668958 0.617842 -0.487643
H16   H     H_    0.008041 0.659669 0.692513 0.241975
H17   H     H_    0.080451 0.731326 0.577569 0.231131
H18   H     H_    0.770326 0.671847 0.686322 0.246107
H19   H     H_    0.844148 0.739847 0.570256 0.192738
F1    F     F_    0.214484 0.894909 0.624718 -0.655605
N3    N     N_R   0.216155 0.377916 0.354520 0.203362
O9    O     O_R   0.295546 0.291157 0.370367 -0.379230
O10   O     O_R   0.200876 0.374076 0.275372 -0.469523
F2    F     F_    0.735667 0.518153 0.810627 -0.710574

loop_
_geom_bond_atom_site_label_1
_geom_bond_atom_site_label_2
_geom_bond_distance
_ccdc_geom_bond_type
O4    Zn2   1.955081 S    
C29   H12   1.112877 S    
C24   C25   1.406396 A    
C28   C29   1.491918 S    
C20   H9    1.081751 S    
C35   C36   1.516989 S    
C4    C6    1.459828 S    
C17   H4    1.084328 S    
C6    C22   1.389446 A    
C16   F2    1.354088 S    
C5    C8    1.397621 A    
Zn1   O7    1.955081 S    
C9    C10   1.389698 A    
O8    C4    1.297697 A    
C23   C30   1.495447 S    
Zn2   O8    1.990478 S    
C30   H14   1.109831 S    
Zn1   O5    1.995853 S    
Zn2   N1    2.026222 S    
C31   N1    1.363467 A    
C18   C20   1.404763 A    
C7    C8    1.391554 A    
C8    H6    1.083236 S    
C36   H18   1.107381 S    
C33   N2    1.394316 A    
C36   H19   1.112139 S    
C7    H5    1.082380 S    
C10   C11   1.419148 A    
C6    C21   1.400242 A    
C5    C9    1.391080 A    
C1    C24   1.428331 S    
C16   C17   1.391237 A    
O4    C2    1.297915 A    
C31   C36   1.489420 S    
C9    H7    1.073770 S    
C33   N3    1.435583 S    
O3    Zn1   1.990481 S    
C11   C15   1.387220 A    
C13   C19   1.414670 A    
N3    O9    1.296330 A    
C18   C19   1.412337 A    
C14   H8    1.077316 S    
C10   C12   1.422785 A    
C29   C30   1.509585 S    
C19   C22   1.391731 A    
O2    C1    1.289472 A    
C30   F1    1.386167 S    
C12   C16   1.427026 A    
C20   C21   1.395580 A    
O7    C4    1.300478 A    
C21   H3    1.082967 S    
C14   C15   1.384100 A    
C32   C33   1.422337 A    
C29   H13   1.111602 S    
C34   C35   1.483178 S    
C13   C14   1.415657 A    
C26   C27   1.401683 A    
C31   C34   1.409419 A    
Zn1   N2    2.024744 S    
N1    C32   1.353497 A    
Zn2   O6    2.004157 S    
O3    C2    1.296680 A    
C23   C24   1.393495 A    
O2    Zn2   1.995853 S    
C17   C18   1.389464 A    
N3    O10   1.301163 A    
O5    C3    1.290747 A    
C12   C13   1.415763 A    
C27   C28   1.389020 A    
C35   H16   1.111865 S    
C23   C28   1.366480 A    
C35   H17   1.096908 S    
O1    Zn1   2.004157 S    
C2    C5    1.451658 S    
C26   H11   1.083376 S    
O6    C3    1.289071 A    
C25   C26   1.385141 A    
C7    C11   1.404476 A    
C25   H10   1.083238 S    
C32   H15   1.081991 S    
C15   H1    1.083300 S    
N2    C34   1.365372 A    
O1    C1    1.294000 A    
C3    C27   1.421797 S    
C22   H2    1.071342 S    
