data_mof_unit_28248.cif
_audit_creation_date              2012-12-11T14:46:01-0500
_audit_creation_method            fapswitch 2.2
_symmetry_space_group_name_H-M    P1
_symmetry_Int_Tables_number       1
_space_group_crystal_system       triclinic
_cell_length_a                    10.950653
_cell_length_b                    10.952169
_cell_length_c                    18.861933
_cell_angle_alpha                 90.450964
_cell_angle_beta                  89.378823
_cell_angle_gamma                 119.785061
_cell_volume                      1963.20763602

loop_
_atom_site_label
_atom_site_type_symbol
_atom_type_description
_atom_site_fract_x
_atom_site_fract_y
_atom_site_fract_z
_atom_type_partial_charge
C1    C     C_R   0.869026 0.635374 0.604887 0.544180
C2    C     C_R   0.377087 0.582817 0.779015 0.126697
C3    C     C_R   0.356177 0.576708 0.707992 -0.101764
C4    C     C_R   0.320942 0.667951 0.675295 -0.023442
C5    C     C_R   0.855573 0.159199 0.822123 -0.044656
C6    C     C_R   0.024931 0.067298 0.805280 -0.096080
C7    C     C_R   0.098243 0.023477 0.760763 -0.130806
C8    C     C_R   0.093923 0.035750 0.688105 -0.119328
C9    C     C_R   0.012751 0.087802 0.659420 -0.097770
C10   C     C_R   0.929717 0.124542 0.703150 0.002211
C11   C     C_R   0.936376 0.116496 0.778093 -0.002094
C12   C     C_R   0.266592 0.630665 0.604453 0.533925
C13   C     C_R   0.739010 0.177960 0.718627 0.018286
C14   C     C_R   0.774715 0.210614 0.789750 0.009127
C15   C     C_R   0.612454 0.170051 0.695251 -0.071884
C16   C     C_R   0.543585 0.223555 0.736771 -0.124132
C17   C     C_R   0.598455 0.283612 0.802276 -0.108069
C18   C     C_R   0.713498 0.277772 0.828736 -0.077445
C19   C     C_R   0.833738 0.160405 0.673368 -0.042334
C20   C     C_R   0.899579 0.595112 0.726824 -0.115467
C21   C     C_R   0.884652 0.609199 0.798781 -0.150175
C22   C     C_R   0.803639 0.667100 0.821825 0.014026
C23   C     C_R   0.859073 0.223635 0.602025 0.528258
C24   C     C_R   0.742732 0.717613 0.772939 -0.104393
C25   C     C_R   0.758515 0.705811 0.699874 -0.006416
C26   C     C_R   0.838070 0.643935 0.677960 0.062495
C27   C     C_R   0.245398 0.537242 0.275267 -0.127831
C28   C     C_R   0.261381 0.553963 0.202830 -0.137001
C29   C     C_R   0.334642 0.689132 0.174055 0.022944
C30   C     C_R   0.379556 0.807736 0.218163 -0.140098
C31   C     C_R   0.360452 0.790583 0.291239 -0.151166
C32   C     C_R   0.298592 0.655262 0.319986 0.029675
C33   C     C_R   0.784889 0.251573 0.275813 -0.126717
C34   C     C_R   0.870972 0.636046 0.395288 0.528152
C35   C     C_R   0.782418 0.234195 0.203335 -0.139796
C36   C     C_R   0.850218 0.167240 0.172665 0.023690
C37   C     C_R   0.931942 0.129818 0.214726 -0.139207
C38   C     C_R   0.936184 0.149449 0.287800 -0.153832
C39   C     C_R   0.857811 0.205165 0.318686 0.030711
C40   C     C_R   0.964921 0.715028 0.276191 -0.125486
C41   C     C_R   0.948857 0.716922 0.203901 -0.137657
C42   C     C_R   0.813954 0.652178 0.174970 0.023776
C43   C     C_R   0.695394 0.574650 0.218719 -0.139227
C44   C     C_R   0.711949 0.570479 0.291606 -0.152069
C45   C     C_R   0.266278 0.630728 0.394897 0.541201
C46   C     C_R   0.846617 0.645382 0.320664 0.032889
C47   C     C_R   0.809817 0.103130 0.894857 0.529248
C48   C     C_R   0.403962 0.703008 0.894385 0.549667
C49   C     C_R   0.795662 0.693480 0.896280 0.532806
C50   C     C_R   0.808375 0.107530 0.102172 0.545995
C51   C     C_R   0.394095 0.704854 0.103344 0.547575
C52   C     C_R   0.797089 0.693527 0.104320 0.548350
C53   C     C_R   0.865212 0.235954 0.393849 0.539829
C54   C     C_R   0.313452 0.773533 0.714355 -0.158512
C55   C     C_R   0.337621 0.783630 0.786945 -0.170234
C56   C     C_R   0.366679 0.686757 0.820143 0.031848
Cr1   Cr    Cr6+3 0.791660 0.390250 0.499930 1.001008
Cr2   Cr    Cr6+3 0.098520 0.708290 0.500540 0.994329
Cr3   Cr    Cr6+3 0.109770 0.401430 0.499480 1.001172
Cr4   Cr    Cr6+3 0.874790 0.925890 0.000070 0.996021
Cr5   Cr    Cr6+3 0.574120 0.948670 0.999300 1.011139
Cr6   Cr    Cr6+3 0.551420 0.625320 0.000920 0.994093
H1    H     H_    0.284286 0.844147 0.689549 0.133072
H2    H     H_    0.449294 0.220405 0.717540 0.109117
H3    H     H_    0.564735 0.120927 0.645399 0.132284
H4    H     H_    0.548717 0.328861 0.834291 0.118135
H5    H     H_    0.962690 0.549471 0.708933 0.124426
H6    H     H_    0.936458 0.575844 0.836265 0.105648
H7    H     H_    0.687510 0.770664 0.792166 0.114786
H8    H     H_    0.190431 0.431329 0.296275 0.143310
H9    H     H_    0.224364 0.461165 0.169654 0.130362
H10   H     H_    0.437164 0.913297 0.196841 0.138908
H11   H     H_    0.332165 0.865452 0.817060 0.132092
H12   H     H_    0.396786 0.882120 0.325230 0.121114
H13   H     H_    0.729505 0.301902 0.298258 0.144568
H14   H     H_    0.720489 0.265567 0.171821 0.130407
H15   H     H_    0.985112 0.077543 0.191941 0.139834
H16   H     H_    0.997165 0.118257 0.320142 0.120225
H17   H     H_    0.070674 0.767569 0.297228 0.144326
H18   H     H_    0.041765 0.775780 0.171088 0.131225
H19   H     H_    0.589973 0.524457 0.197354 0.139286
H20   H     H_    0.620326 0.512105 0.325257 0.118456
H21   H     H_    0.363520 0.494884 0.678700 0.159623
H22   H     H_    0.164096 0.985765 0.783078 0.106755
H23   H     H_    0.152779 0.003643 0.653730 0.121630
H24   H     H_    0.050434 0.071160 0.860305 0.154631
H25   H     H_    0.006500 0.086347 0.602277 0.123837
H26   H     H_    0.750519 0.319941 0.881242 0.119074
O1    O     O_R   0.766500 0.250040 0.579790 -0.524383
O2    O     O_R   0.218690 0.701900 0.425960 -0.504497
O3    O     O_R   0.249490 0.516440 0.419420 -0.527441
O4    O     O_R   0.982880 0.281910 0.424890 -0.510343
O5    O     O_3   0.999980 0.499990 0.499980 -0.243844
O6    O     O_R   0.895110 0.806860 0.920430 -0.518738
O7    O     O_R   0.872260 0.046970 0.925000 -0.522447
O8    O     O_R   0.691430 0.085060 0.918550 -0.512582
O9    O     O_R   0.451490 0.822460 0.925250 -0.506792
O10   O     O_R   0.413330 0.603360 0.920440 -0.519793
O11   O     O_R   0.676110 0.626250 0.926750 -0.527641
O12   O     O_R   0.798570 0.516780 0.574780 -0.503581
O13   O     O_R   0.895350 0.809870 0.080950 -0.523907
O14   O     O_R   0.872490 0.049760 0.073800 -0.506846
O15   O     O_R   0.691680 0.088070 0.079070 -0.525691
O16   O     O_R   0.451720 0.825250 0.074050 -0.504459
O17   O     O_R   0.413580 0.606370 0.080960 -0.523914
O18   O     O_R   0.676340 0.629040 0.075550 -0.504301
O19   O     O_3   0.666780 0.833290 0.000090 -0.242747
O20   O     O_R   0.984000 0.732950 0.581090 -0.535178
O21   O     O_R   0.218600 0.700890 0.574760 -0.504325
O22   O     O_R   0.249390 0.515350 0.579940 -0.534044
O23   O     O_R   0.982790 0.280900 0.573700 -0.501220
O24   O     O_R   0.766600 0.251130 0.419260 -0.526971
O25   O     O_R   0.798660 0.517790 0.425980 -0.509618
O26   O     O_R   0.984100 0.734040 0.420570 -0.532726
C57   C     C_3   0.706410 0.774226 0.647312 -0.263117
C58   C     C_3   0.615769 0.677237 0.586524 -0.296019
C59   C     C_3   0.675590 0.735978 0.512982 -0.422146
H27   H     H_    0.675940 0.836475 0.504611 0.141674
H28   H     H_    0.784636 0.756001 0.506964 0.184567
H29   H     H_    0.609281 0.659673 0.471613 0.149901
H30   H     H_    0.596388 0.568219 0.591876 0.178391
H31   H     H_    0.512914 0.670296 0.588460 0.168257
H32   H     H_    0.646697 0.817923 0.675436 0.135243
H33   H     H_    0.799308 0.864626 0.623825 0.155829
N1    N     N_2   0.412714 0.484052 0.806242 -0.519249
H34   H     H_    0.508034 0.521631 0.830427 0.284050
C60   C     C_3   0.299074 0.353993 0.833411 -0.285174
H35   H     H_    0.312051 0.345031 0.891084 0.149819
H36   H     H_    0.303170 0.266367 0.806338 0.136430
H37   H     H_    0.195481 0.346611 0.824534 0.162207

loop_
_geom_bond_atom_site_label_1
_geom_bond_atom_site_label_2
_ccdc_geom_bond_type
C55   C56   A    
Cr2   O21   S    
C41   C42   A    
C14   C18   A    
C20   H5    S    
C35   C36   A    
C41   H18   S    
C12   O22   A    
Cr5   O8    S    
C7    C8    A    
Cr6   O17   S    
C39   C53   S    
C34   O25   A    
C40   C46   A    
C48   O9    A    
C5    C47   S    
C17   H4    S    
C33   C39   A    
N1    H34   S    
Cr1   O1    S    
C36   C37   A    
Cr5   O15   S    
Cr2   O5    S    
C5    C11   A    
C44   H20   S    
C25   C57   S    
C30   C31   A    
Cr1   O24   S    
C54   H1    S    
C15   C16   A    
C15   H3    S    
Cr3   O22   S    
C58   C59   S    
C8    H23   S    
C32   C45   S    
Cr6   O10   S    
C33   H13   S    
C8    C9    A    
Cr3   O23   S    
C47   O8    A    
C23   O1    A    
C34   C46   S    
C49   O6    A    
C4    C12   S    
C29   C30   A    
C9    C10   A    
C27   H8    S    
C7    H22   S    
C52   O18   A    
C50   O15   A    
Cr1   O5    S    
C21   C22   A    
Cr4   O14   S    
C1    O12   A    
C12   O21   A    
C25   C26   A    
C44   C46   A    
C24   H7    S    
Cr4   O7    S    
C52   O13   A    
C35   H14   S    
C57   H32   S    
C58   H30   S    
C13   C19   A    
Cr5   O16   S    
C24   C25   A    
C59   H29   S    
C6    C11   A    
C16   C17   A    
C31   H12   S    
Cr1   O25   S    
Cr6   O19   S    
C38   H16   S    
C51   O16   A    
Cr1   O12   S    
C37   H15   S    
C18   H26   S    
C19   C23   S    
C43   C44   A    
C60   H36   S    
C37   C38   A    
C16   H2    S    
C49   O11   A    
C31   C32   A    
C10   C19   A    
C51   O17   A    
C53   O4    A    
C17   C18   A    
C40   H17   S    
Cr3   O3    S    
C45   O2    A    
Cr2   O2    S    
C5    C14   A    
C6    C7    A    
Cr4   O19   S    
C58   H31   S    
C22   C49   S    
C53   O24   A    
C40   C41   A    
C50   O14   A    
C13   C15   A    
C21   H6    S    
C3    H21   S    
C1    C26   S    
C43   H19   S    
C22   C24   A    
C28   H9    S    
C42   C43   A    
C3    C4    A    
C36   C50   S    
N1    C60   S    
C29   C51   S    
C48   C56   S    
C54   C55   A    
C28   C29   A    
C57   H33   S    
C4    C54   A    
C27   C32   A    
Cr5   O9    S    
C30   H10   S    
C60   H35   S    
Cr6   O18   S    
C34   O26   A    
C48   O10   A    
C6    H24   S    
C59   H28   S    
C2    C3    A    
C23   O23   A    
C60   H37   S    
C2    C56   A    
C59   H27   S    
C9    H25   S    
C57   C58   S    
C38   C39   A    
C20   C26   A    
C33   C35   A    
Cr2   O20   S    
Cr3   O4    S    
C45   O3    A    
C10   C11   A    
C1    O20   A    
Cr6   O11   S    
C55   H11   S    
C2    N1    S    
C20   C21   A    
Cr5   O19   S    
C27   C28   A    
Cr2   O26   S    
C47   O7    A    
Cr3   O5    S    
C13   C14   A    
Cr4   O13   S    
C42   C52   S    
Cr4   O6    S    
