data_mof_unit_68023.cif
_audit_creation_date              2012-12-11T14:03:29-0500
_audit_creation_method            fapswitch 2.2
_symmetry_space_group_name_H-M    P1
_symmetry_Int_Tables_number       1
_space_group_crystal_system       triclinic
_cell_length_a                    6.987727
_cell_length_b                    11.642577
_cell_length_c                    18.601916
_cell_angle_alpha                 90.000023
_cell_angle_beta                  92.01669
_cell_angle_gamma                 89.999974
_cell_volume                      1512.42431187

loop_
_atom_site_label
_atom_site_type_symbol
_atom_type_description
_atom_site_fract_x
_atom_site_fract_y
_atom_site_fract_z
_atom_type_partial_charge
O1    O     O_R   0.330540 0.606360 0.598870 -0.501766
O2    O     O_R   0.669460 0.106360 0.401130 -0.501767
O3    O     O_R   0.026770 0.620470 0.750430 -0.543394
O4    O     O_R   0.973230 0.120470 0.249570 -0.543395
O5    O     O_R   0.856460 0.393640 0.750930 -0.554852
O6    O     O_R   0.143540 0.893640 0.249070 -0.554851
C1    C     C_R   0.197476 0.638318 0.778966 0.711886
C2    C     C_R   0.802524 0.138318 0.221034 0.711885
O7    O     O_R   0.000920 0.620350 0.599420 -0.545493
O8    O     O_R   0.999080 0.120350 0.400580 -0.545494
O9    O     O_R   0.830430 0.393520 0.598850 -0.564192
O10   O     O_R   0.169570 0.893520 0.401150 -0.564191
C3    C     C_R   0.168220 0.647766 0.574828 0.811293
C4    C     C_R   0.831780 0.147766 0.425172 0.811294
O11   O     O_R   0.356570 0.606480 0.750960 -0.541225
O12   O     O_R   0.643430 0.106480 0.249040 -0.541225
O13   O     O_3   0.176990 0.425580 0.674890 -0.393609
O14   O     O_3   0.823010 0.925580 0.325110 -0.393609
V1    V     V_3+5 0.902170 0.513810 0.674910 1.412672
V2    V     V_3+5 0.097830 0.013810 0.325090 1.412672
O15   O     O_R   0.500800 0.379530 0.599380 -0.525617
O16   O     O_R   0.499200 0.879530 0.400620 -0.525619
C5    C     C_R   0.667205 0.350618 0.575803 0.646926
C6    C     C_R   0.332795 0.850619 0.424197 0.646924
O17   O     O_R   0.526650 0.379650 0.750390 -0.550921
O18   O     O_R   0.473350 0.879650 0.249610 -0.550920
C7    C     C_R   0.698406 0.350199 0.772438 0.734327
C8    C     C_R   0.301594 0.850199 0.227562 0.734325
V3    V     V_3+5 0.402160 0.486190 0.674900 1.447361
V4    V     V_3+5 0.597840 0.986190 0.325100 1.447359
O19   O     O_3   0.677210 0.574420 0.674910 -0.357959
O20   O     O_3   0.322790 0.074420 0.325090 -0.357959
C9    C     C_R   0.748943 0.069427 0.869445 -0.113545
C10   C     C_R   0.251050 0.569427 0.130554 -0.113545
H1    H     H_    0.744737 0.978709 0.856669 0.169049
H2    H     H_    0.255253 0.478710 0.143332 0.169057
C11   C     C_R   0.717979 0.265292 0.829278 -0.159782
C12   C     C_R   0.282020 0.765292 0.170721 -0.159781
C13   C     C_R   0.743976 0.331628 0.175595 -0.286251
C14   C     C_R   0.256023 0.831629 0.824404 -0.286247
C15   C     C_R   0.716974 0.413297 0.120559 0.463154
C16   C     C_R   0.283023 0.913298 0.879441 0.463150
C17   C     C_R   0.725420 0.378147 0.049454 -0.121191
C18   C     C_R   0.274575 0.878147 0.950546 -0.121191
C19   C     C_R   0.762844 0.262767 0.030673 0.051789
C20   C     C_R   0.237151 0.762768 0.969326 0.051790
C21   C     C_R   0.790490 0.180901 0.086872 -0.009106
C22   C     C_R   0.209506 0.680901 0.913128 -0.009106
C23   C     C_R   0.762532 0.225916 0.957608 0.033989
C24   C     C_R   0.237463 0.725917 0.042391 0.033989
C25   C     C_R   0.774843 0.107081 0.941417 0.007868
C26   C     C_R   0.225151 0.607081 0.058583 0.007864
C27   C     C_R   0.805923 0.026574 0.996821 0.404592
C28   C     C_R   0.194072 0.526575 0.003179 0.404592
C29   C     C_R   0.818521 0.064583 0.069041 -0.325359
C30   C     C_R   0.181475 0.564583 0.930959 -0.325358
C31   C     C_R   0.745952 0.303746 0.899688 -0.312275
C32   C     C_R   0.254044 0.803747 0.100312 -0.312276
C33   C     C_R   0.716425 0.147902 0.813415 0.405638
C34   C     C_R   0.283571 0.647903 0.186585 0.405639
C35   C     C_R   0.785024 0.217614 0.159732 -0.089997
C36   C     C_R   0.214975 0.717614 0.840268 -0.089999
H3    H     H_    0.753730 0.395441 0.907152 0.131255
H4    H     H_    0.246267 0.895441 0.092848 0.131255
H5    H     H_    0.730209 0.355288 0.231440 0.104131
H6    H     H_    0.269791 0.855289 0.768560 0.104137
C37   C     C_2   0.825547 0.235278 0.483026 -0.458566
C38   C     C_2   0.174453 0.735278 0.516974 -0.458562
H7    H     H_    0.957469 0.281463 0.495795 0.134835
H8    H     H_    0.042532 0.781464 0.504205 0.134836
C39   C     C_2   0.666267 0.259230 0.520117 0.235985
C40   C     C_2   0.333734 0.759230 0.479883 0.235985
O21   O     O_3   0.653445 0.110009 0.745990 -0.572521
C41   C     C_3   0.808233 0.092967 0.700331 0.041629
H9    H     H_    0.941508 0.137596 0.717412 0.104237
H10   H     H_    0.773505 0.132699 0.647750 0.107423
C42   C     C_3   0.838758 0.964785 0.688124 -0.733820
H11   H     H_    0.708561 0.926794 0.661703 0.229696
H12   H     H_    0.961646 0.951281 0.652983 0.175869
H13   H     H_    0.867573 0.919660 0.739873 0.213805
O22   O     O_3   0.346560 0.610009 0.254008 -0.572521
C43   C     C_3   0.191781 0.592970 0.299671 0.041614
H14   H     H_    0.058495 0.637585 0.282589 0.104237
H15   H     H_    0.226511 0.632716 0.352247 0.107420
C44   C     C_3   0.161283 0.464789 0.311891 -0.733784
H16   H     H_    0.291544 0.426800 0.338272 0.229713
H17   H     H_    0.038478 0.451288 0.347077 0.175880
H18   H     H_    0.132349 0.419661 0.260148 0.213773
O23   O     O_3   0.494309 0.203077 0.504143 -0.529717
C45   C     C_3   0.459457 0.123187 0.559491 0.125408
H19   H     H_    0.469795 0.162994 0.613824 0.131606
H20   H     H_    0.561369 0.050014 0.556311 0.117933
C46   C     C_3   0.257455 0.076579 0.551251 -0.710358
H21   H     H_    0.230105 0.046786 0.495615 0.248058
H22   H     H_    0.240190 0.003130 0.588487 0.154999
H23   H     H_    0.152656 0.144329 0.564337 0.201836
O24   O     O_3   0.505692 0.703078 0.495858 -0.529717
C47   C     C_3   0.540547 0.623189 0.440509 0.125406
H24   H     H_    0.530215 0.662998 0.386176 0.131607
H25   H     H_    0.438633 0.550017 0.443686 0.117939
C48   C     C_3   0.742546 0.576580 0.448751 -0.710373
H26   H     H_    0.769891 0.546784 0.504387 0.248060
H27   H     H_    0.759812 0.503131 0.411513 0.154998
H28   H     H_    0.847349 0.644328 0.435666 0.201837
O25   O     O_3   0.839080 0.913084 0.977254 -0.562664
C49   C     C_3   0.749400 0.834383 0.022629 0.092183
H29   H     H_    0.610688 0.866957 0.042032 0.114124
H30   H     H_    0.847410 0.815923 0.068913 0.145260
C50   C     C_3   0.711466 0.722915 0.981916 -0.675355
H31   H     H_    0.847789 0.680633 0.969382 0.224333
H32   H     H_    0.628163 0.663427 0.015251 0.209966
H33   H     H_    0.630161 0.740329 0.930762 0.219011
O26   O     O_3   0.160914 0.413085 0.022746 -0.562663
C51   C     C_3   0.250596 0.334384 0.977371 0.092182
H34   H     H_    0.389308 0.366958 0.957969 0.114123
H35   H     H_    0.152586 0.315923 0.931087 0.145260
C52   C     C_3   0.288530 0.222915 0.018085 -0.675355
H36   H     H_    0.152207 0.180634 0.030618 0.224334
H37   H     H_    0.371832 0.163428 0.984750 0.209966
H38   H     H_    0.369834 0.240330 0.069239 0.219011
H39   H     H_    0.695880 0.444061 0.010080 0.111910
H40   H     H_    0.304114 0.944061 0.989920 0.111910
O27   O     O_3   0.671083 0.527684 0.132688 -0.564767
C53   C     C_3   0.761623 0.569496 0.196185 0.084481
H41   H     H_    0.910129 0.537086 0.200959 0.112445
H42   H     H_    0.681785 0.542325 0.243829 0.169805
C54   C     C_3   0.768527 0.699790 0.194743 -0.663510
H43   H     H_    0.650364 0.735334 0.160691 0.233205
H44   H     H_    0.760059 0.733928 0.250183 0.202506
H45   H     H_    0.904740 0.728526 0.172699 0.175269
O28   O     O_3   0.328915 0.027684 0.867313 -0.564768
C55   C     C_3   0.238378 0.069496 0.803816 0.084467
H46   H     H_    0.089871 0.037087 0.799041 0.112466
H47   H     H_    0.318217 0.042325 0.756172 0.169808
C56   C     C_3   0.231475 0.199790 0.805258 -0.663514
H48   H     H_    0.349635 0.235334 0.839312 0.233205
H49   H     H_    0.239947 0.233929 0.749819 0.202508
H50   H     H_    0.095260 0.228527 0.827301 0.175270
H51   H     H_    0.849047 0.002920 0.111387 0.114053
H52   H     H_    0.150950 0.502920 0.888613 0.114053

loop_
_geom_bond_atom_site_label_1
_geom_bond_atom_site_label_2
_ccdc_geom_bond_type
C56   H50   S    
C46   H21   S    
O13   V3    S    
O21   C41   S    
C27   C29   A    
O4    C2    A    
V1    O19   S    
O22   C43   S    
C14   C36   A    
C56   H48   S    
C13   C15   A    
C44   H16   S    
O9    V1    S    
C48   H26   S    
C41   H10   S    
C21   C29   A    
C46   H23   S    
O3    C1    A    
C52   H37   S    
C30   H52   S    
C44   H18   S    
C49   H29   S    
O12   V4    S    
C47   H24   S    
C28   O26   S    
O24   C47   S    
C29   H51   S    
O17   V3    S    
C56   H49   S    
O10   C6    A    
C2    O12   A    
C18   H40   S    
O7    C3    A    
C43   H15   S    
O13   V1    S    
O5    C7    A    
C22   C36   A    
O7    V1    S    
O6    C8    A    
C18   C20   A    
C55   H46   S    
C23   C25   A    
C41   C42   S    
C24   C26   A    
C4    C37   S    
O3    V1    S    
C16   O28   S    
O14   V4    S    
C19   C23   A    
C17   H39   S    
C37   C39   D    
C2    C35   S    
C19   C21   A    
C48   H27   S    
C12   C32   A    
C10   C34   A    
C13   H5    S    
C16   C18   A    
C26   C28   A    
O11   V3    S    
C20   C22   A    
C40   O24   S    
C42   H12   S    
C32   H4    S    
C13   C35   A    
C28   C30   A    
C41   H9    S    
C44   H17   S    
C24   C32   A    
C5    C39   S    
O27   C53   S    
O8    C4    A    
C52   H38   S    
O8    V2    S    
C1    O11   A    
C42   H11   S    
O15   V3    S    
C25   C27   A    
C54   H44   S    
C1    C36   S    
C34   O22   S    
C45   H20   S    
C39   O23   S    
C8    C12   S    
C38   C40   D    
O10   V2    S    
O1    V3    S    
C17   C19   A    
C11   C33   A    
C53   C54   S    
C12   C34   A    
C38   H8    S    
O18   V4    S    
C48   H28   S    
C47   H25   S    
O15   C5    A    
O16   C6    A    
C50   H33   S    
O17   C7    A    
O28   C55   S    
C47   C48   S    
C6    C40   S    
C45   C46   S    
C53   H42   S    
O26   C51   S    
V2    O20   S    
C42   H13   S    
C22   C30   A    
C33   O21   S    
O16   V4    S    
C10   C26   A    
C15   C17   A    
C31   H3    S    
C14   C16   A    
C21   C35   A    
C23   C31   A    
C51   H35   S    
C51   H34   S    
O5    V1    S    
C9    C25   A    
C43   C44   S    
O6    V2    S    
O25   C49   S    
C20   C24   A    
O18   C8    A    
O2    V4    S    
C15   O27   S    
C50   H32   S    
C54   H45   S    
V3    O19   S    
C52   H36   S    
V4    O20   S    
C45   H19   S    
C46   H22   S    
C49   H30   S    
C7    C11   S    
C55   C56   S    
C55   H47   S    
O9    C5    A    
C9    H1    S    
C10   H2    S    
O14   V2    S    
O2    C4    A    
C51   C52   S    
O4    V2    S    
C27   O25   S    
O1    C3    A    
C9    C33   A    
C43   H14   S    
C14   H6    S    
C37   H7    S    
O23   C45   S    
C50   H31   S    
C49   C50   S    
C11   C31   A    
C54   H43   S    
C53   H41   S    
C3    C38   S    
