data_mof_unit_41010.cif
_audit_creation_date              2013-03-05T16:03:59-0500
_audit_creation_method            fapswitch 2.2
_symmetry_space_group_name_H-M    P1
_symmetry_Int_Tables_number       1
_space_group_crystal_system       triclinic
_cell_length_a                    8.218455
_cell_length_b                    14.468139
_cell_length_c                    26.982482
_cell_angle_alpha                 93.93975
_cell_angle_beta                  92.687258
_cell_angle_gamma                 88.296612
_cell_volume                      3196.13955951

loop_
_atom_site_label
_atom_site_type_symbol
_atom_site_description
_atom_site_fract_x
_atom_site_fract_y
_atom_site_fract_z
_atom_type_partial_charge
P1    P     P_3+3 0.090020 0.577590 0.608380 0.489892
O1    O     O_2   0.918080 0.549800 0.616640 -0.380794
O2    O     O_3   0.150070 0.549720 0.556460 -0.387763
O3    O     O_3   0.658250 0.379560 0.591530 -0.393040
O4    O     O_2   0.829064 0.426357 0.674498 -0.375742
O5    O     O_3   0.094277 0.697874 0.621627 -0.537732
O6    O     O_3   0.640535 0.287062 0.681068 -0.522686
H1    H     H_    0.753206 0.226165 0.618897 0.189345
C1    C     C_3   0.673435 0.123485 0.664563 -0.802425
H2    H     H_    0.784552 0.123592 0.689636 0.276160
H3    H     H_    0.566495 0.108079 0.685961 0.243671
P2    P     P_3+3 0.614340 0.285150 0.467650 0.448762
P3    P     P_3+3 0.080163 0.213258 0.573075 0.470704
O7    O     O_2   0.790750 0.271170 0.482550 -0.378442
O8    O     O_3   0.062300 0.331660 0.568480 -0.371528
O9    O     O_2   0.933586 0.168764 0.543555 -0.385004
O10   O     O_3   0.612635 0.260947 0.403118 -0.572936
O11   O     O_3   0.052435 0.191855 0.635049 -0.489717
C2    C     C_3   0.201332 0.203882 0.661985 0.388207
H4    H     H_    0.248258 0.274510 0.658605 0.073567
H5    H     H_    0.292148 0.150365 0.648992 0.080250
C3    C     C_3   0.176232 0.191266 0.716473 -0.781884
H6    H     H_    0.092092 0.246484 0.731710 0.262701
H7    H     H_    0.123689 0.122513 0.720648 0.262988
C4    C     C_3   0.163181 0.259719 0.422851 0.439530
H8    H     H_    0.289724 0.280436 0.431943 0.088906
H9    H     H_    0.085614 0.278970 0.454745 0.127707
C5    C     C_3   0.160290 0.155041 0.412395 -0.989977
H10   H     H_    0.242098 0.133334 0.381856 0.271675
H11   H     H_    0.201736 0.119527 0.446011 0.227658
H12   H     H_    0.034313 0.133619 0.401394 0.256429
Ba1   Ba    Ba6+2 0.849670 0.455410 0.524690 1.562426
C6    C     C_3   0.987929 0.745653 0.589965 0.241201
H13   H     H_    0.887790 0.702005 0.574436 0.067122
H14   H     H_    0.056096 0.768452 0.558693 0.114449
C7    C     C_3   0.914994 0.830014 0.619560 -0.035939
H15   H     H_    0.847607 0.806369 0.650917 0.148361
H16   H     H_    0.827281 0.867381 0.595153 0.092037
C8    C     C_3   0.661060 0.339179 0.380387 0.422864
H17   H     H_    0.782323 0.360550 0.395590 0.092314
C9    C     C_3   0.670175 0.315281 0.324792 -0.918189
H18   H     H_    0.765083 0.260282 0.317781 0.265668
H19   H     H_    0.701217 0.377435 0.305689 0.232056
H20   H     H_    0.550558 0.290459 0.309209 0.265825
P4    P     P_3+3 0.099670 0.422330 0.391610 0.468763
O12   O     O_2   0.271610 0.450170 0.383330 -0.354867
O13   O     O_3   0.039630 0.450200 0.443530 -0.418375
O14   O     O_3   0.531440 0.620360 0.408460 -0.351982
O15   O     O_3   0.105380 0.301698 0.380136 -0.557844
P5    P     P_3+3 0.111508 0.789915 0.430293 0.494378
O16   O     O_3   0.643350 0.612530 0.521650 -0.399551
O17   O     O_3   0.127390 0.668260 0.431510 -0.368958
O18   O     O_2   0.264005 0.831683 0.457893 -0.344454
O19   O     O_3   0.134087 0.818882 0.369336 -0.505205
Ba2   Ba    Ba6+2 0.340150 0.544510 0.475310 1.590991
P6    P     P_3+3 0.656718 0.395168 0.656268 0.477305
C10   C     C_3   0.649068 0.217000 0.642523 0.423446
H21   H     H_    0.534512 0.217037 0.619165 0.014001
O20   O     O_3   0.546340 0.387390 0.478340 -0.403800
C11   C     C_3   0.515009 0.677427 0.623031 0.418251
H22   H     H_    0.393570 0.662949 0.605416 0.133442
H23   H     H_    0.594569 0.614109 0.620067 0.075615
C12   C     C_3   0.495661 0.708276 0.677622 -0.844001
H24   H     H_    0.437515 0.778508 0.680966 0.327063
H25   H     H_    0.417451 0.660690 0.695543 0.211137
H26   H     H_    0.616947 0.710247 0.697569 0.226379
P7    P     P_3+3 0.581941 0.727554 0.536280 0.472492
O21   O     O_2   0.398940 0.728800 0.517420 -0.304024
O22   O     O_3   0.586560 0.749225 0.600772 -0.558907
H27   H     H_    0.295221 0.194868 0.737633 0.248783
C13   C     C_3   0.001941 0.784856 0.339511 0.430891
H28   H     H_    0.018732 0.708902 0.331907 0.114267
H29   H     H_    0.883766 0.800849 0.357106 -0.023802
C14   C     C_3   0.996838 0.830953 0.290477 -0.891391
H30   H     H_    0.106181 0.809624 0.269450 0.286059
H31   H     H_    0.886445 0.810457 0.267672 0.244587
H32   H     H_    0.993502 0.907519 0.297518 0.242390
P8    P     P_3+3 0.542640 0.608101 0.343676 0.476032
C15   C     C_3   0.536465 0.777805 0.322778 0.440837
H33   H     H_    0.647279 0.761141 0.301639 0.020720
O23   O     O_2   0.448082 0.521080 0.324461 -0.380992
O24   O     O_3   0.432901 0.701638 0.319337 -0.469976
H34   H     H_    0.570988 0.798073 0.362361 0.075848
H35   H     H_    0.540103 0.916917 0.298368 0.214460
C16   C     C_3   0.452179 0.860355 0.299534 -0.924559
H36   H     H_    0.349099 0.887001 0.321834 0.293468
H37   H     H_    0.407164 0.840185 0.260971 0.255586
C17   C     C_R   0.992618 0.431247 0.179056 0.530401
O25   O     O_2   0.983919 0.359533 0.200089 -0.589434
N1    N     N_R   0.962002 0.515714 0.204867 -0.163459
C18   C     C_R   0.973002 0.596926 0.180770 0.528282
C19   C     C_2   0.783137 0.570737 0.271402 -0.181676
C20   C     C_3   0.759734 0.596528 0.325963 0.050649
C21   C     C_1   0.981835 0.484485 0.343949 0.282928
C22   C     C_2   0.021609 0.475977 0.296408 -0.179165
C23   C     C_2   0.916512 0.520340 0.256930 0.138311
C24   C     C_R   0.036101 0.509313 0.103059 -0.068022
C25   C     C_R   0.031598 0.427122 0.128136 -0.059748
C26   C     C_R   0.064017 0.342427 0.101564 -0.082655
C27   C     C_R   0.006268 0.594638 0.129750 -0.049763
C28   C     C_2   0.857762 0.536361 0.360227 -0.414482
H38   H     H_    0.132881 0.438800 0.286006 0.174895
H39   H     H_    0.060273 0.277803 0.119476 0.165964
C29   C     C_2   0.345898 0.473523 0.641811 -0.467374
C30   C     C_R   0.150166 0.418076 0.974220 0.040538
C31   C     C_R   0.094399 0.586401 0.974096 0.041485
C32   C     C_R   0.139598 0.500964 0.948593 0.085695
C33   C     C_R   0.203733 0.335827 0.947652 -0.201375
C34   C     C_R   0.241977 0.334720 0.897773 -0.081471
C35   C     C_R   0.227639 0.415303 0.871704 -0.058718
C36   C     C_R   0.175129 0.498512 0.896941 -0.065465
C37   C     C_R   0.158964 0.579399 0.870594 -0.061708
C38   C     C_R   0.195179 0.576063 0.819619 0.522935
N2    N     N_R   0.249103 0.494182 0.795340 -0.165301
C39   C     C_R   0.266133 0.414402 0.820999 0.532806
C40   C     C_2   0.447382 0.471112 0.730253 -0.165416
C41   C     C_3   0.494502 0.479594 0.677004 0.150122
C42   C     C_1   0.210550 0.516474 0.655847 0.303371
C43   C     C_2   0.169084 0.518501 0.703156 -0.175462
C44   C     C_2   0.292640 0.492876 0.743373 0.122334
O26   O     O_2   0.314578 0.342349 0.799670 -0.601170
C45   C     C_R   0.108415 0.420188 0.025300 0.041668
C46   C     C_R   0.070916 0.506366 0.051337 0.085261
C47   C     C_R   0.068007 0.589773 0.026233 0.042682
C48   C     C_R   0.102008 0.338897 0.051536 -0.202160
H40   H     H_    0.540950 0.455578 0.758446 0.155874
H41   H     H_    0.283160 0.269695 0.879564 0.167463
H42   H     H_    0.221028 0.270855 0.964641 0.127159
H43   H     H_    0.122585 0.270568 0.034176 0.126435
O27   O     O_2   0.954828 0.671778 0.203896 -0.621229
C49   C     C_R   0.011042 0.676498 0.105034 -0.088826
H44   H     H_    0.703902 0.603554 0.244054 0.153963
H45   H     H_    0.990855 0.743414 0.124693 0.165346
C50   C     C_R   0.076020 0.665784 0.946200 -0.205005
C51   C     C_R   0.107333 0.662174 0.895772 -0.079468
O28   O     O_2   0.181273 0.646556 0.797102 -0.577071
C52   C     C_R   0.040537 0.674278 0.054575 -0.205225
H46   H     H_    0.091373 0.725324 0.876501 0.171180
H47   H     H_    0.047200 0.540856 0.713255 0.171583
H48   H     H_    0.044549 0.740798 0.039132 0.126923
H49   H     H_    0.840756 0.549268 0.399769 0.167869
H50   H     H_    0.350033 0.435192 0.605825 0.169460
C53   C     C_R   0.691247 0.064615 0.476196 -0.125188
C54   C     C_R   0.509280 0.199725 0.501354 0.280682
C55   C     C_R   0.371212 0.232520 0.525988 -0.506439
C56   C     C_R   0.272594 0.171805 0.547586 0.170993
C57   C     C_R   0.319097 0.079938 0.549530 -0.233641
C58   C     C_R   0.462549 0.044968 0.527885 -0.071830
C59   C     C_R   0.555294 0.103603 0.500977 -0.037484
H51   H     H_    0.335198 0.305052 0.525938 0.170456
C60   C     C_R   0.644462 0.911718 0.506580 -0.147899
C61   C     C_R   0.737311 0.970365 0.479089 0.075453
C62   C     C_R   0.688577 0.815212 0.504983 0.211340
C63   C     C_R   0.824098 0.781649 0.479577 -0.499640
C64   C     C_R   0.924093 0.840639 0.457515 0.236180
C65   C     C_R   0.879135 0.934649 0.455945 -0.255028
C66   C     C_R   0.512633 0.952448 0.533734 0.335956
H52   H     H_    0.954759 0.979637 0.436925 0.142045
H53   H     H_    0.856998 0.708563 0.478967 0.162743
H54   H     H_    0.762815 0.106680 0.454346 0.167364
N3    N     N_R   0.040070 0.893641 0.639417 0.290461
O29   O     O_R   0.032508 0.979509 0.627882 -0.381047
O30   O     O_R   0.144127 0.869094 0.674217 -0.318245
H55   H     H_    0.571795 0.397396 0.386216 0.147294
H56   H     H_    0.689074 0.068789 0.634142 0.253158
H57   H     H_    0.034092 0.732103 0.962011 0.127881
H58   H     H_    0.239949 0.036766 0.567978 0.233856
N4    N     N_R   0.444227 0.907542 0.573268 0.250791
O31   O     O_R   0.298137 0.875462 0.566970 -0.369182
O32   O     O_R   0.500526 0.927715 0.618458 -0.396942

loop_
_geom_bond_atom_site_label_1
_geom_bond_atom_site_label_2
_geom_bond_distance
_ccdc_geom_bond_type
O14   Ba2   2.751350 S    
C26   H39   1.083489 S    
C12   H25   1.105520 S    
C9    H18   1.110693 S    
C39   O26   1.221003 D    
Ba2   O20   2.798098 S    
C51   H46   1.083576 S    
P6    C41   1.860541 S    
O4    P6    1.547247 D    
C22   C23   1.505792 S    
N2    C39   1.386496 Am   
N1    C18   1.388640 Am   
C27   C49   1.400989 A    
C46   C47   1.422924 A    
C8    C9    1.520887 S    
C18   O27   1.220974 D    
P4    O12   1.511543 D    
C33   C34   1.395273 A    
C4    C5    1.522058 S    
C30   C32   1.423379 A    
P5    O19   1.744521 S    
C14   H31   1.108266 S    
P3    O11   1.747902 S    
C11   C12   1.523691 S    
P3    C56   1.822832 S    
O1    Ba1   2.790323 S    
C5    H10   1.110637 S    
C19   H44   1.085692 S    
O11   C2    1.402813 S    
C29   H50   1.086052 S    
C55   C56   1.387488 A    
C31   C32   1.421000 A    
P8    C20   1.868404 S    
C1    H56   1.109556 S    
C19   C23   1.356152 D    
C6    C7    1.534326 S    
C40   C41   1.519411 S    
C11   H23   1.110126 S    
P1    O1    1.511210 D    
O10   C8    1.400280 S    
O14   P8    1.751301 S    
C42   C43   1.334759 D    
C57   C58   1.405527 A    
C35   C36   1.408299 A    
P2    O20   1.578278 S    
C28   H49   1.085267 S    
C34   H41   1.083599 S    
O19   C13   1.401733 S    
C36   C37   1.410251 A    
C21   C28   1.321813 D    
Ba1   O13   2.743996 S    
C38   O28   1.222337 D    
O12   Ba2   2.790882 S    
C53   C59   1.412242 A    
P5    O17   1.763522 S    
C60   C61   1.424958 A    
C50   H57   1.076698 S    
C18   C27   1.414035 A    
C1    H2    1.110685 S    
Ba1   Ba2   4.553517 S    
O16   Ba2   2.902707 S    
C55   H51   1.081918 S    
C22   H38   1.085569 S    
P1    C42   1.840666 S    
C4    O15   1.396642 S    
N4    O32   1.300874 A    
C12   H26   1.110564 S    
C12   H24   1.109762 S    
C40   H40   1.085779 S    
O3    P6    1.746471 S    
C9    H19   1.108635 S    
C21   C22   1.335197 D    
O2    Ba2   2.744368 S    
O6    P6    1.753959 S    
P4    C21   1.841387 S    
C66   N4    1.431524 S    
C37   C38   1.418157 A    
N3    O30   1.300626 A    
C24   C25   1.410258 A    
C29   C42   1.316425 D    
P4    O13   1.531029 S    
C52   H48   1.076684 S    
C64   C65   1.401742 A    
P5    O18   1.544737 D    
C14   H30   1.109926 S    
C56   C57   1.375846 A    
C16   H37   1.110532 S    
P7    O21   1.564971 D    
C61   C65   1.415520 A    
C47   C52   1.414899 A    
C53   H54   1.080307 S    
C2    C3    1.518217 S    
H35   C16   1.110703 S    
C26   C48   1.396900 A    
C20   C28   1.503550 S    
C8    H17   1.104377 S    
C13   H29   1.112201 S    
Ba2   O21   2.870995 S    
C4    H8    1.102771 S    
C16   H36   1.106741 S    
C14   H32   1.110752 S    
P1    Ba1   3.371463 S    
C40   C44   1.358271 D    
C11   H22   1.104604 S    
P1    O2    1.531059 S    
P2    O10   1.751819 S    
Ba1   O16   2.798734 S    
C54   C59   1.429793 A    
C49   C52   1.392101 A    
C48   H43   1.076667 S    
H1    C10   1.107240 S    
C15   O24   1.407729 S    
P8    O24   1.752198 S    
P4    O15   1.751130 S    
P5    C64   1.848063 S    
C6    H13   1.101763 S    
O16   P7    1.748868 S    
C30   C33   1.415985 A    
C33   H42   1.076637 S    
C1    H3    1.110129 S    
C63   C64   1.384035 A    
O3    Ba1   2.751815 S    
C57   H58   1.076232 S    
C53   C61   1.410683 A    
C17   N1    1.386731 Am   
P3    O8    1.727436 S    
C7    N3    1.458767 S    
C9    H20   1.110715 S    
C3    H7    1.110910 S    
C37   C51   1.400304 A    
C7    H16   1.107652 S    
C60   C66   1.426556 A    
C15   C16   1.520756 S    
C24   C27   1.406810 A    
O13   Ba2   2.922000 S    
C38   N2    1.385037 Am   
N4    O31   1.299608 A    
C2    H5    1.110117 S    
C32   C36   1.435155 A    
C5    H12   1.110718 S    
O7    Ba1   2.870791 S    
C54   C55   1.396385 A    
C49   H45   1.083681 S    
O8    Ba1   2.750734 S    
C13   C14   1.520331 S    
C43   C44   1.508549 S    
O17   Ba2   2.751493 S    
N1    C23   1.467160 S    
C50   C51   1.393788 A    
C4    H9    1.110170 S    
C29   C41   1.512353 S    
O5    C6    1.395284 S    
P7    C62   1.836362 S    
C43   H47   1.084655 S    
C2    H4    1.113912 S    
C65   H52   1.083127 S    
C62   C63   1.392811 A    
C63   H53   1.082850 S    
C24   C46   1.435243 A    
N3    O29   1.300334 A    
C34   C35   1.401679 A    
C15   H34   1.113868 S    
P8    O23   1.545509 D    
C10   H21   1.108133 S    
C11   O22   1.393112 S    
C45   C48   1.417306 A    
C35   C39   1.417739 A    
C5    H11   1.107899 S    
C19   C20   1.513405 S    
C6    H14   1.108257 S    
C3    H27   1.109763 S    
C30   C45   1.433955 A    
C1    C10   1.519089 S    
C58   C66   1.405825 A    
C60   C62   1.430380 A    
O2    Ba1   2.921107 S    
N2    C44   1.462033 S    
C15   H33   1.108895 S    
C17   C25   1.422259 A    
P2    C54   1.841631 S    
P2    O7    1.497865 D    
C31   C50   1.416450 A    
C13   H28   1.109695 S    
C17   O25   1.221819 D    
P4    Ba2   3.372237 S    
C7    H15   1.111110 S    
C25   C26   1.401562 A    
P3    O9    1.544556 D    
C31   C47   1.430750 A    
P1    O5    1.753432 S    
C45   C46   1.421343 A    
C3    H6    1.110917 S    
Ba1   O20   2.903711 S    
P7    O22   1.745695 S    
C8    H55   1.108276 S    
C58   C59   1.415204 A    
O6    C10   1.404245 S    
P2    Ba1   3.414753 S    
