data_mof_unit_44790.cif
_audit_creation_date              2012-12-11T14:13:12-0500
_audit_creation_method            fapswitch 2.2
_symmetry_space_group_name_H-M    P1
_symmetry_Int_Tables_number       1
_space_group_crystal_system       triclinic
_cell_length_a                    11.566157
_cell_length_b                    18.630451
_cell_length_c                    9.978858
_cell_angle_alpha                 89.446445
_cell_angle_beta                  110.179305
_cell_angle_gamma                 89.459152
_cell_volume                      2018.0017627

loop_
_atom_site_label
_atom_site_type_symbol
_atom_type_description
_atom_site_fract_x
_atom_site_fract_y
_atom_site_fract_z
_atom_type_partial_charge
C1    C     C_R   0.071220 0.647490 0.140661 0.545448
C2    C     C_R   0.925264 0.354334 0.858833 0.551714
C3    C     C_R   0.931722 0.147939 0.861502 0.518207
C4    C     C_R   0.068073 0.851906 0.138534 0.532224
C5    C     C_R   0.394319 0.460879 0.496439 0.013453
C6    C     C_R   0.603813 0.537901 0.498398 0.004069
C7    C     C_R   0.575870 0.970199 0.429039 0.028690
C8    C     C_R   0.425835 0.029328 0.572690 0.031248
C9    C     C_2   0.375646 0.935651 0.955960 0.088168
C10   C     C_2   0.616664 0.067808 0.055643 0.095786
C11   C     C_2   0.600744 0.429452 0.067720 0.090969
C12   C     C_2   0.365340 0.558802 0.005719 0.087938
C13   C     C_2   0.486415 0.964801 0.000617 -0.120819
C14   C     C_2   0.506108 0.041018 0.030364 -0.106136
C15   C     C_2   0.492512 0.449552 0.077796 -0.144760
C16   C     C_2   0.466741 0.525820 0.094494 -0.110044
C17   C     C_2   0.003317 0.920961 0.112579 -0.124641
C18   C     C_2   0.995741 0.078583 0.887741 -0.135584
C19   C     C_2   0.976400 0.426229 0.880593 -0.111751
C20   C     C_2   0.009421 0.578982 0.118805 -0.118706
C21   C     C_2   0.992940 0.960201 0.995168 -0.040172
C22   C     C_2   0.005111 0.039340 0.004967 -0.049552
C23   C     C_2   0.986034 0.463490 0.999622 -0.031278
C24   C     C_2   0.986617 0.542718 0.996412 -0.043033
C25   C     C_R   0.471268 0.647046 0.444388 0.536125
C26   C     C_R   0.528310 0.352528 0.554734 0.543498
C27   C     C_R   0.563258 0.137345 0.626197 0.538246
C28   C     C_R   0.437059 0.862670 0.374206 0.544488
C29   C     C_R   0.352107 0.637921 0.011418 0.578495
C30   C     C_R   0.623587 0.355636 0.035225 0.582394
C31   C     C_R   0.627170 0.143734 0.033863 0.543173
C32   C     C_R   0.369611 0.858444 0.971739 0.576613
C33   C     C_R   0.498470 0.424196 0.485704 -0.041723
C34   C     C_R   0.500062 0.574646 0.510562 -0.039585
C35   C     C_R   0.460394 0.939115 0.415258 -0.031510
C36   C     C_R   0.540946 0.060647 0.586091 -0.039001
C37   C     C_R   0.284260 0.424557 0.484065 -0.063640
C38   C     C_R   0.713651 0.574080 0.509285 -0.064800
C39   C     C_R   0.652134 0.946721 0.352321 -0.049363
C40   C     C_R   0.349930 0.052616 0.649841 -0.067220
C41   C     C_R   0.189648 0.458822 0.516382 -0.117822
C42   C     C_R   0.808299 0.539544 0.477446 -0.129621
C43   C     C_R   0.774973 0.966892 0.392927 -0.098492
C44   C     C_R   0.225917 0.034177 0.605956 -0.113929
C45   C     C_R   0.202060 0.529761 0.559537 -0.138692
C46   C     C_R   0.795948 0.468447 0.435576 -0.132815
C47   C     C_R   0.822944 0.012086 0.507672 -0.084933
C48   C     C_R   0.177770 0.989421 0.490541 -0.080746
C49   C     C_R   0.308253 0.566935 0.568396 -0.066868
C50   C     C_R   0.690045 0.431412 0.427950 -0.063624
C51   C     C_R   0.745656 0.039407 0.575585 -0.067385
C52   C     C_R   0.255324 0.961186 0.423965 -0.062879
C53   C     C_R   0.401666 0.534742 0.526416 0.009144
C54   C     C_R   0.596607 0.463975 0.469321 0.006550
C55   C     C_R   0.620180 0.024741 0.528512 -0.002260
C56   C     C_R   0.381105 0.975215 0.472317 0.001873
Cr1   Cr    Cr6+3 0.187610 0.750000 0.979860 1.067112
Cr2   Cr    Cr6+3 0.812390 0.250000 0.020140 1.071813
Cr3   Cr    Cr6+3 0.245810 0.750000 0.341640 1.028244
Cr4   Cr    Cr6+3 0.754190 0.250000 0.658360 1.029358
Cr5   Cr    Cr6+3 0.485760 0.750000 0.219910 1.007318
Cr6   Cr    Cr6+3 0.514240 0.250000 0.780090 1.011382
H1    H     H_    0.107763 0.429799 0.511462 0.137375
H2    H     H_    0.890411 0.568410 0.482503 0.134719
H3    H     H_    0.833734 0.945433 0.338461 0.115242
H4    H     H_    0.166084 0.056517 0.658071 0.098766
H5    H     H_    0.130030 0.555781 0.588252 0.125305
H6    H     H_    0.867527 0.442264 0.406410 0.146611
H7    H     H_    0.919738 0.024967 0.545228 0.113201
H8    H     H_    0.080606 0.977489 0.451660 0.113280
H9    H     H_    0.271258 0.369323 0.449794 0.146891
H10   H     H_    0.726955 0.629358 0.543029 0.163014
H11   H     H_    0.619084 0.911788 0.262181 0.153383
H12   H     H_    0.384548 0.086242 0.742295 0.144757
H13   H     H_    0.317331 0.620640 0.610723 0.153222
H14   H     H_    0.680938 0.377505 0.386568 0.140743
H15   H     H_    0.782795 0.066772 0.672960 0.134409
H16   H     H_    0.218097 0.933616 0.326630 0.141407
H17   H     H_    0.430854 0.077717 0.023226 0.117850
H18   H     H_    0.566032 0.929564 0.018682 0.155440
H19   H     H_    0.538817 0.556942 0.169550 0.147308
H20   H     H_    0.419963 0.410510 0.062625 0.143173
H21   H     H_    0.002981 0.052695 0.794100 0.088024
H22   H     H_    0.996811 0.946750 0.206621 0.084518
H23   H     H_    0.008923 0.552208 0.215758 0.111707
H24   H     H_    0.981569 0.453337 0.785999 0.111662
O1    O     O_R   0.267710 0.668200 0.902110 -0.511585
O2    O     O_R   0.732290 0.331800 0.097890 -0.480587
O3    O     O_R   0.732290 0.168200 0.097890 -0.502921
O4    O     O_R   0.267710 0.831800 0.902110 -0.490893
O5    O     O_R   0.099480 0.674460 0.038850 -0.490941
O6    O     O_R   0.900520 0.325540 0.961150 -0.472534
O7    O     O_R   0.900520 0.174460 0.961150 -0.481948
O8    O     O_R   0.099480 0.825540 0.038850 -0.472782
O9    O     O_R   0.116720 0.669210 0.267660 -0.515450
O10   O     O_R   0.883280 0.330790 0.732340 -0.513302
O11   O     O_R   0.883280 0.169210 0.732340 -0.538255
O12   O     O_R   0.116720 0.830790 0.267660 -0.539651
O13   O     O_R   0.366710 0.675440 0.427590 -0.498103
O14   O     O_R   0.633290 0.324560 0.572410 -0.498929
O15   O     O_R   0.633290 0.175440 0.572410 -0.487171
O16   O     O_R   0.366710 0.824560 0.427590 -0.483301
O17   O     O_R   0.534870 0.669390 0.371760 -0.526859
O18   O     O_R   0.465130 0.330610 0.628240 -0.506865
O19   O     O_R   0.465130 0.169390 0.628240 -0.513447
O20   O     O_R   0.534870 0.830610 0.371760 -0.515761
O21   O     O_R   0.453080 0.674480 0.075160 -0.513023
O22   O     O_R   0.546920 0.325520 0.924840 -0.506293
O23   O     O_R   0.546920 0.174480 0.924840 -0.546654
O24   O     O_R   0.453080 0.825520 0.075160 -0.539622
O25   O     O_3   0.306390 0.750000 0.180470 -0.297161
O26   O     O_3   0.693610 0.250000 0.819530 -0.276860
N1    N     N_3   0.721416 0.021831 0.071672 -0.659990
H25   H     H_    0.794679 0.038693 0.160064 0.255006
H26   H     H_    0.746613 0.029048 0.981422 0.227449
N2    N     N_3   0.263028 0.977014 0.927391 -0.626088
H27   H     H_    0.271104 0.029059 0.893742 0.203982
H28   H     H_    0.196189 0.954988 0.838734 0.253146
N3    N     N_3   0.269014 0.516382 0.909780 -0.646205
H29   H     H_    0.303994 0.492533 0.837189 0.244485
H30   H     H_    0.194559 0.548682 0.850621 0.254092
N4    N     N_3   0.693447 0.480996 0.069868 -0.616801
H31   H     H_    0.655903 0.517942 0.986109 0.234658
H32   H     H_    0.720473 0.508739 0.165703 0.231328
C57   C     C_1   0.028526 0.074346 0.141626 0.222040
N5    N     N_1   0.046883 0.102619 0.249641 -0.297792
C58   C     C_1   0.966457 0.925171 0.858087 0.224521
N6    N     N_1   0.945527 0.896888 0.749666 -0.298303
C59   C     C_1   0.966379 0.580884 0.862212 0.222198
N7    N     N_1   0.952300 0.612430 0.757307 -0.335214
C60   C     C_1   0.996982 0.426785 0.133246 0.258865
N8    N     N_1   0.004727 0.396983 0.238259 -0.322843

loop_
_geom_bond_atom_site_label_1
_geom_bond_atom_site_label_2
_ccdc_geom_bond_type
C44   C48   A    
C5    C37   A    
C12   C29   S    
Cr3   O13   S    
C44   H4    S    
C7    C55   A    
C19   H24   S    
C6    C34   A    
C8    C56   A    
Cr6   O19   S    
C50   C54   A    
C32   O24   A    
Cr2   O26   S    
C5    C53   A    
Cr5   O17   S    
Cr2   O7    S    
C38   C42   A    
C4    O12   A    
C42   C46   A    
Cr6   O22   S    
C27   O19   A    
C15   C16   S    
N2    H27   S    
C3    C18   S    
C8    C36   A    
C9    C13   D    
C47   H7    S    
C9    C32   S    
C26   O18   A    
C11   C15   D    
C24   C59   S    
C25   O13   A    
C32   O4    A    
C20   C24   D    
C11   C30   S    
C28   O20   A    
C31   O3    A    
C5    C33   A    
C45   H5    S    
Cr3   O25   S    
C23   C24   S    
C6    C38   A    
C21   C58   S    
C43   C47   A    
C40   C44   A    
C43   H3    S    
C25   C34   S    
C35   C56   A    
C13   H18   S    
C1    O5    A    
C21   C22   S    
C9    N2    S    
Cr3   O9    S    
C6    C54   A    
C52   H16   S    
Cr5   O24   S    
C10   C31   S    
C15   H20   S    
Cr6   O18   S    
N3    H30   S    
C38   H10   S    
Cr1   O4    S    
C12   C16   D    
C28   C35   S    
Cr4   O11   S    
C10   C14   D    
C25   O17   A    
C22   C57   S    
C39   C43   A    
C27   O15   A    
C17   C21   D    
Cr1   O1    S    
C19   C23   D    
C51   H15   S    
C46   H6    S    
Cr4   O26   S    
C50   H14   S    
C12   N3    S    
C3    O11   A    
C26   C33   S    
C45   C49   A    
C1    O9    A    
C20   H23   S    
C49   H13   S    
C18   H21   S    
C31   O23   A    
C23   C60   S    
C3    O7    A    
C14   H17   S    
C2    O6    A    
Cr5   O20   S    
C10   N1    S    
N2    H28   S    
C4    O8    A    
C4    C17   S    
Cr4   O10   S    
Cr1   O8    S    
C37   H9    S    
C57   N5    T    
C11   N4    S    
C41   H1    S    
C30   O2    A    
Cr4   O15   S    
Cr5   O25   S    
C42   H2    S    
N4    H32   S    
N1    H25   S    
C33   C54   A    
C1    C20   S    
C7    C39   A    
Cr1   O5    S    
C30   O22   A    
C2    C19   S    
C18   C22   D    
Cr3   O16   S    
C7    C35   A    
C48   H8    S    
Cr4   O14   S    
Cr2   O2    S    
C47   C51   A    
N3    H29   S    
C27   C36   S    
C46   C50   A    
C17   H22   S    
C2    O10   A    
C59   N7    T    
C36   C55   A    
Cr1   O25   S    
Cr6   O23   S    
C52   C56   A    
C49   C53   A    
C16   H19   S    
C40   H12   S    
C51   C55   A    
C39   H11   S    
C37   C41   A    
C60   N8    T    
Cr5   O21   S    
Cr2   O3    S    
C29   O1    A    
C28   O16   A    
C48   C52   A    
Cr6   O26   S    
C34   C53   A    
Cr3   O12   S    
C41   C45   A    
C29   O21   A    
C8    C40   A    
N4    H31   S    
C13   C14   S    
Cr2   O6    S    
C58   N6    T    
C26   O14   A    
N1    H26   S    
