data_mof_unit_59213.cif
_audit_creation_date              2012-12-10T16:50:16-0500
_audit_creation_method            fapswitch 2.2
_symmetry_space_group_name_H-M    P1
_symmetry_Int_Tables_number       1
_space_group_crystal_system       triclinic
_cell_length_a                    23.505883
_cell_length_b                    8.681135
_cell_length_c                    7.426858
_cell_angle_alpha                 103.052349
_cell_angle_beta                  93.819854
_cell_angle_gamma                 92.351433
_cell_volume                      1470.62032127

loop_
_atom_site_label
_atom_site_type_symbol
_atom_type_description
_atom_site_fract_x
_atom_site_fract_y
_atom_site_fract_z
_atom_type_partial_charge
C1    C     C_R   0.498275 0.199607 0.453149 0.877498
C2    C     C_R   0.501725 0.800393 0.546851 0.877499
C3    C     C_R   0.235471 0.514203 0.350755 -0.101208
C4    C     C_R   0.764528 0.485797 0.649245 -0.101209
C5    C     C_R   0.294638 0.514397 0.350803 -0.283801
C6    C     C_R   0.705362 0.485602 0.649197 -0.283803
C7    C     C_R   0.328224 0.498143 0.508821 -0.142450
C8    C     C_R   0.671776 0.501857 0.491179 -0.142448
C9    C     C_R   0.301089 0.479150 0.667726 0.466978
C10   C     C_R   0.698911 0.520851 0.332274 0.466977
C11   C     C_R   0.241498 0.483028 0.667175 -0.179202
C12   C     C_R   0.758502 0.516972 0.332825 -0.179202
C13   C     C_R   0.208902 0.498956 0.508831 0.277753
C14   C     C_R   0.791098 0.501044 0.491169 0.277755
C15   C     C_2   0.497485 0.031696 0.426736 -0.363174
C16   C     C_2   0.502515 0.968303 0.573264 -0.363175
C17   C     C_R   0.390891 0.498970 0.503069 0.821538
C18   C     C_R   0.609109 0.501030 0.496931 0.821539
C19   C     C_R   0.883395 0.641541 0.538672 0.602669
C20   C     C_R   0.116605 0.358459 0.461327 0.602669
C21   C     C_R   0.876959 0.358754 0.446974 0.594633
C22   C     C_R   0.123041 0.641246 0.553026 0.594633
C23   C     C_R   0.936745 0.354898 0.448789 -0.130388
C24   C     C_R   0.063255 0.645101 0.551211 -0.130389
C25   C     C_R   0.969929 0.499729 0.497964 -0.099262
C26   C     C_R   0.030071 0.500270 0.502035 -0.099262
C27   C     C_R   0.943102 0.644172 0.543182 -0.081843
C28   C     C_R   0.056898 0.355827 0.456817 -0.081843
C29   C     C_R   0.964250 0.211432 0.403373 0.628716
C30   C     C_R   0.035750 0.788567 0.596627 0.628717
C31   C     C_R   0.023635 0.212521 0.407600 -0.171386
C32   C     C_R   0.976365 0.787478 0.592400 -0.171386
Cu1   Cu    Cu3+1 0.506340 0.517380 0.684380 0.979989
Cu2   Cu    Cu3+1 0.493660 0.482620 0.315620 0.979989
H1    H     H_    0.043444 0.100313 0.371576 0.234498
H2    H     H_    0.956556 0.899686 0.628424 0.234498
H3    H     H_    0.210190 0.526737 0.228077 0.156275
H4    H     H_    0.789810 0.473262 0.771922 0.156275
H5    H     H_    0.314100 0.528618 0.227037 0.216690
H6    H     H_    0.685900 0.471381 0.772963 0.216689
H7    H     H_    0.220467 0.473248 0.789872 0.148603
H8    H     H_    0.779533 0.526751 0.210128 0.148602
H9    H     H_    0.492779 0.959918 0.285585 0.180773
H10   H     H_    0.507221 0.040082 0.714415 0.180773
H11   H     H_    0.456136 0.376514 0.948098 0.232538
H12   H     H_    0.543864 0.623486 0.051902 0.232538
N1    N     N_R   0.851906 0.500436 0.491619 -0.477457
N2    N     N_R   0.148094 0.499563 0.508381 -0.477457
N3    N     N_2   0.484110 0.456420 0.038520 -0.200545
N4    N     N_2   0.515890 0.543580 0.961480 -0.200545
O1    O     O_R   0.504120 0.286130 0.619770 -0.585965
O2    O     O_R   0.495880 0.713870 0.380230 -0.585965
O3    O     O_R   0.493410 0.256770 0.308360 -0.590137
O4    O     O_R   0.506590 0.743230 0.691640 -0.590137
O5    O     O_R   0.423230 0.514630 0.655730 -0.537548
O6    O     O_R   0.576770 0.485370 0.344270 -0.537547
O7    O     O_R   0.412530 0.485280 0.344320 -0.589167
O8    O     O_R   0.587470 0.514720 0.655680 -0.589167
O9    O     O_2   0.856893 0.778638 0.581432 -0.483996
O10   O     O_2   0.143107 0.221361 0.418568 -0.483997
O11   O     O_2   0.843931 0.222762 0.401332 -0.434576
O12   O     O_2   0.156069 0.777238 0.598667 -0.434576
F1    F     F_    0.934190 0.069413 0.354039 -0.614078
F2    F     F_    0.065810 0.930587 0.645961 -0.614078
O13   O     O_3   0.332709 0.465542 0.826679 -0.575859
C33   C     C_3   0.327267 0.306955 0.843071 -0.311467
H13   H     H_    0.354129 0.295227 0.967269 0.187530
H14   H     H_    0.342691 0.224701 0.720592 0.161871
H15   H     H_    0.282538 0.271844 0.863571 0.184959
O14   O     O_3   0.667290 0.534458 0.173321 -0.575860
C34   C     C_3   0.672734 0.693043 0.156924 -0.311468
H16   H     H_    0.657315 0.775303 0.279405 0.161874
H17   H     H_    0.645871 0.704773 0.032731 0.187530
H18   H     H_    0.717463 0.728146 0.136413 0.184958

loop_
_geom_bond_atom_site_label_1
_geom_bond_atom_site_label_2
_ccdc_geom_bond_type
Cu1   O5    S    
C22   N2    A    
C29   F1    S    
Cu2   O6    S    
Cu1   O8    S    
C30   F2    S    
C33   H14   S    
C32   H2    S    
C24   C26   A    
C19   N1    A    
C33   H15   S    
C15   C16   D    
C1    O3    A    
C12   H8    S    
C18   O8    A    
C7    C17   S    
Cu2   O7    S    
O14   C34   S    
C1    C15   S    
C20   O10   S    
C19   C27   A    
C17   O5    A    
C21   O11   S    
C3    C13   A    
C18   O6    A    
C33   H13   S    
C10   C12   A    
C24   C30   A    
C6    H6    S    
C4    C6    A    
C2    O4    A    
C5    C7    A    
C6    C8    A    
C20   C28   A    
C19   O9    S    
C25   C26   A    
C8    C18   S    
C13   N2    S    
C22   O12   S    
C9    C11   A    
H11   N3    S    
Cu1   Cu2   S    
C1    O1    A    
C20   N2    A    
C2    O2    A    
C10   O14   S    
C4    H4    S    
O13   C33   S    
C21   C23   A    
C31   H1    S    
Cu1   O1    S    
C23   C29   A    
C2    C16   S    
C34   H17   S    
Cu1   O4    S    
C7    C9    A    
C16   H10   S    
Cu2   N3    S    
C27   C32   A    
Cu2   O2    S    
C28   C31   A    
C12   C14   A    
C3    C5    A    
C34   H18   S    
C14   N1    S    
C25   C27   A    
H12   N4    S    
C26   C28   A    
C5    H5    S    
Cu1   N4    S    
C15   H9    S    
C34   H16   S    
C29   C31   A    
C30   C32   A    
C11   C13   A    
C11   H7    S    
C22   C24   A    
C23   C25   A    
C4    C14   A    
C9    O13   S    
C3    H3    S    
Cu2   O3    S    
C8    C10   A    
N3    N4    D    
C17   O7    A    
C21   N1    A    
