data_mof_unit_54030.cif
_audit_creation_date              2012-10-26T20:17:39-0400
_audit_creation_method            fapswitch 2.2
_symmetry_space_group_name_H-M    P1
_symmetry_Int_Tables_number       1
_space_group_crystal_system       triclinic
_cell_length_a                    27.830314
_cell_length_b                    8.672046
_cell_length_c                    7.445576
_cell_angle_alpha                 103.242654
_cell_angle_beta                  93.935164
_cell_angle_gamma                 92.285556
_cell_volume                      1742.18813639

loop_
_atom_site_label
_atom_site_type_symbol
_atom_type_description
_atom_site_fract_x
_atom_site_fract_y
_atom_site_fract_z
_atom_type_partial_charge
C1    C     C_R   0.498545 0.199604 0.453020 0.553982
C2    C     C_R   0.869309 0.360943 0.428967 0.022207
C3    C     C_R   0.354833 0.500341 0.509718 -0.005211
C4    C     C_R   0.645165 0.499529 0.490272 -0.005211
C5    C     C_R   0.971192 0.355754 0.436233 0.018240
C6    C     C_R   0.028802 0.643696 0.563714 0.018241
C7    C     C_R   0.977519 0.645849 0.558096 0.002465
C8    C     C_R   0.022475 0.353602 0.441843 0.002464
C9    C     C_R   0.948983 0.502188 0.494895 0.030696
C10   C     C_R   0.051011 0.497263 0.505048 0.030696
C11   C     C_R   0.940987 0.215771 0.372617 -0.152474
C12   C     C_R   0.501455 0.800396 0.546980 0.553995
C13   C     C_R   0.059007 0.783678 0.627344 -0.152473
C14   C     C_R   0.891335 0.218921 0.368911 -0.128340
C15   C     C_R   0.108658 0.780530 0.631055 -0.128339
C16   C     C_R   0.407564 0.499984 0.502951 0.551728
C17   C     C_R   0.592436 0.499999 0.497047 0.551722
C18   C     C_R   0.046219 0.211542 0.385189 -0.126489
C19   C     C_R   0.953776 0.787911 0.614741 -0.126491
C20   C     C_2   0.497846 0.031485 0.426728 -0.148370
C21   C     C_2   0.502154 0.968515 0.573272 -0.148371
C22   C     C_R   0.176559 0.356633 0.462556 0.391175
C23   C     C_R   0.102305 0.495050 0.509687 -0.037274
C24   C     C_R   0.823437 0.642828 0.537377 0.391155
C25   C     C_R   0.180887 0.637908 0.570677 0.385012
C26   C     C_R   0.819106 0.361549 0.429299 0.385053
C27   C     C_R   0.283872 0.525574 0.686892 0.050757
C28   C     C_R   0.716122 0.473926 0.313074 0.050706
C29   C     C_R   0.334104 0.525468 0.680160 -0.119766
C30   C     C_R   0.665893 0.474251 0.319820 -0.119790
C31   C     C_R   0.324804 0.474518 0.345214 -0.146277
C32   C     C_R   0.675194 0.525313 0.654773 -0.146268
C33   C     C_R   0.274973 0.474724 0.350855 -0.065607
C34   C     C_R   0.897689 0.504403 0.490260 -0.037278
C35   C     C_R   0.725022 0.524927 0.649123 -0.065603
C36   C     C_R   0.254248 0.500798 0.520255 0.265732
C37   C     C_R   0.745746 0.498690 0.479712 0.265715
C38   C     C_3   0.116965 0.048150 0.315112 -0.343973
C39   C     C_3   0.883032 0.951304 0.684838 -0.343971
C40   C     C_3   0.737686 0.451123 0.129697 -0.368217
C41   C     C_3   0.262307 0.548109 0.870244 -0.368259
C42   C     C_R   0.125342 0.350718 0.452384 0.031735
C43   C     C_R   0.874653 0.648737 0.547554 0.031733
C44   C     C_R   0.096395 0.207660 0.387415 -0.011385
C45   C     C_R   0.903600 0.791795 0.612520 -0.011381
C46   C     C_R   0.130684 0.638510 0.570994 0.022199
Cu1   Cu    Cu3+1 0.505380 0.517380 0.684380 0.963272
Cu2   Cu    Cu3+1 0.494620 0.482620 0.315620 0.963272
H1    H     H_    0.339790 0.453169 0.211906 0.131698
H2    H     H_    0.129867 0.891358 0.682566 0.161370
H3    H     H_    0.953950 0.099799 0.323591 0.107141
H4    H     H_    0.046044 0.899649 0.676383 0.107141
H5    H     H_    0.026570 0.099021 0.336714 0.107187
H6    H     H_    0.973425 0.900433 0.663202 0.107186
H7    H     H_    0.493788 0.959265 0.285790 0.135557
H8    H     H_    0.506212 0.040735 0.714210 0.135553
H9    H     H_    0.088553 0.950841 0.267550 0.106209
H10   H     H_    0.137845 0.052372 0.194333 0.179165
H11   H     H_    0.140164 0.015307 0.425959 0.195218
H12   H     H_    0.660210 0.546767 0.788089 0.131716
H13   H     H_    0.911444 0.048609 0.732418 0.106208
H14   H     H_    0.859835 0.984162 0.573996 0.195226
H15   H     H_    0.862149 0.947072 0.805608 0.179152
H16   H     H_    0.709311 0.436814 0.014125 0.106591
H17   H     H_    0.761968 0.555709 0.129060 0.145272
H18   H     H_    0.758509 0.342945 0.104110 0.182039
H19   H     H_    0.290689 0.562850 0.985859 0.106638
H20   H     H_    0.241333 0.655950 0.895750 0.181953
H21   H     H_    0.238165 0.443201 0.870903 0.145270
H22   H     H_    0.462175 0.378355 0.948547 0.239427
H23   H     H_    0.537825 0.621644 0.051453 0.239433
H24   H     H_    0.252096 0.453498 0.223182 0.121181
H25   H     H_    0.747899 0.546155 0.776798 0.121204
H26   H     H_    0.643010 0.455298 0.192073 0.131796
H27   H     H_    0.356988 0.544425 0.807906 0.131789
H28   H     H_    0.870126 0.108094 0.317409 0.161365
N1    N     N_R   0.202654 0.498366 0.520220 -0.398219
N2    N     N_R   0.797340 0.501095 0.479745 -0.398215
N3    N     N_2   0.486510 0.456430 0.038510 -0.259063
N4    N     N_2   0.513490 0.543570 0.961490 -0.259061
O1    O     O_R   0.503500 0.286120 0.619780 -0.504632
O2    O     O_2   0.799380 0.776220 0.583505 -0.499160
O3    O     O_2   0.792077 0.223411 0.380867 -0.496404
O4    O     O_2   0.207915 0.776047 0.619146 -0.496356
O5    O     O_R   0.496500 0.713880 0.380220 -0.504624
O6    O     O_R   0.494410 0.256780 0.308360 -0.495093
O7    O     O_R   0.505590 0.743220 0.691640 -0.495086
O8    O     O_R   0.434810 0.514700 0.655690 -0.509183
O9    O     O_R   0.565190 0.485300 0.344310 -0.509183
O10   O     O_R   0.425720 0.485350 0.344280 -0.501688
O11   O     O_R   0.574280 0.514650 0.655720 -0.501692
O12   O     O_2   0.200618 0.223249 0.416384 -0.499162

loop_
_geom_bond_atom_site_label_1
_geom_bond_atom_site_label_2
_ccdc_geom_bond_type
C16   O10   A    
C26   O3    S    
C27   C29   A    
C17   O11   A    
C41   H19   S    
C5    C9    A    
C26   N2    A    
C23   C42   A    
C12   O5    A    
C25   N1    A    
Cu2   N3    S    
C35   C37   A    
C5    C11   A    
C36   N1    S    
C30   H26   S    
C11   C14   A    
C28   C40   S    
C1    O1    A    
C38   H9    S    
C33   C36   A    
C15   H2    S    
C3    C29   A    
C24   O2    S    
C33   H24   S    
C38   H10   S    
C25   O4    S    
C31   C33   A    
C18   H5    S    
C39   C45   S    
C2    C34   A    
C23   C46   A    
C40   H18   S    
C42   C44   A    
Cu1   N4    S    
C31   H1    S    
C20   H7    S    
H23   N4    S    
C41   H20   S    
C39   H13   S    
C32   C35   A    
C17   O9    A    
C12   C21   S    
C8    C18   A    
N3    N4    D    
C14   H28   S    
C38   C44   S    
C18   C44   A    
C5    C8    A    
C13   H4    S    
C27   C41   S    
Cu1   Cu2   S    
C2    C26   A    
C3    C31   A    
C43   C45   A    
C4    C32   A    
C4    C17   S    
C19   H6    S    
C24   N2    A    
C7    C19   A    
C40   H17   S    
C13   C15   A    
C9    C34   A    
C10   C23   A    
Cu2   O6    S    
C32   H12   S    
C41   H21   S    
C1    O6    A    
C7    C9    A    
C39   H14   S    
C35   H25   S    
C1    C20   S    
C12   O7    A    
H22   N3    S    
Cu1   O11   S    
C34   C43   A    
C22   N1    A    
C6    C10   A    
C21   H8    S    
C19   C45   A    
C6    C7    A    
C29   H27   S    
C27   C36   A    
C39   H15   S    
C37   N2    S    
C40   H16   S    
Cu2   O9    S    
Cu1   O8    S    
C28   C30   A    
C6    C13   A    
C22   C42   A    
C28   C37   A    
Cu1   O1    S    
C2    C14   A    
C11   H3    S    
C38   H11   S    
C20   C21   D    
C8    C10   A    
C16   O8    A    
C24   C43   A    
C22   O12   S    
Cu2   O5    S    
Cu2   O10   S    
C15   C46   A    
C25   C46   A    
C4    C30   A    
C3    C16   S    
Cu1   O7    S    
