data_mof_unit_46588.cif
_audit_creation_date              2012-12-10T18:19:09-0500
_audit_creation_method            fapswitch 2.2
_symmetry_space_group_name_H-M    P1
_symmetry_Int_Tables_number       1
_space_group_crystal_system       triclinic
_cell_length_a                    14.975363
_cell_length_b                    14.021774
_cell_length_c                    11.526663
_cell_angle_alpha                 90.004762
_cell_angle_beta                  88.565942
_cell_angle_gamma                 90.001796
_cell_volume                      2419.62391938

loop_
_atom_site_label
_atom_site_type_symbol
_atom_type_description
_atom_site_fract_x
_atom_site_fract_y
_atom_site_fract_z
_atom_type_partial_charge
C1    C     C_R   0.327031 0.499859 0.501569 0.952493
C2    C     C_R   0.672969 0.499861 0.498423 0.952510
C3    C     C_R   0.908735 0.481135 0.393768 0.044757
C4    C     C_R   0.091262 0.481075 0.606185 0.044745
C5    C     C_R   0.949161 0.475110 0.712176 0.317421
C6    C     C_R   0.050835 0.475214 0.287771 0.317400
C7    C     C_R   0.041492 0.471920 0.710236 -0.225051
C8    C     C_R   0.958503 0.472031 0.289709 -0.225039
C9    C     C_R   0.554025 0.798184 0.422727 -0.028409
C10   C     C_R   0.446243 0.201840 0.577571 -0.044924
C11   C     C_R   0.445974 0.798194 0.577273 -0.028419
C12   C     C_R   0.553758 0.201830 0.422431 -0.044916
C13   C     C_R   0.444752 0.898850 0.579233 0.011462
C14   C     C_R   0.555130 0.101202 0.420633 0.013565
C15   C     C_R   0.555248 0.898841 0.420768 0.011466
C16   C     C_R   0.444871 0.101211 0.579369 0.013568
C17   C     C_R   0.500000 0.949422 0.500000 0.086228
C18   C     C_R   0.500000 0.050625 0.500000 0.090100
C19   C     C_R   0.389888 0.949922 0.658134 -0.185439
C20   C     C_R   0.610021 0.050173 0.341759 -0.194616
C21   C     C_R   0.610112 0.949902 0.341867 -0.185452
C22   C     C_R   0.389980 0.050192 0.658243 -0.194627
C23   C     C_R   0.499682 0.500062 0.281770 0.945687
C24   C     C_R   0.500311 0.500068 0.718229 0.945717
C25   C     C_1   0.498748 0.500523 0.161471 -0.131421
C26   C     C_1   0.501226 0.500541 0.838529 -0.131463
C27   C     C_1   0.499103 0.501229 0.059305 -0.024873
C28   C     C_1   0.500858 0.501238 0.940695 -0.024933
C29   C     C_R   0.815365 0.481217 0.393762 -0.088621
C30   C     C_R   0.184632 0.481164 0.606195 -0.088630
C31   C     C_R   0.768426 0.498320 0.498206 -0.171544
C32   C     C_R   0.231575 0.498315 0.501771 -0.171546
C33   C     C_R   0.811324 0.506821 0.604163 0.225984
C34   C     C_R   0.188682 0.506860 0.395817 0.225969
C35   C     C_R   0.903676 0.489633 0.607507 -0.012198
C36   C     C_R   0.096326 0.489679 0.392453 -0.012197
C37   C     C_R   0.953051 0.485780 0.500350 -0.014195
C38   C     C_R   0.046949 0.485775 0.499606 -0.014191
H1    H     H_    0.073836 0.460968 0.792057 0.213812
H2    H     H_    0.926158 0.461121 0.207879 0.213814
H3    H     H_    0.596101 0.757985 0.362639 0.130410
H4    H     H_    0.404535 0.242024 0.638019 0.127585
H5    H     H_    0.403897 0.758002 0.637360 0.130417
H6    H     H_    0.595470 0.242007 0.361988 0.127568
H7    H     H_    0.346935 0.912339 0.719787 0.148314
H8    H     H_    0.652900 0.087797 0.280036 0.142465
H9    H     H_    0.653064 0.912312 0.280213 0.148306
H10   H     H_    0.347103 0.087825 0.719966 0.142444
N1    N     N_R   0.500000 0.750030 0.500000 -0.101762
N2    N     N_R   0.500000 0.249970 0.500000 -0.101529
O1    O     O_R   0.367850 0.580280 0.500030 -0.601148
O2    O     O_R   0.632150 0.419720 0.499970 -0.620718
O3    O     O_R   0.632150 0.580280 0.499970 -0.601170
O4    O     O_R   0.367850 0.419720 0.500030 -0.620741
O5    O     O_R   0.500010 0.580270 0.334450 -0.609130
O6    O     O_R   0.499990 0.419730 0.665550 -0.620231
O7    O     O_R   0.499990 0.580270 0.665550 -0.609147
O8    O     O_R   0.500010 0.419730 0.334450 -0.620261
Zn1   Zn    Zn3+2 0.500000 0.607200 0.500000 0.990889
Zn2   Zn    Zn3+2 0.500000 0.392800 0.500000 0.968192
C39   C     C_R   0.767251 0.463365 0.284796 0.088924
C40   C     C_R   0.744274 0.369697 0.254890 -0.129354
C41   C     C_R   0.710959 0.350031 0.145279 -0.150032
C42   C     C_R   0.701393 0.423557 0.064758 -0.032287
C43   C     C_R   0.722443 0.517364 0.094958 -0.080102
C44   C     C_R   0.754898 0.537476 0.204986 -0.190200
H11   H     H_    0.754679 0.311770 0.315206 0.137592
H12   H     H_    0.694151 0.277579 0.122017 0.137032
H13   H     H_    0.677175 0.407941 0.979132 0.169125
H14   H     H_    0.714389 0.574271 0.032663 0.180333
H15   H     H_    0.773414 0.609867 0.226575 0.150361
C45   C     C_R   0.232739 0.463267 0.715143 0.088982
C46   C     C_R   0.255713 0.369574 0.744959 -0.129294
C47   C     C_R   0.289023 0.349847 0.854542 -0.150192
C48   C     C_R   0.298583 0.423340 0.935131 -0.032307
C49   C     C_R   0.277528 0.517174 0.905024 -0.080040
C50   C     C_R   0.245078 0.537344 0.795021 -0.190265
H16   H     H_    0.245312 0.311675 0.684586 0.137595
H17   H     H_    0.305818 0.277377 0.877726 0.136994
H18   H     H_    0.322797 0.407679 0.020732 0.169045
H19   H     H_    0.285549 0.574049 0.967376 0.180436
H20   H     H_    0.226537 0.609742 0.773511 0.150392
Br1   Br    Br    0.742835 0.557504 0.735292 -0.493867
Br2   Br    Br    0.257190 0.557578 0.264732 -0.493805
Br3   Br    Br    0.894515 0.438301 0.858512 -0.454877
Br4   Br    Br    0.105466 0.438489 0.141387 -0.454934

loop_
_geom_bond_atom_site_label_1
_geom_bond_atom_site_label_2
_ccdc_geom_bond_type
C23   O8    A    
C22   H10   S    
O5    Zn1   S    
C10   H4    S    
C46   C47   A    
C14   C18   A    
C1    O4    A    
O3    Zn1   S    
O4    Zn2   S    
C40   C41   A    
C40   H11   S    
C35   C37   A    
C24   C26   S    
O7    Zn1   S    
O8    Zn2   S    
C43   H14   S    
C3    C29   A    
O2    Zn2   S    
C45   C50   A    
C39   C44   A    
C24   O7    A    
C46   H16   S    
C31   C33   A    
C11   H5    S    
C48   H18   S    
C5    Br3   S    
C34   Br2   S    
C4    C7    A    
C29   C39   S    
C47   C48   A    
C13   C19   A    
C14   C20   A    
C19   C22   A    
C9    N1    A    
C49   C50   A    
C3    C8    A    
C5    C7    A    
C6    C8    A    
C1    C32   S    
O6    Zn2   S    
C2    C31   S    
C32   C34   A    
C48   C49   A    
C37   C38   A    
C11   N1    A    
C33   Br1   S    
C12   N2    A    
C44   H15   S    
C17   C18   A    
C42   H13   S    
C1    O1    A    
C2    O2    A    
C12   C14   A    
C47   H17   S    
C25   C27   T    
C10   N2    A    
C15   C17   A    
C41   H12   S    
C16   C22   A    
C9    H3    S    
C4    C38   A    
C45   C46   A    
C2    O3    A    
C6    Br4   S    
C49   H19   S    
C30   C45   S    
C19   H7    S    
C23   O5    A    
C24   O6    A    
C26   C28   T    
N1    Zn1   S    
C13   C17   A    
N2    Zn2   S    
C42   C43   A    
C36   C38   A    
C9    C15   A    
C29   C31   A    
C10   C16   A    
C30   C32   A    
C11   C13   A    
C50   H20   S    
C5    C35   A    
C33   C35   A    
C6    C36   A    
C34   C36   A    
C23   C25   S    
C39   C40   A    
C20   H8    S    
C41   C42   A    
C15   C21   A    
O1    Zn1   S    
C20   C21   A    
C3    C37   A    
C16   C18   A    
C43   C44   A    
C27   C28   S    
C7    H1    S    
C12   H6    S    
C8    H2    S    
C4    C30   A    
C21   H9    S    
