data_mof_unit_28145.cif
_audit_creation_date              2012-12-10T18:49:57-0500
_audit_creation_method            fapswitch 2.2
_symmetry_space_group_name_H-M    P1
_symmetry_Int_Tables_number       1
_space_group_crystal_system       triclinic
_cell_length_a                    10.674576
_cell_length_b                    9.855431
_cell_length_c                    10.734089
_cell_angle_alpha                 90.383251
_cell_angle_beta                  90.034812
_cell_angle_gamma                 90.151695
_cell_volume                      1129.22406361

loop_
_atom_site_label
_atom_site_type_symbol
_atom_type_description
_atom_site_fract_x
_atom_site_fract_y
_atom_site_fract_z
_atom_type_partial_charge
C1    C     C_R   0.259958 0.499941 0.499560 0.904001
C2    C     C_3   0.628307 0.435305 0.918945 0.914016
C3    C     C_R   0.063478 0.389923 0.447406 -0.116222
C4    C     C_R   0.064548 0.611205 0.550911 -0.061147
C5    C     C_R   0.935110 0.389674 0.448417 -0.144304
C6    C     C_R   0.936118 0.611283 0.551428 -0.138098
C7    C     C_R   0.872265 0.500223 0.500694 -0.005470
C8    C     C_R   0.127471 0.500222 0.499350 -0.048234
C9    C     C_R   0.605575 0.072384 0.530781 -0.158563
C10   C     C_R   0.605472 0.928679 0.531127 -0.190705
C11   C     C_R   0.394480 0.927853 0.469370 0.633373
C12   C     C_R   0.394302 0.070885 0.470247 0.587094
C13   C     C_R   0.507783 0.499623 0.257477 0.983485
C14   C     C_R   0.739904 0.500103 0.501132 0.961073
C15   C     C_R   0.498120 0.500703 0.741769 1.031927
C16   C     C_3   0.479084 0.646963 0.068811 -0.352095
C17   C     C_3   0.402903 0.404563 0.069586 -0.337527
C18   C     C_3   0.495278 0.649619 0.927926 0.423353
C19   C     C_3   0.390129 0.418621 0.927137 0.400858
C20   C     C_3   0.648103 0.452033 0.064738 -0.362403
C21   C     C_3   0.514008 0.498634 0.119961 -0.377526
C22   C     C_3   0.502451 0.501860 0.877118 -0.331283
H1    H     H_    0.376929 0.659566 0.087024 0.248896
H2    H     H_    0.314709 0.444783 0.111289 0.205393
H3    H     H_    0.583020 0.703545 0.901418 0.158355
H4    H     H_    0.386812 0.317177 0.880913 0.168982
H5    H     H_    0.112306 0.305472 0.404827 0.242325
H6    H     H_    0.114430 0.696438 0.591866 0.211291
H7    H     H_    0.885190 0.304655 0.407083 0.171940
H8    H     H_    0.886964 0.696593 0.592558 0.171007
H9    H     H_    0.690134 0.126745 0.555728 0.207693
H10   H     H_    0.689917 0.875152 0.556397 0.193324
N1    N     N_R   0.499970 0.857200 0.499970 -0.161668
N2    N     N_R   0.499970 0.142800 0.499970 -0.157839
O1    O     O_R   0.316750 0.614620 0.499990 -0.560453
O2    O     O_R   0.316750 0.385380 0.499990 -0.562451
O3    O     O_R   0.499970 0.614670 0.314790 -0.597730
O4    O     O_R   0.499970 0.385330 0.314790 -0.557890
O5    O     O_R   0.683220 0.614710 0.500010 -0.637310
O6    O     O_R   0.683220 0.385290 0.500010 -0.624392
O7    O     O_R   0.500010 0.614660 0.685200 -0.576827
O8    O     O_R   0.500010 0.385340 0.685200 -0.592358
Zn1   Zn    Zn3+2 0.499980 0.653120 0.500000 1.076383
Zn2   Zn    Zn3+2 0.499980 0.346880 0.500000 1.081268
C23   C     C_2   0.534869 0.776701 0.125403 1.038053
O9    O     O_2   0.643453 0.810126 0.106867 -0.586465
O10   O     O_R   0.456669 0.863885 0.192695 -0.748147
H11   H     H_    0.502161 0.948336 0.222976 0.334049
C24   C     C_2   0.402840 0.255705 0.105472 1.002485
O11   O     O_2   0.474498 0.175204 0.056036 -0.547127
O12   O     O_R   0.312262 0.208853 0.188763 -0.736393
H12   H     H_    0.315261 0.106855 0.199577 0.386152
F1    F     F_    0.288792 0.861368 0.434896 -0.604261
F2    F     F_    0.287156 0.135989 0.441116 -0.621661
F3    F     F_    0.395500 0.720512 0.876590 -0.562764
F4    F     F_    0.277886 0.481843 0.897933 -0.585165
C25   C     C_2   0.747750 0.557562 0.100983 0.951520
O13   O     O_2   0.807865 0.620121 0.023119 -0.468934
O14   O     O_R   0.773638 0.579716 0.227206 -0.835852
H13   H     H_    0.841740 0.650067 0.241363 0.368946
C26   C     C_2   0.707781 0.319881 0.112718 1.062188
O15   O     O_2   0.804321 0.279741 0.063113 -0.511666
O16   O     O_R   0.660321 0.246460 0.212773 -0.777423
H14   H     H_    0.711983 0.163263 0.233031 0.344533
F5    F     F_    0.726743 0.488958 0.850462 -0.624203
F6    F     F_    0.623393 0.298519 0.886184 -0.601404

loop_
_geom_bond_atom_site_label_1
_geom_bond_atom_site_label_2
_ccdc_geom_bond_type
C19   F4    S    
O3    Zn1   S    
C11   C12   A    
C2    C22   S    
C16   C21   S    
C10   N1    A    
C1    C8    S    
O1    Zn1   S    
C9    C10   A    
C15   O8    A    
C13   O3    A    
O10   H11   S    
C11   F1    S    
C11   N1    A    
C4    C8    A    
C2    F5    S    
C26   O15   D    
C3    H5    S    
C7    C14   S    
C13   O4    A    
C3    C5    A    
C13   C21   S    
O14   H13   S    
C26   O16   S    
C23   O9    D    
O4    Zn2   S    
O7    Zn1   S    
C15   O7    A    
C25   O13   D    
C6    C7    A    
C18   H3    S    
O8    Zn2   S    
C18   F3    S    
C4    C6    A    
C17   C19   S    
C14   O6    A    
C3    C8    A    
C16   H1    S    
C5    H7    S    
C23   O10   S    
C9    N2    A    
C14   O5    A    
C12   F2    S    
O2    Zn2   S    
C17   H2    S    
C25   O14   S    
C9    H9    S    
C16   C23   S    
C2    C20   S    
O12   H12   S    
N1    Zn1   S    
C10   H10   S    
O6    Zn2   S    
C19   C22   S    
N2    Zn2   S    
C20   C21   S    
C1    O1    A    
C16   C18   S    
C24   O11   D    
C4    H6    S    
C17   C24   S    
C20   C26   S    
C5    C7    A    
C19   H4    S    
O5    Zn1   S    
C2    F6    S    
C20   C25   S    
C18   C22   S    
C12   N2    A    
C6    H8    S    
C15   C22   S    
C17   C21   S    
O16   H14   S    
C1    O2    A    
C24   O12   S    
