data_mof_unit_25465.cif
_audit_creation_date              2012-10-26T20:35:44-0400
_audit_creation_method            fapswitch 2.2
_symmetry_space_group_name_H-M    P1
_symmetry_Int_Tables_number       1
_space_group_crystal_system       triclinic
_cell_length_a                    8.725476
_cell_length_b                    15.868031
_cell_length_c                    17.109011
_cell_angle_alpha                 95.624323
_cell_angle_beta                  91.507263
_cell_angle_gamma                 84.122701
_cell_volume                      2344.7347974

loop_
_atom_site_label
_atom_site_type_symbol
_atom_type_description
_atom_site_fract_x
_atom_site_fract_y
_atom_site_fract_z
_atom_type_partial_charge
C1    C     C_R   0.499820 0.490136 0.348679 0.567078
C2    C     C_R   0.375278 0.161630 0.435911 -0.184901
C3    C     C_R   0.619709 0.749687 0.559407 -0.012104
C4    C     C_R   0.380235 0.250319 0.440621 -0.012435
C5    C     C_R   0.205487 0.521964 0.500903 0.557933
C6    C     C_R   0.794514 0.478037 0.499107 0.559114
C7    C     C_2   0.040244 0.533881 0.501429 -0.143188
C8    C     C_2   0.959759 0.466120 0.498597 -0.143961
C9    C     C_R   0.502147 0.486073 0.262714 -0.044783
C10   C     C_R   0.491659 0.515778 0.737137 -0.049637
C11   C     C_R   0.510571 0.560647 0.226298 -0.127211
C12   C     C_R   0.499509 0.510028 0.651293 0.564611
C13   C     C_R   0.461404 0.444812 0.774655 -0.119435
C14   C     C_R   0.510743 0.558997 0.144469 0.283547
C15   C     C_R   0.446554 0.450898 0.856024 0.284964
C16   C     C_R   0.509797 0.479769 0.098101 0.213366
C17   C     C_R   0.469992 0.528381 0.901347 0.203395
C18   C     C_R   0.504528 0.404773 0.135101 -0.050980
C19   C     C_R   0.498048 0.599734 0.863362 -0.044120
C20   C     C_R   0.498845 0.408228 0.216761 -0.179257
C21   C     C_R   0.508971 0.593207 0.781851 -0.178156
C22   C     C_3   0.252396 0.382566 0.896874 -0.087387
C23   C     C_R   0.419441 0.758521 0.463559 0.110813
C24   C     C_3   0.392772 0.689741 0.122333 -0.079773
C25   C     C_1   0.502704 0.323360 0.089470 0.243579
C26   C     C_1   0.520302 0.679951 0.907490 0.244128
C27   C     C_1   0.684662 0.281817 0.591485 0.302395
C28   C     C_1   0.315347 0.718203 0.408474 0.291565
C29   C     C_3   0.825741 0.083438 0.531644 -0.109398
C30   C     C_3   0.174500 0.916588 0.468011 -0.110806
C31   C     C_R   0.580661 0.241471 0.536377 0.108959
C32   C     C_R   0.415809 0.848183 0.468946 0.253296
C33   C     C_R   0.584394 0.151802 0.530932 0.255487
C34   C     C_R   0.524258 0.889172 0.518279 0.193722
C35   C     C_R   0.475875 0.110818 0.481643 0.193157
C36   C     C_R   0.624722 0.838371 0.564085 -0.183854
Cu1   Cu    Cu3+1 0.492520 0.415770 0.496210 0.961394
Cu2   Cu    Cu3+1 0.507480 0.584230 0.503790 0.962717
H1    H     H_    0.984708 0.598616 0.504158 0.132787
H2    H     H_    0.302581 0.288069 0.404367 0.140427
H3    H     H_    0.195088 0.379977 0.837885 0.114817
H4    H     H_    0.204448 0.440001 0.934428 0.129544
H5    H     H_    0.225570 0.325932 0.925138 0.168597
H6    H     H_    0.382885 0.716313 0.184749 0.124102
H7    H     H_    0.399522 0.744096 0.086953 0.176023
H8    H     H_    0.287316 0.659024 0.102598 0.128010
H9    H     H_    0.802297 0.043816 0.476088 0.127692
H10   H     H_    0.909857 0.044963 0.566811 0.141410
H11   H     H_    0.880192 0.140824 0.518633 0.106068
H12   H     H_    0.015295 0.401386 0.495869 0.131595
H13   H     H_    0.090517 0.955036 0.432751 0.139690
H14   H     H_    0.197795 0.956255 0.523562 0.129733
H15   H     H_    0.119962 0.859230 0.481021 0.108232
H16   H     H_    0.445818 0.384751 0.740954 0.161236
H17   H     H_    0.519091 0.620648 0.261367 0.153092
H18   H     H_    0.493369 0.349958 0.244352 0.147306
H19   H     H_    0.531763 0.648690 0.753423 0.147686
H20   H     H_    0.707296 0.867599 0.603605 0.133527
H21   H     H_    0.292644 0.132406 0.396423 0.131961
H22   H     H_    0.697273 0.711946 0.595711 0.139446
N1    N     N_2   0.517485 0.472414 0.014893 -0.160675
N2    N     N_1   0.231120 0.686748 0.363958 -0.310976
N3    N     N_2   0.461829 0.537016 0.984347 -0.190264
N4    N     N_R   0.518730 0.710760 0.509500 -0.271315
N5    N     N_R   0.481270 0.289240 0.490500 -0.272896
N6    N     N_2   0.534347 0.979660 0.525961 -0.169530
N7    N     N_2   0.465815 0.020330 0.473950 -0.171252
N8    N     N_1   0.501176 0.258134 0.052850 -0.246163
N9    N     N_1   0.538547 0.744384 0.942567 -0.269473
N10   N     N_1   0.768777 0.313327 0.636026 -0.292751
O1    O     O_R   0.493000 0.421040 0.382520 -0.505461
O2    O     O_3   0.527529 0.633021 0.110198 -0.530168
O3    O     O_3   0.690762 0.105788 0.575788 -0.541127
O4    O     O_3   0.309615 0.894182 0.423985 -0.547236
O5    O     O_R   0.507000 0.578960 0.617480 -0.506239
O6    O     O_R   0.505640 0.563310 0.388930 -0.497750
O7    O     O_R   0.494360 0.436690 0.611070 -0.498035
O8    O     O_R   0.269980 0.445280 0.497530 -0.505571
O9    O     O_R   0.730020 0.554720 0.502470 -0.504062
O10   O     O_R   0.282610 0.587550 0.503940 -0.493510
O11   O     O_R   0.717390 0.412450 0.496060 -0.495356
O12   O     O_3   0.413633 0.379983 0.890816 -0.527005

loop_
_geom_bond_atom_site_label_1
_geom_bond_atom_site_label_2
_ccdc_geom_bond_type
C2    C35   A    
C30   H13   S    
C20   H18   S    
C34   N6    S    
C7    C8    D    
C29   H11   S    
C3    N4    A    
C18   C25   S    
C1    O1    A    
C29   H9    S    
C24   H7    S    
C22   O12   S    
C19   C21   A    
C36   H20   S    
C32   O4    S    
C4    N5    A    
C30   O4    S    
C11   C14   A    
C22   H3    S    
C29   O3    S    
Cu2   O9    S    
C31   N5    A    
N1    N3    D    
C19   C26   S    
C33   C35   A    
C4    H2    S    
Cu1   N5    S    
C31   C33   A    
C34   C36   A    
C3    H22   S    
N6    N7    D    
C6    O11   A    
Cu1   O11   S    
C25   N8    T    
C15   O12   S    
Cu2   N4    S    
Cu2   O5    S    
C10   C21   A    
C30   H15   S    
C29   H10   S    
C27   C31   S    
C1    C9    S    
C5    C7    S    
C2    H21   S    
Cu2   O6    S    
Cu1   O7    S    
C32   C34   A    
C2    C4    A    
C21   H19   S    
Cu1   Cu2   S    
C9    C20   A    
C22   H5    S    
C35   N7    S    
C12   O7    A    
C23   C28   S    
C5    O10   A    
C9    C11   A    
C27   N10   T    
C10   C12   S    
C33   O3    S    
C23   N4    A    
C13   C15   A    
C24   H6    S    
C14   C16   A    
C16   N1    S    
C8    H12   S    
C11   H17   S    
C24   O2    S    
C13   H16   S    
C15   C17   A    
C30   H14   S    
C1    O6    A    
C14   O2    S    
C10   C13   A    
C6    C8    S    
Cu1   O8    S    
C24   H8    S    
C23   C32   A    
Cu1   O1    S    
C17   N3    S    
C6    O9    A    
C22   H4    S    
Cu2   O10   S    
C3    C36   A    
C17   C19   A    
C18   C20   A    
C16   C18   A    
C12   O5    A    
C26   N9    T    
C7    H1    S    
C5    O8    A    
C28   N2    T    
