data_mof_unit_37855.cif
_audit_creation_date              2012-12-11T15:21:42-0500
_audit_creation_method            fapswitch 2.2
_symmetry_space_group_name_H-M    P1
_symmetry_Int_Tables_number       1
_space_group_crystal_system       triclinic
_cell_length_a                    19.214684
_cell_length_b                    7.13661
_cell_length_c                    17.684958
_cell_angle_alpha                 90.0
_cell_angle_beta                  109.106358
_cell_angle_gamma                 89.999989
_cell_volume                      2291.50538208

loop_
_atom_site_label
_atom_site_type_symbol
_atom_type_description
_atom_site_fract_x
_atom_site_fract_y
_atom_site_fract_z
_atom_type_partial_charge
O1    O     O_R   0.562310 0.505770 0.439670 -0.535626
O2    O     O_R   0.437690 0.005770 0.560330 -0.535625
O3    O     O_R   0.411650 0.169150 0.405330 -0.537555
O4    O     O_R   0.588350 0.669150 0.594670 -0.537555
C1    C     C_R   0.384928 0.345390 0.382924 0.637850
C2    C     C_R   0.615072 0.845390 0.617076 0.637851
O5    O     O_R   0.560140 0.175610 0.430010 -0.542516
O6    O     O_R   0.439860 0.675610 0.569990 -0.542516
O7    O     O_R   0.587240 0.012100 0.585200 -0.542350
O8    O     O_R   0.412760 0.512100 0.414800 -0.542350
C3    C     C_R   0.579520 0.344242 0.413050 0.696900
C4    C     C_R   0.420480 0.844242 0.586950 0.696897
O9    O     O_3   0.508720 0.341420 0.550890 -0.370310
O10   O     O_3   0.491280 0.841420 0.449110 -0.370310
V1    V     V_3+5 0.498380 0.063930 0.490560 1.382291
V2    V     V_3+5 0.501620 0.563930 0.509440 1.382291
C5    C     C_R   0.180762 0.765118 0.878383 -0.149403
C6    C     C_R   0.819238 0.265118 0.121617 -0.149403
C7    C     C_R   0.132034 0.916278 0.867655 -0.137117
C8    C     C_R   0.867965 0.416278 0.132345 -0.137118
C9    C     C_R   0.132810 0.056503 0.812451 -0.160266
C10   C     C_R   0.867190 0.556503 0.187549 -0.160266
C11   C     C_R   0.180735 0.045076 0.766772 0.080873
C12   C     C_R   0.819265 0.545076 0.233228 0.080873
C13   C     C_R   0.230101 0.891685 0.778349 -0.059374
C14   C     C_R   0.769899 0.391684 0.221651 -0.059374
C15   C     C_R   0.230397 0.752011 0.835113 0.091830
C16   C     C_R   0.769603 0.252011 0.164887 0.091830
C17   C     C_R   0.179836 0.184139 0.709834 0.127376
C18   C     C_R   0.820165 0.684138 0.290166 0.127376
C19   C     C_R   0.227737 0.170084 0.664118 0.143176
C20   C     C_R   0.772263 0.670083 0.335882 0.143176
C21   C     C_R   0.276970 0.017394 0.675635 0.091696
C22   C     C_R   0.723030 0.517394 0.324365 0.091696
C23   C     C_R   0.278800 0.877996 0.733237 -0.119921
C24   C     C_R   0.721200 0.377996 0.266763 -0.119921
C25   C     C_R   0.329109 0.725475 0.745660 0.074083
C26   C     C_R   0.670891 0.225475 0.254341 0.074083
C27   C     C_R   0.329124 0.586821 0.803825 0.160422
C28   C     C_R   0.670876 0.086821 0.196175 0.160422
C29   C     C_R   0.279935 0.601030 0.848018 0.112473
C30   C     C_R   0.720065 0.101029 0.151982 0.112474
C31   C     C_R   0.324010 0.001985 0.629623 -0.185502
C32   C     C_R   0.675990 0.501984 0.370377 -0.185502
C33   C     C_R   0.373416 0.852638 0.639532 -0.172845
C34   C     C_R   0.626584 0.352638 0.360468 -0.172845
C35   C     C_R   0.377408 0.715488 0.699171 0.196249
C36   C     C_R   0.622592 0.215487 0.300829 0.196250
H1    H     H_    0.180471 0.658630 0.921925 0.165688
H2    H     H_    0.819529 0.158630 0.078075 0.165687
H3    H     H_    0.094941 0.172988 0.804455 0.176485
H4    H     H_    0.905059 0.672988 0.195545 0.176484
C37   C     C_3   0.789907 0.700522 0.795558 -0.376457
C38   C     C_3   0.210092 0.200522 0.204443 -0.376456
C39   C     C_3   0.717287 0.673440 0.725442 -0.348609
C40   C     C_3   0.282712 0.173440 0.274558 -0.348610
H5    H     H_    0.676478 0.599949 0.747059 0.150178
H6    H     H_    0.323521 0.099947 0.252942 0.150177
H7    H     H_    0.865386 0.902776 0.719486 0.138653
H8    H     H_    0.134614 0.402782 0.280514 0.138652
C41   C     C_3   0.821390 0.988055 0.731202 0.064001
C42   C     C_3   0.178610 0.488058 0.268797 0.064002
C43   C     C_3   0.747674 0.013333 0.827345 -0.324321
C44   C     C_3   0.252326 0.513330 0.172654 -0.324320
C45   C     C_3   0.812540 0.912237 0.810443 0.026091
C46   C     C_3   0.187460 0.412237 0.189557 0.026091
H9    H     H_    0.740241 0.951805 0.882054 0.161904
H10   H     H_    0.259759 0.451799 0.117946 0.161904
C47   C     C_3   0.686783 0.865070 0.687415 0.020640
C48   C     C_3   0.313216 0.365070 0.312585 0.020641
C49   C     C_3   0.747593 0.964413 0.659305 -0.000333
C50   C     C_3   0.252407 0.464416 0.340695 -0.000333
C51   C     C_3   0.675204 0.995287 0.754610 0.055639
C52   C     C_3   0.324796 0.495285 0.245389 0.055639
H11   H     H_    0.661221 0.138593 0.729147 0.128426
H12   H     H_    0.338779 0.638592 0.270852 0.128425
O11   O     O_R   0.087220 0.271820 0.085230 -0.549605
O12   O     O_R   0.912780 0.771820 0.914770 -0.549605
O13   O     O_R   0.939860 0.595540 0.069990 -0.537746
O14   O     O_R   0.060140 0.095540 0.930010 -0.537747
C53   C     C_R   0.918774 0.426694 0.084780 0.699520
C54   C     C_R   0.081225 0.926694 0.915220 0.699522
O15   O     O_R   0.088340 0.601930 0.094680 -0.518127
O16   O     O_R   0.911660 0.101930 0.905320 -0.518128
O17   O     O_R   0.062310 0.765410 0.939660 -0.540933
O18   O     O_R   0.937690 0.265410 0.060340 -0.540933
C55   C     C_R   0.115892 0.431608 0.118211 0.696854
C56   C     C_R   0.884108 0.931608 0.881789 0.696854
O19   O     O_3   0.991270 0.429630 0.949130 -0.370118
O20   O     O_3   0.008730 0.929630 0.050870 -0.370118
V3    V     V_3+5 0.001620 0.707150 0.009440 1.431699
V4    V     V_3+5 0.998380 0.207150 0.990560 1.431699
H13   H     H_    0.783207 0.638251 0.850498 0.160444
H14   H     H_    0.216792 0.138248 0.149503 0.160444
H15   H     H_    0.726714 0.577700 0.680272 0.141271
H16   H     H_    0.273286 0.077701 0.319729 0.141271
N1    N     N_3   0.761964 0.868506 0.592321 -0.673877
H17   H     H_    0.713392 0.858399 0.543601 0.234569
H18   H     H_    0.782182 0.733480 0.608669 0.232071
N2    N     N_3   0.238036 0.368509 0.407679 -0.673877
H19   H     H_    0.286608 0.358400 0.456399 0.234569
H20   H     H_    0.217817 0.233484 0.391330 0.232071
H21   H     H_    0.760848 0.163752 0.841204 0.129737
H22   H     H_    0.239153 0.663749 0.158795 0.129737
N3    N     N_3   0.614277 0.935345 0.781995 -0.659906
H23   H     H_    0.564948 0.935423 0.734015 0.217904
H24   H     H_    0.623364 0.800229 0.805786 0.236346
N4    N     N_3   0.385723 0.435342 0.218005 -0.659907
H25   H     H_    0.435052 0.435421 0.265985 0.217904
H26   H     H_    0.376637 0.300224 0.194215 0.236346
N5    N     N_3   0.846602 0.183543 0.739542 -0.671141
H27   H     H_    0.859223 0.220512 0.688282 0.236061
H28   H     H_    0.804167 0.272203 0.742155 0.214655
N6    N     N_3   0.153399 0.683547 0.260456 -0.671140
H29   H     H_    0.140779 0.720519 0.311717 0.236060
H30   H     H_    0.195835 0.772205 0.257843 0.214655
H31   H     H_    0.726458 0.106212 0.636887 0.131360
H32   H     H_    0.273543 0.606214 0.363113 0.131360
N7    N     N_3   0.129549 0.338775 0.698194 -0.682582
H33   H     H_    0.094477 0.338107 0.638878 0.234106
H34   H     H_    0.159476 0.463763 0.708934 0.239343
N8    N     N_3   0.870452 0.838774 0.301806 -0.682582
H35   H     H_    0.840524 0.963763 0.291067 0.239343
H36   H     H_    0.905523 0.838105 0.361122 0.234106
N9    N     N_3   0.226781 0.311005 0.605749 -0.682974
H37   H     H_    0.174121 0.316675 0.563301 0.242327
H38   H     H_    0.239033 0.440845 0.634290 0.239757
N10   N     N_3   0.773219 0.811005 0.394251 -0.682974
H39   H     H_    0.760967 0.940844 0.365710 0.239757
H40   H     H_    0.825879 0.816675 0.436699 0.242328
H41   H     H_    0.321759 0.106214 0.584355 0.171165
H42   H     H_    0.678241 0.606214 0.415645 0.171165
N11   N     N_3   0.432029 0.570193 0.714919 -0.605680
H43   H     H_    0.417812 0.474459 0.667617 0.259955
H44   H     H_    0.483811 0.628719 0.722771 0.219644
N12   N     N_3   0.567971 0.070193 0.285081 -0.605680
H45   H     H_    0.582188 0.974459 0.332382 0.259956
H46   H     H_    0.516189 0.128719 0.277228 0.219644
N13   N     N_3   0.378362 0.429528 0.817834 -0.613053
H47   H     H_    0.347765 0.305590 0.806062 0.232845
H48   H     H_    0.412316 0.430195 0.877613 0.235825
N14   N     N_3   0.621638 0.929527 0.182166 -0.613052
H49   H     H_    0.652235 0.805590 0.193938 0.232845
H50   H     H_    0.587684 0.930194 0.122387 0.235825
N15   N     N_3   0.280037 0.461386 0.906659 -0.691667
H51   H     H_    0.332089 0.457305 0.950312 0.237606
H52   H     H_    0.268437 0.330673 0.878806 0.242135
N16   N     N_3   0.719963 0.961387 0.093341 -0.691666
H53   H     H_    0.667911 0.957306 0.049688 0.237606
H54   H     H_    0.731562 0.830672 0.121194 0.242135
H55   H     H_    0.834329 0.620511 0.782375 0.159791
H56   H     H_    0.165670 0.120513 0.217626 0.159791

loop_
_geom_bond_atom_site_label_1
_geom_bond_atom_site_label_2
_ccdc_geom_bond_type
C2    C47   S    
O15   C55   A    
C43   C45   S    
O11   V4    S    
O4    V2    S    
C28   N14   S    
C37   C39   S    
N5    H27   S    
O1    C3    A    
C30   N16   S    
N10   H39   S    
C2    O7    A    
N6    H29   S    
O17   V3    S    
C27   C29   A    
O5    C3    A    
N3    H24   S    
C52   H12   S    
C11   C17   A    
H8    C42   S    
C23   C25   A    
N16   H54   S    
C42   N6    S    
C34   C36   A    
N1    H17   S    
N4    H25   S    
C17   N7    S    
C40   H16   S    
C47   C49   S    
N1    H18   S    
C18   N8    S    
C40   H6    S    
C48   C52   S    
C19   C21   A    
C47   C51   S    
C25   C35   A    
C7    C54   S    
C37   C45   S    
C26   C36   A    
C53   O18   A    
C41   C49   S    
N7    H34   S    
O2    C4    A    
O6    V2    S    
C8    C53   S    
C35   N11   S    
C28   C30   A    
C51   H11   S    
N15   H52   S    
C32   C34   A    
N15   H51   S    
C38   C40   S    
C33   C35   A    
C43   H9    S    
H7    C41   S    
C48   C50   S    
C49   H31   S    
C37   H13   S    
C5    C15   A    
C22   C32   A    
N16   H53   S    
C39   H15   S    
N12   H46   S    
C5    H1    S    
C46   C55   S    
O13   C53   A    
C42   C46   S    
C4    C33   S    
C43   H21   S    
C38   H56   S    
O5    V1    S    
C43   C51   S    
C20   C22   A    
C44   C46   S    
O14   V4    S    
C1    C48   S    
C18   C20   A    
C49   N1    S    
C15   C29   A    
C51   N3    S    
O6    C4    A    
N2    H20   S    
C6    C16   A    
N5    H28   S    
O1    V2    S    
O19   V4    S    
N9    H38   S    
O2    V1    S    
C31   C33   A    
O11   C55   A    
C39   C47   S    
C31   H41   S    
C13   C23   A    
C14   C24   A    
C8    C10   A    
C40   C48   S    
C39   H5    S    
N9    H37   S    
C10   C12   A    
O4    C2    A    
C13   C15   A    
C19   N9    S    
N8    H36   S    
C24   C26   A    
C41   N5    S    
C44   H10   S    
C9    H3    S    
O3    V1    S    
C6    H2    S    
C45   C56   S    
C10   H4    S    
C50   N2    S    
O12   C56   A    
C44   H22   S    
C7    C9    A    
N14   H49   S    
O13   V3    S    
C36   N12   S    
O16   C56   A    
C12   C14   A    
N12   H45   S    
O3    C1    A    
N10   H40   S    
C6    C8    A    
N6    H30   S    
N13   H47   S    
C38   C46   S    
O12   V3    S    
C32   H42   S    
C54   O17   A    
O15   V3    S    
N3    H23   S    
C14   C16   A    
C42   C50   S    
C20   N10   S    
C9    C11   A    
O7    V1    S    
C1    O8    A    
C17   C19   A    
O18   V4    S    
C26   C28   A    
N13   H48   S    
O20   V3    S    
N11   H43   S    
C16   C30   A    
N2    H19   S    
C21   C23   A    
O14   C54   A    
N4    H26   S    
N14   H50   S    
C11   C13   A    
C12   C18   A    
C38   H14   S    
C52   N4    S    
C5    C7    A    
C41   C45   S    
C29   N15   S    
C22   C24   A    
C25   C27   A    
N7    H33   S    
O9    V2    S    
C50   H32   S    
N11   H44   S    
C44   C52   S    
O10   V1    S    
C3    C34   S    
O8    V2    S    
O16   V4    S    
N8    H35   S    
C21   C31   A    
C27   N13   S    
C37   H55   S    
