data_mof_unit_44906.cif
_audit_creation_date              2012-12-10T18:36:58-0500
_audit_creation_method            fapswitch 2.2
_symmetry_space_group_name_H-M    P1
_symmetry_Int_Tables_number       1
_space_group_crystal_system       triclinic
_cell_length_a                    14.959067
_cell_length_b                    15.44601
_cell_length_c                    23.401622
_cell_angle_alpha                 89.969649
_cell_angle_beta                  104.468115
_cell_angle_gamma                 81.090968
_cell_volume                      5168.13715632

loop_
_atom_site_label
_atom_site_type_symbol
_atom_type_description
_atom_site_fract_x
_atom_site_fract_y
_atom_site_fract_z
_atom_type_partial_charge
C1    C     C_R   0.440987 0.662317 0.489419 0.884775
C2    C     C_R   0.559222 0.337577 0.508215 0.897299
C3    C     C_R   0.584694 0.518500 0.774746 -0.103318
C4    C     C_R   0.413924 0.508943 0.224675 -0.103787
C5    C     C_R   0.582314 0.519704 0.715026 -0.217203
C6    C     C_R   0.413995 0.511836 0.284010 -0.243274
C7    C     C_R   0.503217 0.500226 0.673379 -0.037187
C8    C     C_R   0.498752 0.493222 0.327466 -0.025971
C9    C     C_R   0.426521 0.480019 0.692249 -0.198323
C10   C     C_R   0.582739 0.467966 0.311185 -0.228326
C11   C     C_R   0.429269 0.478687 0.751955 -0.112100
C12   C     C_R   0.582540 0.464833 0.251891 -0.121650
C13   C     C_R   0.508328 0.497704 0.793102 0.325901
C14   C     C_R   0.498310 0.486273 0.208723 0.331586
C15   C     C_R   0.405522 0.754817 0.472056 -0.170620
C16   C     C_R   0.597124 0.243991 0.509965 -0.170315
C17   C     C_R   0.300220 0.870482 0.407634 -0.251870
C18   C     C_R   0.720024 0.119006 0.540806 -0.256651
C19   C     C_R   0.322383 0.782557 0.428069 0.501390
C20   C     C_R   0.691365 0.209994 0.536641 0.507834
C21   C     C_R   0.466823 0.813747 0.492096 -0.292543
C22   C     C_R   0.535664 0.187834 0.483818 -0.304913
C23   C     C_R   0.500871 0.500282 0.610615 0.870163
C24   C     C_R   0.499514 0.498517 0.389610 0.834719
C25   C     C_R   0.452643 0.897053 0.465242 0.058263
C26   C     C_R   0.563594 0.097176 0.486106 0.061286
C27   C     C_R   0.365384 0.927902 0.425251 -0.033028
C28   C     C_R   0.656509 0.062151 0.517185 -0.018263
C29   C     C_R   0.522841 0.950720 0.478730 0.014860
C30   C     C_R   0.498802 0.040660 0.462237 0.014317
C31   C     C_R   0.410861 0.070944 0.422629 -0.294392
C32   C     C_R   0.616845 0.916340 0.506735 -0.317896
C33   C     C_R   0.346091 0.014622 0.402528 0.542390
C34   C     C_R   0.683477 0.971127 0.526042 0.529650
C35   C     C_R   0.852749 0.594920 0.611295 0.453461
C36   C     C_R   0.162282 0.356398 0.413527 0.451394
C37   C     C_R   0.758319 0.589726 0.586207 -0.232572
C38   C     C_R   0.250907 0.382153 0.428648 -0.235848
C39   C     C_R   0.792824 0.524080 0.500955 0.580966
C40   C     C_R   0.204418 0.488178 0.493594 0.566910
C41   C     C_R   0.890021 0.517855 0.526429 -0.202782
C42   C     C_R   0.118027 0.457377 0.486593 -0.199376
C43   C     C_R   0.918942 0.558611 0.580887 0.001672
C44   C     C_R   0.095521 0.394799 0.442980 0.002871
C45   C     C_R   0.513083 0.409946 0.121193 0.499430
C46   C     C_R   0.497938 0.573593 0.881368 0.501300
C47   C     C_R   0.958771 0.474177 0.499393 0.124312
C48   C     C_R   0.052779 0.487871 0.519910 0.120293
C49   C     C_R   0.079736 0.526419 0.574856 -0.223050
C50   C     C_R   0.938228 0.412349 0.455640 -0.224941
C51   C     C_R   0.014084 0.560446 0.604972 -0.149083
C52   C     C_R   0.006048 0.371745 0.429186 -0.149193
C53   C     C_R   0.487595 0.566846 0.118880 0.499184
C54   C     C_R   0.522891 0.416702 0.883511 0.502464
C55   C     C_R   0.490208 0.570195 0.059691 -0.014216
C56   C     C_R   0.521546 0.413292 0.942941 -0.016672
C57   C     C_R   0.504710 0.490886 0.031153 -0.022207
C58   C     C_R   0.507550 0.492585 0.971588 -0.022212
C59   C     C_R   0.516228 0.409898 0.062011 -0.015104
C60   C     C_R   0.496023 0.573585 0.940746 -0.015518
C61   C     C_R   0.479078 0.650540 0.028638 -0.162420
C62   C     C_R   0.533182 0.332942 0.974094 -0.159723
C63   C     C_R   0.482010 0.652220 0.969661 -0.160513
C64   C     C_R   0.530569 0.331259 0.033145 -0.161856
H1    H     H_    0.467998 0.712276 0.049744 0.191574
H2    H     H_    0.544091 0.271214 0.952951 0.192903
H3    H     H_    0.234083 0.892061 0.375828 0.199817
H4    H     H_    0.791110 0.093220 0.564698 0.200944
H5    H     H_    0.391689 0.137286 0.404310 0.153862
H6    H     H_    0.641000 0.846493 0.512020 0.162288
H7    H     H_    0.038490 0.588710 0.647284 0.197012
H8    H     H_    0.987057 0.323436 0.396705 0.196162
H9    H     H_    0.306761 0.350972 0.410380 0.166536
H10   H     H_    0.705312 0.614509 0.608661 0.169084
H11   H     H_    0.152237 0.527207 0.596749 0.199347
H12   H     H_    0.871603 0.389829 0.443697 0.188148
H13   H     H_    0.472986 0.715200 0.946812 0.192734
H14   H     H_    0.539657 0.268283 0.056011 0.191841
H15   H     H_    0.645800 0.533285 0.806806 0.135535
H16   H     H_    0.348730 0.525047 0.191078 0.134926
H17   H     H_    0.642280 0.535615 0.701595 0.151003
H18   H     H_    0.348308 0.529901 0.295873 0.145108
H19   H     H_    0.364632 0.464954 0.661058 0.172972
H20   H     H_    0.648105 0.449682 0.344216 0.193154
H21   H     H_    0.370101 0.462937 0.766397 0.138991
H22   H     H_    0.647690 0.446612 0.239367 0.140516
H23   H     H_    0.463877 0.216008 0.464608 0.181451
H24   H     H_    0.527470 0.792471 0.528173 0.172168
N1    N     N_R   0.499016 0.487622 0.148060 -0.358820
N2    N     N_R   0.510691 0.495962 0.854239 -0.359285
N3    N     N_R   0.731690 0.552740 0.533440 -0.150034
N4    N     N_R   0.268310 0.447260 0.466560 -0.146356
O1    O     O_R   0.383120 0.605620 0.483150 -0.531687
O2    O     O_R   0.616880 0.394380 0.516850 -0.555080
O3    O     O_R   0.531890 0.639510 0.504600 -0.630496
O4    O     O_R   0.468110 0.360490 0.495400 -0.629286
O5    O     O_R   0.425590 0.483070 0.573110 -0.578627
O6    O     O_R   0.574410 0.516930 0.426890 -0.564240
O7    O     O_R   0.574360 0.516970 0.594570 -0.630012
O8    O     O_R   0.425640 0.483030 0.405430 -0.630347
O9    O     O_2   0.523667 0.333296 0.151725 -0.561512
O10   O     O_2   0.486135 0.650300 0.850668 -0.557112
O11   O     O_2   0.474545 0.641920 0.147351 -0.564741
O12   O     O_2   0.536179 0.341687 0.855028 -0.553092
Zn1   Zn    Zn3+2 0.400660 0.477370 0.485670 0.992129
Zn2   Zn    Zn3+2 0.599340 0.522630 0.514330 0.984119
O13   O     O_3   0.225285 0.561396 0.524914 -0.612977
C65   C     C_3   0.172072 0.637177 0.492150 -0.211223
H25   H     H_    0.165681 0.632836 0.443815 0.190007
H26   H     H_    0.207044 0.694272 0.507549 0.211240
H27   H     H_    0.101094 0.650408 0.499864 0.149459
O14   O     O_3   0.757938 0.508325 0.442295 -0.623985
C66   C     C_3   0.752691 0.586109 0.409061 -0.292789
H28   H     H_    0.822550 0.606640 0.415301 0.155834
H29   H     H_    0.702121 0.640129 0.420224 0.178596
H30   H     H_    0.727491 0.574104 0.361499 0.187278
O15   O     O_3   0.881973 0.637625 0.663428 -0.612347
C67   C     C_3   0.841261 0.611935 0.707760 -0.325240
H31   H     H_    0.838325 0.540277 0.708434 0.163783
H32   H     H_    0.770598 0.650807 0.702799 0.162206
H33   H     H_    0.885047 0.626384 0.751331 0.203428
O16   O     O_3   0.141179 0.289190 0.375156 -0.588580
C68   C     C_3   0.179692 0.292326 0.326055 -0.265088
H34   H     H_    0.253889 0.259952 0.337559 0.163083
H35   H     H_    0.172653 0.360519 0.308032 0.137833
H36   H     H_    0.140973 0.254784 0.290427 0.196558
O17   O     O_3   0.260470 0.046885 0.364481 -0.587836
C69   C     C_3   0.272116 0.050946 0.306646 -0.329271
H37   H     H_    0.299695 0.985175 0.292991 0.160973
H38   H     H_    0.318429 0.099045 0.302214 0.158653
H39   H     H_    0.202785 0.073405 0.275835 0.201140
O18   O     O_3   0.775975 0.935847 0.551569 -0.614831
C70   C     C_3   0.783090 0.897215 0.607526 -0.278326
H40   H     H_    0.752568 0.835612 0.603387 0.172206
H41   H     H_    0.749951 0.943564 0.635556 0.157106
H42   H     H_    0.858240 0.879692 0.630555 0.213410
O19   O     O_3   0.752483 0.264420 0.564682 -0.592013
C71   C     C_3   0.816169 0.272903 0.530431 -0.263056
H43   H     H_    0.860387 0.321840 0.550582 0.191241
H44   H     H_    0.779186 0.297270 0.484504 0.159645
H45   H     H_    0.863395 0.209926 0.529932 0.158413
O20   O     O_3   0.262825 0.724297 0.404971 -0.626779
C72   C     C_3   0.276271 0.700044 0.349277 -0.305287
H46   H     H_    0.251651 0.756257 0.316498 0.164476
H47   H     H_    0.234228 0.647736 0.333112 0.184239
H48   H     H_    0.350818 0.673054 0.352100 0.155448

loop_
_geom_bond_atom_site_label_1
_geom_bond_atom_site_label_2
_ccdc_geom_bond_type
C72   H48   S    
C23   O7    A    
O4    Zn1   S    
C6    H18   S    
C13   N2    S    
C37   H10   S    
C3    H15   S    
C69   H37   S    
C68   H34   S    
C39   C41   A    
C27   C33   A    
C15   C19   A    
C46   O10   S    
O8    Zn1   S    
C42   C44   A    
C60   C63   A    
C24   O6    A    
C54   O12   S    
C35   C37   A    
C53   O11   S    
C54   N2    A    
C29   C32   A    
C30   C31   A    
C7    C23   S    
C68   H35   S    
C58   C60   A    
C72   H46   S    
C38   N4    A    
C33   O17   S    
C65   H25   S    
C72   H47   S    
C10   H20   S    
C61   C63   A    
C67   H31   S    
C62   C64   A    
O1    Zn1   S    
O2    Zn2   S    
C65   H26   S    
O18   C70   S    
C49   C51   A    
C70   H42   S    
C50   C52   A    
O13   C65   S    
C31   C33   A    
C1    C15   S    
C45   N1    A    
C3    C13   A    
C16   C20   A    
C66   H30   S    
O5    Zn1   S    
C44   C52   A    
C40   C42   A    
C21   H24   S    
C34   O18   S    
C41   C43   A    
N3    Zn2   S    
C51   H7    S    
C10   C12   A    
C39   N3    A    
O14   C66   S    
C41   C47   A    
C47   C50   A    
C53   C55   A    
C35   O15   S    
C25   C29   A    
C54   C56   A    
C17   H3    S    
C62   H2    S    
C17   C27   A    
C2    O2    A    
C18   C28   A    
C4    C6    A    
C5    C7    A    
C37   N3    A    
C68   H36   S    
C32   H6    S    
C67   H33   S    
C32   C34   A    
C20   O19   S    
C36   O16   S    
C14   N1    S    
C29   C30   A    
C52   H8    S    
O3    Zn2   S    
C50   H12   S    
C5    H17   S    
C47   C48   A    
C15   C21   A    
C1    O3    A    
C49   H11   S    
C59   C64   A    
C42   C48   A    
C22   H23   S    
C40   N4    A    
C9    C11   A    
C45   O9    S    
C9    H19   S    
C40   O13   S    
C46   N2    A    
C1    O1    A    
C39   O14   S    
C23   O5    A    
C12   C14   A    
C26   C30   A    
C19   O20   S    
C55   C57   A    
C53   N1    A    
C70   H40   S    
C56   C62   A    
C36   C44   A    
O17   C69   S    
C69   H39   S    
C2    C16   S    
C66   H28   S    
C63   H13   S    
C7    C9    A    
O7    Zn2   S    
C21   C25   A    
C45   C59   A    
C16   C22   A    
C46   C60   A    
C24   O8    A    
C64   H14   S    
C3    C5    A    
C71   H45   S    
C69   H38   S    
C6    C8    A    
C4    H16   S    
C71   H44   S    
C25   C27   A    
O19   C71   S    
C26   C28   A    
O6    Zn2   S    
C65   H27   S    
C12   H22   S    
C2    O4    A    
C35   C43   A    
O15   C67   S    
C11   C13   A    
C43   C51   A    
C57   C58   A    
C11   H21   S    
C48   C49   A    
C55   C61   A    
C36   C38   A    
C17   C19   A    
C56   C58   A    
C18   C20   A    
C4    C14   A    
C67   H32   S    
C57   C59   A    
C71   H43   S    
C28   C34   A    
C61   H1    S    
N4    Zn1   S    
C31   H5    S    
C8    C24   S    
C8    C10   A    
C22   C26   A    
C70   H41   S    
O20   C72   S    
O16   C68   S    
C18   H4    S    
C66   H29   S    
C38   H9    S    
