data_mof_unit_29770.cif
_audit_creation_date              2012-10-26T20:43:31-0400
_audit_creation_method            fapswitch 2.2
_symmetry_space_group_name_H-M    P1
_symmetry_Int_Tables_number       1
_space_group_crystal_system       triclinic
_cell_length_a                    10.812842
_cell_length_b                    9.550885
_cell_length_c                    23.630578
_cell_angle_alpha                 90.043683
_cell_angle_beta                  91.386646
_cell_angle_gamma                 89.661334
_cell_volume                      2439.62428934

loop_
_atom_site_label
_atom_site_type_symbol
_atom_type_description
_atom_site_fract_x
_atom_site_fract_y
_atom_site_fract_z
_atom_type_partial_charge
C1    C     C_R   0.262133 0.500794 0.493391 0.477938
C2    C     C_R   0.567870 0.589680 0.704710 -0.016808
C3    C     C_R   0.430961 0.588434 0.237181 0.473090
C4    C     C_R   0.557559 0.590866 0.763644 0.474827
C5    C     C_R   0.499169 0.486003 0.208923 0.156278
C6    C     C_R   0.489105 0.488610 0.791234 0.145703
C7    C     C_R   0.060526 0.376443 0.482968 0.003197
C8    C     C_R   0.940341 0.625523 0.514490 0.001349
C9    C     C_R   0.940755 0.371036 0.504499 0.023488
C10   C     C_R   0.060174 0.630163 0.493170 0.013030
C11   C     C_R   0.874799 0.497995 0.511662 -0.100728
C12   C     C_R   0.738194 0.499454 0.506199 0.521082
C13   C     C_R   0.125946 0.503270 0.486663 -0.117856
C14   C     C_R   0.445396 0.074392 0.456575 0.461942
C15   C     C_R   0.554401 0.926188 0.543398 0.471409
C16   C     C_R   0.554832 0.074003 0.543371 0.478086
C17   C     C_R   0.445208 0.926575 0.456699 0.462436
C18   C     C_R   0.500326 0.499444 0.391043 0.556971
C19   C     C_R   0.498813 0.499467 0.609016 0.502340
C20   C     C_R   0.600211 0.472613 0.881606 0.497785
C21   C     C_R   0.387198 0.473107 0.118553 0.495494
C22   C     C_R   0.381011 0.504915 0.880307 0.438399
C23   C     C_R   0.568441 0.385136 0.240132 -0.034269
C24   C     C_R   0.606432 0.502170 0.119806 0.441313
C25   C     C_R   0.379287 0.496307 0.939689 -0.018708
C26   C     C_R   0.608063 0.494125 0.060434 -0.020606
C27   C     C_R   0.492875 0.488435 0.970169 -0.171370
C28   C     C_R   0.494449 0.488179 0.029966 -0.172108
C29   C     C_R   0.604931 0.481097 0.940997 -0.013674
C30   C     C_R   0.382408 0.482242 0.059150 -0.014653
C31   C     C_R   0.267777 0.495607 0.969328 0.464272
C32   C     C_R   0.719576 0.492045 0.030805 0.464280
C33   C     C_R   0.269298 0.485254 0.028237 0.466942
C34   C     C_R   0.422598 0.387411 0.759418 -0.009301
C35   C     C_R   0.718046 0.482206 0.971900 0.467118
C36   C     C_2   0.630679 0.270072 0.208795 0.310783
C37   C     C_2   0.355750 0.276190 0.790197 0.377806
C38   C     C_2   0.659586 0.299714 0.332712 0.373662
C39   C     C_2   0.345423 0.295130 0.664925 0.377214
C40   C     C_2   0.326718 0.673020 0.323634 0.395299
C41   C     C_2   0.665310 0.675285 0.678583 0.411277
C42   C     C_2   0.106780 0.262394 0.445694 0.348778
C43   C     C_2   0.894917 0.743722 0.549886 0.325399
C44   C     C_2   0.896656 0.239346 0.531367 0.329139
C45   C     C_R   0.576004 0.395626 0.299993 -0.011713
C46   C     C_2   0.105452 0.761642 0.466530 0.335384
C47   C     C_R   0.421365 0.394410 0.699390 -0.018712
C48   C     C_R   0.501687 0.496173 0.328293 -0.085709
C49   C     C_R   0.494717 0.496113 0.671860 -0.115006
C50   C     C_R   0.424027 0.587836 0.296276 -0.034131
Cu1   Cu    Cu3+1 0.500000 0.640660 0.500000 1.108202
Cu2   Cu    Cu3+1 0.500000 0.359340 0.500000 1.120680
F1    F     F_    0.156336 0.500656 0.941595 -0.441494
F2    F     F_    0.389466 0.859687 0.412944 -0.591862
F3    F     F_    0.831039 0.495223 0.058534 -0.440756
F4    F     F_    0.159224 0.482108 0.054698 -0.437090
F5    F     F_    0.828131 0.477707 0.945441 -0.437561
F6    F     F_    0.366278 0.685132 0.206147 -0.509799
F7    F     F_    0.619672 0.687744 0.795303 -0.508127
F8    F     F_    0.391027 0.142418 0.412294 -0.585524
F9    F     F_    0.608239 0.859024 0.587655 -0.585641
F10   F     F_    0.610675 0.141755 0.587262 -0.559451
H1    H     H_    0.589166 0.231166 0.169614 0.139231
H2    H     H_    0.191065 0.762402 0.444076 0.171039
H3    H     H_    0.395714 0.233154 0.829054 0.126673
H4    H     H_    0.659836 0.188290 0.323782 0.169969
H5    H     H_    0.288009 0.334009 0.629968 0.114124
H6    H     H_    0.292796 0.642708 0.364614 0.092412
H7    H     H_    0.703835 0.642846 0.638756 0.088075
H8    H     H_    0.197743 0.268266 0.428040 0.179036
H9    H     H_    0.800502 0.749621 0.562769 0.172708
H10   H     H_    0.812077 0.238496 0.554729 0.179487
N1    N     N_R   0.489774 0.487693 0.852403 -0.421072
N2    N     N_R   0.497729 0.486178 0.147737 -0.419501
N3    N     N_R   0.500000 0.852070 0.500000 -0.303523
N4    N     N_R   0.500000 0.147930 0.500000 -0.309436
O1    O     O_R   0.319640 0.618740 0.500000 -0.503602
O2    O     O_2   0.282516 0.450889 0.147078 -0.305940
O3    O     O_2   0.275245 0.530495 0.850544 -0.332185
O4    O     O_2   0.712321 0.525873 0.149566 -0.324267
O5    O     O_2   0.730515 0.222006 0.224564 -0.408260
O6    O     O_2   0.253294 0.237083 0.774430 -0.367579
O7    O     O_2   0.730751 0.345232 0.369089 -0.446552
O8    O     O_2   0.351309 0.169146 0.673413 -0.379193
O9    O     O_2   0.281611 0.776399 0.300602 -0.310055
O10   O     O_2   0.705329 0.781034 0.701411 -0.300244
O11   O     O_2   0.039663 0.167389 0.429509 -0.353769
O12   O     O_R   0.680360 0.381260 0.500000 -0.478869
O13   O     O_2   0.966132 0.831034 0.569429 -0.366684
O14   O     O_2   0.959628 0.132893 0.532575 -0.362119
O15   O     O_2   0.042583 0.868146 0.464665 -0.357356
O16   O     O_R   0.680360 0.618740 0.500000 -0.501963
O17   O     O_R   0.319640 0.381260 0.500000 -0.508063
O18   O     O_R   0.499960 0.618810 0.417880 -0.452832
O19   O     O_R   0.500040 0.381190 0.582120 -0.449912
O20   O     O_R   0.500040 0.618810 0.582120 -0.451097
O21   O     O_R   0.499960 0.381190 0.417880 -0.431266
O22   O     O_2   0.704945 0.449202 0.853069 -0.307153

loop_
_geom_bond_atom_site_label_1
_geom_bond_atom_site_label_2
_ccdc_geom_bond_type
C25   C31   A    
C15   N3    A    
C26   C32   A    
C23   C45   A    
C38   O7    D    
C27   C29   A    
C34   C37   S    
C1    O1    A    
C8    C43   S    
C19   O19   A    
C47   C49   A    
C41   O10   D    
C43   O13   D    
C41   H7    S    
Cu1   N3    S    
C22   O3    S    
C2    C41   S    
C15   C16   A    
Cu2   O21   S    
C42   H8    S    
Cu2   O19   S    
C7    C42   S    
C5    N2    S    
C38   C45   S    
C24   O4    S    
C38   H4    S    
C22   C25   A    
C37   H3    S    
C21   O2    S    
C10   C46   S    
C31   C33   A    
C18   O21   A    
C36   H1    S    
C32   F3    S    
Cu1   O20   S    
C33   F4    S    
C48   C50   A    
C14   C17   A    
C16   F10   S    
C3    C50   A    
C20   C29   A    
C12   O12   A    
Cu1   Cu2   S    
C32   C35   A    
Cu2   O12   S    
C4    C6    A    
C46   O15   D    
C3    C5    A    
C21   N2    A    
C6    C34   A    
C46   H2    S    
C14   N4    A    
C40   O9    D    
C2    C4    A    
Cu1   O1    S    
C2    C49   A    
Cu1   O16   S    
C19   C49   S    
C5    C23   A    
C36   O5    D    
C15   F9    S    
Cu2   O17   S    
C31   F1    S    
C9    C11   A    
C8    C10   A    
C18   O18   A    
C37   O6    D    
C1    C13   S    
C44   O14   D    
C6    N1    S    
C39   C47   S    
C45   C48   A    
C7    C9    A    
C9    C44   S    
C43   H9    S    
C30   C33   A    
C16   N4    A    
C39   H5    S    
C12   O16   A    
C24   C26   A    
Cu2   N4    S    
C10   C13   A    
C18   C48   S    
C39   O8    D    
C11   C12   S    
C42   O11   D    
C25   C27   A    
C14   F8    S    
C21   C30   A    
C29   C35   A    
C26   C28   A    
C35   F5    S    
C28   C30   A    
C24   N2    A    
C8    C11   A    
C40   C50   S    
C4    F7    S    
C20   N1    A    
C44   H10   S    
Cu1   O18   S    
C3    F6    S    
C7    C13   A    
C20   O22   S    
C1    O17   A    
C23   C36   S    
C40   H6    S    
C27   C28   A    
C17   N3    A    
C34   C47   A    
C22   N1    A    
C17   F2    S    
C19   O20   A    
