data_mof_unit_11294.cif
_audit_creation_date              2013-03-05T15:42:51-0500
_audit_creation_method            fapswitch 2.2
_symmetry_space_group_name_H-M    P1
_symmetry_Int_Tables_number       1
_space_group_crystal_system       triclinic
_cell_length_a                    27.954645
_cell_length_b                    17.269512
_cell_length_c                    18.067384
_cell_angle_alpha                 90.108009
_cell_angle_beta                  137.6671
_cell_angle_gamma                 89.943941
_cell_volume                      5873.88597369

loop_
_atom_site_label
_atom_site_type_symbol
_atom_site_description
_atom_site_fract_x
_atom_site_fract_y
_atom_site_fract_z
_atom_type_partial_charge
C1    C     C_R   0.667733 0.922095 0.816465 -0.159866
C2    C     C_R   0.313061 0.101099 0.197757 -0.142059
C3    C     C_R   0.333181 0.922517 0.183806 -0.158870
C4    C     C_R   0.686924 0.100808 0.802553 -0.142476
C5    C     C_R   0.167729 0.422097 0.816464 -0.159877
C6    C     C_R   0.813059 0.601099 0.197761 -0.142049
C7    C     C_R   0.833179 0.422515 0.183806 -0.158857
C8    C     C_R   0.186922 0.600810 0.802556 -0.142466
H1    H     H_    0.715506 0.955158 0.880443 0.134452
H2    H     H_    0.261893 0.073334 0.145012 0.122227
H3    H     H_    0.285673 0.955788 0.119658 0.135489
H4    H     H_    0.738046 0.073046 0.855038 0.121882
H5    H     H_    0.215502 0.455160 0.880443 0.134454
H6    H     H_    0.761892 0.573332 0.145017 0.122223
H7    H     H_    0.785671 0.455786 0.119657 0.135494
H8    H     H_    0.238045 0.573051 0.855043 0.121881
N1    N     N_R   0.625380 0.928280 0.709340 -0.070102
N2    N     N_R   0.374620 0.071720 0.290660 -0.063964
N3    N     N_R   0.374620 0.928280 0.290660 -0.070427
N4    N     N_R   0.625380 0.071720 0.709340 -0.064314
N5    N     N_R   0.125380 0.428280 0.709340 -0.070101
N6    N     N_R   0.874620 0.571720 0.290660 -0.063966
N7    N     N_R   0.874620 0.428280 0.290660 -0.070429
N8    N     N_R   0.125380 0.571720 0.709340 -0.064311
C9    C     C_R   0.360523 0.070694 0.492814 -0.093470
C10   C     C_R   0.674607 0.895776 0.594872 -0.128526
C11   C     C_R   0.639523 0.070604 0.507250 -0.093801
C12   C     C_R   0.325393 0.895722 0.405094 -0.129680
C13   C     C_R   0.860523 0.570696 0.492813 -0.093463
C14   C     C_R   0.174606 0.395775 0.594870 -0.128525
C15   C     C_R   0.139523 0.570603 0.507249 -0.093815
C16   C     C_R   0.825393 0.395722 0.405093 -0.129682
H9    H     H_    0.321220 0.030934 0.468722 0.107611
H10   H     H_    0.725754 0.923892 0.657230 0.104476
H11   H     H_    0.678798 0.030812 0.531249 0.107866
H12   H     H_    0.274229 0.923728 0.342758 0.104778
H13   H     H_    0.821220 0.530935 0.468723 0.107612
H14   H     H_    0.225754 0.423891 0.657228 0.104476
H15   H     H_    0.178797 0.530811 0.531249 0.107866
H16   H     H_    0.774229 0.423728 0.342757 0.104778
N9    N     N_R   0.386100 0.070250 0.452470 -0.053061
N10   N     N_R   0.613900 0.929750 0.547530 -0.050576
N11   N     N_R   0.613900 0.070250 0.547530 -0.053326
N12   N     N_R   0.386100 0.929750 0.452470 -0.050609
N13   N     N_R   0.886100 0.570250 0.452470 -0.053058
N14   N     N_R   0.113900 0.429750 0.547530 -0.050573
N15   N     N_R   0.113900 0.570250 0.547530 -0.053326
N16   N     N_R   0.886100 0.429750 0.452470 -0.050614
C17   C     C_R   0.407249 0.803211 0.492353 -0.024745
C18   C     C_R   0.557352 0.164697 0.420798 -0.040335
C19   C     C_R   0.592759 0.803187 0.507577 -0.024510
C20   C     C_R   0.442779 0.164732 0.579458 -0.049580
C21   C     C_R   0.907249 0.303211 0.492352 -0.024743
C22   C     C_R   0.057351 0.664696 0.420796 -0.040434
C23   C     C_R   0.092758 0.303187 0.507574 -0.024507
C24   C     C_R   0.942777 0.664736 0.579453 -0.049419
H17   H     H_    0.430038 0.747733 0.505789 0.170183
H18   H     H_    0.520969 0.210659 0.366365 0.136582
H19   H     H_    0.569950 0.747704 0.494008 0.170242
H20   H     H_    0.479344 0.210566 0.634186 0.142033
H21   H     H_    0.930038 0.247733 0.505787 0.170187
H22   H     H_    0.020966 0.710656 0.366361 0.136630
H23   H     H_    0.069949 0.247704 0.494004 0.170241
H24   H     H_    0.979338 0.710576 0.634174 0.141937
N17   N     N_R   0.437800 0.869550 0.507970 -0.061150
N18   N     N_R   0.562200 0.130450 0.492030 -0.043818
N19   N     N_R   0.562200 0.869550 0.492030 -0.061444
N20   N     N_R   0.437800 0.130450 0.507970 -0.044620
N21   N     N_R   0.937800 0.369550 0.507970 -0.061154
N22   N     N_R   0.062200 0.630450 0.492030 -0.043821
N23   N     N_R   0.062200 0.369550 0.492030 -0.061441
N24   N     N_R   0.937800 0.630450 0.507970 -0.044611
C25   C     C_R   0.604692 0.193493 0.713851 0.309479
C26   C     C_R   0.415825 0.829170 0.273414 0.337323
C27   C     C_R   0.395507 0.193496 0.286719 0.304324
C28   C     C_R   0.584757 0.829275 0.727062 0.338890
C29   C     C_R   0.104686 0.693492 0.713849 0.309384
C30   C     C_R   0.915823 0.329168 0.273413 0.337324
C31   C     C_R   0.895505 0.693497 0.286720 0.304397
C32   C     C_R   0.084753 0.329277 0.727060 0.338888
N25   N     N_R   0.573690 0.128980 0.653840 -0.101167
N26   N     N_R   0.426310 0.871020 0.346160 -0.101942
N27   N     N_R   0.426310 0.128980 0.346160 -0.099562
N28   N     N_R   0.573690 0.871020 0.653840 -0.102138
N29   N     N_R   0.073690 0.628980 0.653840 -0.101151
N30   N     N_R   0.926310 0.371020 0.346160 -0.101940
N31   N     N_R   0.926310 0.628980 0.346160 -0.099591
N32   N     N_R   0.073690 0.371020 0.653840 -0.102139
C33   C     C_R   0.643043 0.860644 0.829590 0.032613
C34   C     C_R   0.325484 0.176687 0.193929 0.009785
C35   C     C_R   0.358052 0.860960 0.170859 0.032382
C36   C     C_R   0.674623 0.176345 0.806505 0.014944
C37   C     C_R   0.143037 0.360647 0.829587 0.032623
C38   C     C_R   0.825482 0.676688 0.193938 0.009854
C39   C     C_R   0.858050 0.360957 0.170858 0.032362
C40   C     C_R   0.174617 0.676347 0.806509 0.014890
C41   C     C_R   0.397156 0.127281 0.575330 0.030290
C42   C     C_R   0.663180 0.816624 0.573099 0.032494
C43   C     C_R   0.603010 0.127177 0.424959 0.027552
C44   C     C_R   0.336841 0.816605 0.426876 0.031663
C45   C     C_R   0.897154 0.627285 0.575326 0.030256
C46   C     C_R   0.163180 0.316624 0.573096 0.032492
C47   C     C_R   0.103009 0.627176 0.424957 0.027578
C48   C     C_R   0.836841 0.316605 0.426875 0.031667
Ni1   Ni    Ni4+2 0.616560 0.000000 0.627280 0.218104
Ni2   Ni    Ni4+2 0.383440 0.000000 0.372720 0.217401
Ni3   Ni    Ni4+2 0.116560 0.500000 0.627280 0.218095
Ni4   Ni    Ni4+2 0.883440 0.500000 0.372720 0.217409
Ni5   Ni    Ni4+2 0.497990 0.870580 0.500000 0.290359
Ni6   Ni    Ni4+2 0.502010 0.129420 0.500000 0.337102
Ni7   Ni    Ni4+2 0.997990 0.370580 0.500000 0.290359
Ni8   Ni    Ni4+2 0.002010 0.629420 0.500000 0.337104
C49   C     C_3   0.713696 0.260032 0.959247 0.420306
C50   C     C_3   0.325880 0.787694 0.005870 0.429987
C51   C     C_3   0.286471 0.258620 0.040321 0.424951
C52   C     C_3   0.675015 0.788911 0.994806 0.430076
C53   C     C_3   0.213699 0.760030 0.959263 0.420390
C54   C     C_3   0.825888 0.287688 0.005880 0.429972
C55   C     C_3   0.786475 0.758614 0.040331 0.424887
C56   C     C_3   0.175010 0.288902 0.994799 0.430078
C57   C     C_3   0.288840 0.737449 0.067080 -0.247240
C58   C     C_3   0.749435 0.309457 0.895776 -0.222431
C59   C     C_3   0.711002 0.736450 0.932823 -0.249078
C60   C     C_3   0.251756 0.310278 0.104548 -0.223960
C61   C     C_3   0.788834 0.237450 0.067072 -0.247196
C62   C     C_3   0.249424 0.809461 0.895772 -0.222475
C63   C     C_3   0.211000 0.236454 0.932813 -0.249121
C64   C     C_3   0.751762 0.810283 0.104555 -0.223940
H25   H     H_    0.302679 0.708348 0.135722 0.198672
H26   H     H_    0.733487 0.336932 0.824598 0.203916
H27   H     H_    0.696582 0.706607 0.863953 0.199804
H28   H     H_    0.268284 0.338491 0.175953 0.198780
H29   H     H_    0.802666 0.208351 0.135709 0.198659
H30   H     H_    0.233465 0.836936 0.824586 0.203831
H31   H     H_    0.196581 0.206614 0.863942 0.199810
H32   H     H_    0.768290 0.838501 0.175960 0.198838
C65   C     C_3   0.312832 0.818560 0.068735 -0.040095
C66   C     C_3   0.726358 0.228629 0.896120 -0.044392
C67   C     C_3   0.688007 0.818263 0.931423 -0.044624
C68   C     C_3   0.273941 0.228759 0.104087 -0.042456
C69   C     C_3   0.812831 0.318559 0.068733 -0.040041
C70   C     C_3   0.226353 0.728631 0.896123 -0.044376
C71   C     C_3   0.188000 0.318263 0.931417 -0.044671
C72   C     C_3   0.773942 0.728760 0.104096 -0.042498
C73   C     C_3   0.736104 0.341143 0.960191 -0.222216
C74   C     C_3   0.302950 0.706169 0.004181 -0.202196
C75   C     C_3   0.264999 0.340395 0.039559 -0.212763
C76   C     C_3   0.697024 0.706709 0.996359 -0.202544
C77   C     C_3   0.236101 0.841142 0.960201 -0.222090
C78   C     C_3   0.802952 0.206166 0.004185 -0.202189
C79   C     C_3   0.765007 0.840393 0.039567 -0.212877
C80   C     C_3   0.197024 0.206704 0.996351 -0.202553
H33   H     H_    0.708225 0.395926 0.942004 0.191013
H34   H     H_    0.330701 0.651481 0.021583 0.181634
H35   H     H_    0.293308 0.394642 0.057338 0.191213
H36   H     H_    0.668847 0.652568 0.979366 0.181846
H37   H     H_    0.208222 0.895924 0.942019 0.191016
H38   H     H_    0.830703 0.151476 0.021593 0.181633
H39   H     H_    0.793319 0.894636 0.057345 0.191209
H40   H     H_    0.168850 0.152560 0.979356 0.181847
C81   C     C_R   0.716339 0.755713 0.620742 0.102033
C82   C     C_R   0.387839 0.147488 0.643166 0.104914
C83   C     C_R   0.283748 0.755629 0.379419 0.102607
C84   C     C_R   0.612473 0.147361 0.357369 0.105034
C85   C     C_R   0.216338 0.255712 0.620738 0.102036
C86   C     C_R   0.887838 0.647493 0.643163 0.104909
C87   C     C_R   0.783748 0.255628 0.379418 0.102604
C88   C     C_R   0.112472 0.647360 0.357368 0.105036
C89   C     C_R   0.394326 0.250716 0.741335 -0.176248
C90   C     C_R   0.738453 0.625853 0.600193 -0.166632
C91   C     C_R   0.605882 0.250406 0.259262 -0.175600
C92   C     C_R   0.261854 0.625868 0.400225 -0.167329
C93   C     C_R   0.894325 0.750719 0.741334 -0.176236
C94   C     C_R   0.238451 0.125852 0.600189 -0.166643
C95   C     C_R   0.105882 0.750407 0.259263 -0.175609
C96   C     C_R   0.761854 0.125868 0.400225 -0.167318
C97   C     C_R   0.423070 0.212316 0.713623 -0.091115
C98   C     C_R   0.694656 0.678139 0.586342 -0.112352
C99   C     C_R   0.577165 0.212023 0.286911 -0.090736
C100  C     C_R   0.305512 0.678130 0.413822 -0.112469
C101  C     C_R   0.923069 0.712321 0.713620 -0.091109
C102  C     C_R   0.194654 0.178139 0.586336 -0.112354
C103  C     C_R   0.077165 0.712023 0.286911 -0.090739
C104  C     C_R   0.805512 0.178130 0.413821 -0.112465
C105  C     C_R   0.334334 0.111406 0.623042 -0.205841
C106  C     C_R   0.787113 0.775825 0.687669 -0.211727
C107  C     C_R   0.666090 0.111400 0.377616 -0.205467
C108  C     C_R   0.213000 0.775633 0.312735 -0.211695
C109  C     C_R   0.834334 0.611409 0.623041 -0.205831
C110  C     C_R   0.287112 0.275824 0.687665 -0.211728
C111  C     C_R   0.166089 0.611400 0.377615 -0.205477
C112  C     C_R   0.713000 0.275633 0.312733 -0.211700
C113  C     C_R   0.303021 0.151549 0.645462 0.160147
C114  C     C_R   0.830008 0.724863 0.697122 0.158371
C115  C     C_R   0.697313 0.151491 0.355121 0.160477
C116  C     C_R   0.170221 0.724672 0.303443 0.158052
C117  C     C_R   0.803021 0.651551 0.645464 0.160141
C118  C     C_R   0.330007 0.224861 0.697120 0.158373
C119  C     C_R   0.197313 0.651491 0.355121 0.160482
C120  C     C_R   0.670221 0.224672 0.303442 0.158051
H41   H     H_    0.805988 0.834046 0.719530 0.123821
H42   H     H_    0.309735 0.058547 0.575348 0.125105
H43   H     H_    0.194068 0.833785 0.280901 0.123907
H44   H     H_    0.690781 0.058676 0.425351 0.124976
H45   H     H_    0.305987 0.334045 0.719527 0.123821
H46   H     H_    0.809735 0.558550 0.575347 0.125106
H47   H     H_    0.694067 0.333785 0.280900 0.123907
H48   H     H_    0.190780 0.558675 0.425349 0.124975
H49   H     H_    0.641817 0.658673 0.539661 0.155584
H50   H     H_    0.468366 0.238422 0.738619 0.177789
H51   H     H_    0.358322 0.658717 0.460315 0.155482
H52   H     H_    0.531785 0.238011 0.261800 0.176673
H53   H     H_    0.141815 0.158673 0.539654 0.155582
H54   H     H_    0.968364 0.738427 0.738614 0.177763
H55   H     H_    0.858322 0.158717 0.460313 0.155486
H56   H     H_    0.031785 0.738011 0.261800 0.176691
H57   H     H_    0.917435 0.805261 0.785279 0.154484
H58   H     H_    0.218079 0.068799 0.563459 0.149446
H59   H     H_    0.082685 0.804831 0.215292 0.154356
H60   H     H_    0.782302 0.068905 0.436952 0.149056
H61   H     H_    0.417435 0.305258 0.785280 0.154486
H62   H     H_    0.718082 0.568800 0.563465 0.149452
H63   H     H_    0.582684 0.304831 0.215291 0.154355
H64   H     H_    0.282301 0.568905 0.436953 0.149049
N33   N     N_R   0.580750 0.269159 0.666928 0.234337
O1    O     O_R   0.584422 0.290909 0.602372 -0.348522
O2    O     O_R   0.571570 0.321109 0.707701 -0.359567
N34   N     N_R   0.442555 0.752356 0.294401 0.208577
O3    O     O_R   0.459245 0.726855 0.248021 -0.368358
O4    O     O_R   0.444850 0.705538 0.353310 -0.415470
N35   N     N_R   0.421441 0.269240 0.333388 0.226066
O5    O     O_R   0.419708 0.323725 0.281904 -0.366440
O6    O     O_R   0.438576 0.286329 0.420742 -0.345151
N36   N     N_R   0.557263 0.752875 0.705774 0.208296
O7    O     O_R   0.540559 0.728265 0.752365 -0.368075
O8    O     O_R   0.554818 0.705315 0.647100 -0.415320
N37   N     N_R   0.080725 0.769158 0.666926 0.234218
O9    O     O_R   0.084131 0.790830 0.602030 -0.348477
O10   O     O_R   0.071715 0.821159 0.707879 -0.359638
N38   N     N_R   0.942550 0.252352 0.294401 0.208577
O11   O     O_R   0.959242 0.226848 0.248024 -0.368368
O12   O     O_R   0.944847 0.205538 0.353314 -0.415467
N39   N     N_R   0.921423 0.769240 0.333398 0.226160
O13   O     O_R   0.919820 0.823690 0.282023 -0.366377
O14   O     O_R   0.938272 0.786399 0.420487 -0.345162
N40   N     N_R   0.057260 0.252876 0.705771 0.208297
O15   O     O_R   0.040553 0.228266 0.752358 -0.368066
O16   O     O_R   0.054818 0.205317 0.647099 -0.415318
N41   N     N_R   0.651798 0.243047 0.934147 0.235827
O17   O     O_R   0.612993 0.299099 0.915782 -0.383506
O18   O     O_R   0.637266 0.171910 0.935549 -0.397034
N42   N     N_R   0.387877 0.804219 0.031265 0.262323
O19   O     O_R   0.435826 0.853157 0.108543 -0.339516
O20   O     O_R   0.393833 0.772420 0.973093 -0.340588
N43   N     N_R   0.347950 0.240150 0.064814 0.236156
O21   O     O_R   0.387150 0.295305 0.082644 -0.384647
O22   O     O_R   0.361712 0.168536 0.063442 -0.396408
N44   N     N_R   0.613402 0.806880 0.969951 0.262228
O23   O     O_R   0.565818 0.855900 0.892721 -0.339876
O24   O     O_R   0.607451 0.776297 0.028553 -0.341011
N45   N     N_R   0.151808 0.743039 0.934178 0.235836
O25   O     O_R   0.113005 0.799087 0.915826 -0.383504
O26   O     O_R   0.137279 0.671899 0.935580 -0.397026
N46   N     N_R   0.887890 0.304209 0.031289 0.262325
O27   O     O_R   0.935837 0.353149 0.108565 -0.339524
O28   O     O_R   0.893854 0.272406 0.973128 -0.340569
N47   N     N_R   0.847954 0.740137 0.064826 0.236152
O29   O     O_R   0.887157 0.795288 0.082657 -0.384651
O30   O     O_R   0.861712 0.668520 0.063455 -0.396408
N48   N     N_R   0.113397 0.306864 0.969947 0.262231
O31   O     O_R   0.065812 0.355885 0.892721 -0.339867
O32   O     O_R   0.107448 0.276273 0.028547 -0.341026

loop_
_geom_bond_atom_site_label_1
_geom_bond_atom_site_label_2
_geom_bond_distance
_ccdc_geom_bond_type
C52   N44   1.456179 S    
C97   H50   1.079537 S    
C93   C114  1.395343 A    
N24   Ni8   1.903954 S    
C51   C75   1.530059 S    
C2    N2    1.329323 A    
N47   O30   1.300462 A    
C70   C74   1.538671 S    
C53   N45   1.458110 S    
C8    C40   1.363890 A    
C106  C114  1.391856 A    
N16   N21   1.425976 A    
C72   C76   1.538850 S    
C84   C107  1.397996 A    
C36   C66   1.436441 S    
N25   Ni6   1.872530 S    
C28   N28   1.328018 A    
N34   O4    1.301071 A    
C11   C43   1.402393 A    
C17   H17   1.074109 S    
C66   C78   1.538668 S    
C71   C75   1.541948 S    
C87   C112  1.399862 A    
C86   C101  1.409613 A    
C23   C46   1.372941 A    
N2    N27   1.388558 A    
N41   O17   1.300318 A    
C91   C120  1.395250 A    
C88   C111  1.397992 A    
C17   N17   1.328871 A    
C11   H11   1.077705 S    
C90   C98   1.386604 A    
C85   C102  1.410618 A    
C95   C103  1.388724 A    
C111  C119  1.390366 A    
C24   C45   1.382478 A    
N4    Ni1   1.801719 S    
C107  C115  1.390364 A    
C64   H32   1.109979 S    
N11   Ni1   1.844306 S    
N45   O25   1.300318 A    
C50   C62   1.543270 S    
C62   C77   1.559256 S    
C7    N7    1.331142 A    
C80   H40   1.109817 S    
C58   C73   1.559256 S    
C114  C117  1.414056 A    
C49   C61   1.520044 S    
C21   C48   1.372788 A    
C49   C73   1.529895 S    
N39   O13   1.299816 A    
C6    N6    1.329315 A    
C108  C116  1.391950 A    
C59   C67   1.544148 S    
C20   C41   1.382475 A    
C79   H39   1.109748 S    
C49   N41   1.458110 S    
C110  C118  1.391856 A    
C60   H28   1.109981 S    
C92   C119  1.393225 A    
C3    C35   1.380682 A    
C54   C58   1.543271 S    
C50   C65   1.522213 S    
C57   C65   1.544300 S    
C54   C78   1.538399 S    
C53   C57   1.520042 S    
C82   C97   1.409613 A    
C26   N34   1.429295 S    
C91   H63   1.083962 S    
C20   H20   1.073949 S    
C27   C34   1.368906 A    
C8    N8    1.327861 A    
C35   C65   1.444577 S    
N32   Ni7   1.872819 S    
C21   H21   1.074106 S    
N19   Ni5   1.903952 S    
C89   H61   1.083963 S    
C61   C69   1.544298 S    
N46   O27   1.300434 A    
C6    C38   1.366042 A    
N7    N30   1.389237 A    
C23   H23   1.074207 S    
C95   C116  1.395252 A    
C112  C120  1.391948 A    
C102  H53   1.078962 S    
C1    C33   1.379540 A    
C16   C48   1.392496 A    
C3    N3    1.331139 A    
C101  H54   1.079536 S    
C94   H58   1.084122 S    
C31   N39   1.428798 S    
C4    H4    1.080807 S    
N3    N26   1.389237 A    
C93   H57   1.083961 S    
N8    N29   1.389234 A    
C68   C80   1.538855 S    
C5    H5    1.078116 S    
C20   N20   1.330253 A    
N13   Ni4   1.840825 S    
C69   C73   1.542977 S    
C28   C33   1.383915 A    
C52   C67   1.522402 S    
C73   H33   1.109746 S    
N43   O22   1.300460 A    
C12   C44   1.392497 A    
C109  H46   1.082069 S    
C7    H7    1.078179 S    
C51   C63   1.520029 S    
C29   N29   1.332617 A    
C47   C88   1.470415 S    
C8    H8    1.080807 S    
C90   H62   1.084123 S    
C31   N31   1.331010 A    
N13   N24   1.425281 A    
C29   N37   1.427508 S    
C55   C72   1.521572 S    
C16   N16   1.345496 A    
C65   C77   1.542975 S    
N12   N17   1.425976 A    
C1    N1    1.331082 A    
C56   C71   1.522396 S    
N36   O8    1.301061 A    
C26   N26   1.327772 A    
C116  C119  1.414088 A    
C62   H30   1.109908 S    
C89   C97   1.388759 A    
N34   O3    1.300035 A    
C40   C70   1.436438 S    
C10   H10   1.080312 S    
N33   O1    1.300286 A    
N9    N20   1.425281 A    
C52   C76   1.538657 S    
C55   C79   1.530057 S    
C60   C75   1.559347 S    
N40   O16   1.301061 A    
C56   C80   1.538657 S    
C105  H42   1.082070 S    
N41   O18   1.300464 A    
N9    Ni2   1.840825 S    
C18   H18   1.074308 S    
N26   Ni5   1.872531 S    
C22   C47   1.382507 A    
C1    H1    1.078115 S    
C58   C66   1.540252 S    
C31   C38   1.368895 A    
C28   N36   1.429155 S    
N20   Ni6   1.903954 S    
C50   C74   1.538398 S    
C9    N9    1.346502 A    
N45   O26   1.300466 A    
C104  H55   1.078925 S    
C19   N19   1.329153 A    
N31   Ni8   1.872820 S    
C22   H22   1.074307 S    
C54   N46   1.456152 S    
C33   C67   1.443884 S    
C21   N21   1.328872 A    
N6    N31   1.388558 A    
C54   C69   1.522218 S    
C59   H27   1.110306 S    
C107  H44   1.082072 S    
C62   C70   1.540247 S    
C106  H41   1.081883 S    
C13   N13   1.346502 A    
C83   C108  1.399862 A    
C29   C40   1.368946 A    
C15   C47   1.402394 A    
C26   C35   1.385888 A    
C100  H51   1.078925 S    
N44   O24   1.300118 A    
C74   H34   1.109816 S    
N2    Ni2   1.805224 S    
N15   N22   1.425975 A    
C81   C106  1.399936 A    
C92   H64   1.084124 S    
N1    Ni1   1.805228 S    
C63   C80   1.549217 S    
C6    H6    1.080896 S    
C41   C82   1.470353 S    
C64   C72   1.540272 S    
C76   H36   1.109819 S    
C110  H45   1.081885 S    
C5    C37   1.379551 A    
C87   C104  1.410720 A    
C22   N22   1.330152 A    
N46   O28   1.300120 A    
C105  C113  1.390304 A    
C30   C39   1.385889 A    
C88   C103  1.409691 A    
C50   N42   1.456153 S    
N14   Ni3   1.840826 S    
C14   C46   1.392212 A    
N38   O12   1.301070 A    
C85   C110  1.399935 A    
C18   C43   1.382506 A    
N27   Ni6   1.872820 S    
C13   C45   1.401968 A    
N35   O6    1.299309 A    
N8    Ni3   1.801719 S    
C63   C71   1.544153 S    
C55   N47   1.458161 S    
N18   Ni6   1.791773 S    
C27   N35   1.428817 S    
C18   N18   1.330154 A    
C51   N43   1.458163 S    
N17   Ni5   1.791774 S    
N14   N23   1.425280 A    
N5    Ni3   1.805228 S    
C84   C99   1.409691 A    
N22   Ni8   1.791773 S    
C25   N25   1.332653 A    
C94   C102  1.386602 A    
C64   C79   1.559348 S    
C9    C41   1.401964 A    
N35   O5    1.299811 A    
C10   C42   1.392209 A    
C39   C69   1.444581 S    
C46   C85   1.471364 S    
N15   Ni3   1.844306 S    
N37   O10   1.299996 A    
C52   C64   1.542735 S    
N10   N19   1.425280 A    
C98   H49   1.078960 S    
C112  H47   1.081917 S    
C32   N40   1.429157 S    
C19   H19   1.074206 S    
N36   O7    1.300054 A    
C13   H13   1.077677 S    
N43   O21   1.300323 A    
C2    H2    1.080897 S    
N29   Ni8   1.872530 S    
C27   N27   1.331003 A    
C42   C81   1.471365 S    
C75   H35   1.109750 S    
C10   N10   1.345226 A    
N42   O20   1.300118 A    
C115  C120  1.414089 A    
C109  C117  1.390306 A    
C103  H56   1.079479 S    
C96   C104  1.386535 A    
N40   O15   1.300054 A    
C30   N38   1.429297 S    
C78   H38   1.109818 S    
C86   C109  1.398061 A    
C24   N24   1.330253 A    
C57   C74   1.548818 S    
C95   H59   1.083961 S    
C60   C68   1.540273 S    
C25   C36   1.368937 A    
C57   H25   1.110353 S    
N12   Ni2   1.844307 S    
C37   C71   1.443874 S    
C82   C105  1.398062 A    
C53   C77   1.529895 S    
N47   O29   1.300322 A    
C55   C59   1.520033 S    
C7    C39   1.380686 A    
C108  H43   1.081916 S    
C61   H29   1.110354 S    
N28   Ni5   1.872819 S    
C14   N14   1.345227 A    
N1    N28   1.388556 A    
N23   Ni7   1.903952 S    
C91   C99   1.388727 A    
N30   Ni7   1.872531 S    
C81   C98   1.410617 A    
C38   C72   1.436862 S    
C32   N32   1.328012 A    
C48   C87   1.471414 S    
C25   N33   1.427492 S    
N21   Ni7   1.791774 S    
C92   C100  1.386538 A    
C24   H24   1.073966 S    
N16   Ni4   1.844307 S    
C56   N48   1.456180 S    
C19   C42   1.372938 A    
N11   N18   1.425975 A    
N6    Ni4   1.805224 S    
N7    Ni4   1.801718 S    
C99   H52   1.079479 S    
C67   C79   1.541959 S    
N38   O11   1.300033 A    
N33   O2    1.299997 A    
C56   C60   1.542728 S    
C12   N12   1.345496 A    
C53   C70   1.521308 S    
C44   C83   1.471414 S    
N48   O32   1.300118 A    
C111  H48   1.082073 S    
C16   H16   1.080333 S    
C96   C115  1.393224 A    
C45   C86   1.470351 S    
C63   H31   1.110305 S    
N10   Ni1   1.840826 S    
C23   N23   1.329152 A    
N5    N32   1.388556 A    
C3    H3    1.078178 S    
C61   C78   1.548819 S    
C93   C101  1.388760 A    
C43   C84   1.470412 S    
C4    N4    1.327853 A    
N3    Ni2   1.801718 S    
C11   N11   1.346647 A    
C5    N5    1.331081 A    
C59   C76   1.549217 S    
C12   H12   1.080334 S    
C94   C113  1.393327 A    
C2    C34   1.366062 A    
C30   N30   1.327771 A    
C96   H60   1.084126 S    
N44   O23   1.300431 A    
C83   C100  1.410720 A    
C15   H15   1.077705 S    
C49   C66   1.521314 S    
N42   O19   1.300434 A    
C15   N15   1.346647 A    
C34   C68   1.436868 S    
N39   O14   1.299317 A    
C14   H14   1.080311 S    
C4    C36   1.363858 A    
C32   C37   1.383906 A    
N37   O9    1.300266 A    
C51   C68   1.521571 S    
C77   H37   1.109745 S    
C58   H26   1.109904 S    
C90   C117  1.393325 A    
N48   O31   1.300431 A    
C113  C118  1.414056 A    
C9    H9    1.077676 S    
C89   C118  1.395342 A    
C17   C44   1.372788 A    
N4    N25   1.389234 A    
