data_mof_unit_24562.cif
_audit_creation_date              2012-12-11T15:48:51-0500
_audit_creation_method            fapswitch 2.2
_symmetry_space_group_name_H-M    P1
_symmetry_Int_Tables_number       1
_space_group_crystal_system       triclinic
_cell_length_a                    10.948764
_cell_length_b                    10.975799
_cell_length_c                    18.836503
_cell_angle_alpha                 90.395847
_cell_angle_beta                  90.208774
_cell_angle_gamma                 60.266507
_cell_volume                      1965.53968797

loop_
_atom_site_label
_atom_site_type_symbol
_atom_type_description
_atom_site_fract_x
_atom_site_fract_y
_atom_site_fract_z
_atom_type_partial_charge
C1    C     C_R   0.239931 0.645353 0.610447 0.541251
C2    C     C_R   0.579234 0.139584 0.709536 -0.180866
C3    C     C_R   0.575897 0.145017 0.782599 -0.170532
C4    C     C_R   0.653543 0.621665 0.601171 0.537711
C5    C     C_3   0.933738 0.097439 0.786342 -0.274069
C6    C     C_3   0.928730 0.105380 0.705930 -0.279279
C7    C     C_R   0.674283 0.164577 0.672209 0.016193
C8    C     C_R   0.179850 0.668240 0.834884 0.013920
C9    C     C_R   0.154576 0.576001 0.794105 0.019051
C10   C     C_R   0.163641 0.573211 0.720439 -0.004261
C11   C     C_R   0.211682 0.764242 0.725598 -0.171948
C12   C     C_3   0.674436 0.548629 0.799949 -0.252169
C13   C     C_R   0.211141 0.761177 0.799399 -0.179012
C14   C     C_3   0.229342 0.419868 0.797875 -0.283591
C15   C     C_3   0.236998 0.417485 0.717544 -0.270918
C16   C     C_R   0.630162 0.225860 0.601936 0.537577
C17   C     C_R   0.194910 0.665407 0.684734 0.012767
C18   C     C_R   0.679927 0.687116 0.176368 0.014853
C19   C     C_R   0.787607 0.575630 0.212866 0.030830
C20   C     C_R   0.786289 0.565565 0.285048 0.018567
C21   C     C_R   0.578453 0.792494 0.291342 -0.169360
C22   C     C_R   0.580604 0.802091 0.216716 -0.160098
C23   C     C_3   0.698213 0.673724 0.812383 0.051296
C24   C     C_3   0.850914 0.421849 0.200713 -0.279830
C25   C     C_3   0.849123 0.409440 0.280458 -0.254702
C26   C     C_R   0.673670 0.666411 0.325043 0.012728
C27   C     C_R   0.656751 0.168360 0.173525 0.001957
C28   C     C_R   0.220433 0.650165 0.402071 0.549569
C29   C     C_R   0.525771 0.237378 0.205967 0.003534
C30   C     C_R   0.517869 0.245196 0.278494 0.027947
C31   C     C_R   0.770108 0.138339 0.288874 -0.063910
C32   C     C_R   0.778506 0.130532 0.215147 -0.168882
C33   C     C_3   0.398379 0.221309 0.199620 -0.272758
C34   C     C_3   0.669761 0.647468 0.676554 0.056053
C35   C     C_3   0.393604 0.223546 0.280066 -0.258245
C36   C     C_R   0.638269 0.189221 0.321302 0.008055
C37   C     C_R   0.126388 0.682650 0.186790 0.015155
C38   C     C_R   0.151768 0.779358 0.221113 0.028278
C39   C     C_R   0.166143 0.777261 0.292429 0.059797
C40   C     C_R   0.644883 0.624762 0.393661 0.534384
C41   C     C_R   0.109465 0.591761 0.301374 -0.167472
C42   C     C_R   0.095429 0.593829 0.227314 -0.161965
C43   C     C_3   0.265245 0.812937 0.206955 -0.287589
C44   C     C_3   0.284990 0.807415 0.286228 -0.244145
C45   C     C_3   0.812917 0.638010 0.690291 -0.248485
C46   C     C_R   0.154988 0.678004 0.333448 0.025379
C47   C     C_R   0.702152 0.099706 0.895214 0.541601
C48   C     C_R   0.723017 0.688001 0.888316 0.543588
C49   C     C_R   0.118649 0.705905 0.905894 0.537614
C50   C     C_R   0.676046 0.107462 0.103668 0.555179
C51   C     C_R   0.701550 0.694853 0.100598 0.547963
C52   C     C_R   0.616186 0.229819 0.394928 0.548117
C53   C     C_R   0.089081 0.711157 0.113551 0.548744
C54   C     C_3   0.568975 0.807897 0.782968 -0.233543
C55   C     C_3   0.552521 0.792757 0.702890 -0.237170
C56   C     C_3   0.661366 0.531176 0.719835 -0.213116
C57   C     C_3   0.830848 0.649753 0.770491 -0.216690
C58   C     C_1   0.896711 0.093739 0.330110 0.196951
C59   C     C_R   0.682431 0.151398 0.822178 0.016908
C60   C     C_R   0.777976 0.176088 0.784999 -0.007332
C61   C     C_R   0.772014 0.185562 0.711075 0.012220
Cr1   Cr    Cr6+3 0.392960 0.397920 0.502240 1.007788
Cr2   Cr    Cr6+3 0.398340 0.708480 0.501250 1.014684
Cr3   Cr    Cr6+3 0.708670 0.393570 0.496460 1.028790
Cr4   Cr    Cr6+3 0.937650 0.938540 0.007610 1.005604
Cr5   Cr    Cr6+3 0.625330 0.937370 0.994520 1.001402
Cr6   Cr    Cr6+3 0.937940 0.625230 0.001190 1.006300
H1    H     H_    0.584066 0.899083 0.791987 0.143406
H2    H     H_    0.967452 0.002174 0.679152 0.148004
H3    H     H_    0.230398 0.841897 0.700808 0.132996
H4    H     H_    0.471446 0.828256 0.811210 0.115835
H5    H     H_    0.225564 0.838655 0.828455 0.128893
H6    H     H_    0.161471 0.379555 0.818829 0.132125
H7    H     H_    0.332869 0.377924 0.824612 0.143249
H8    H     H_    0.344899 0.374248 0.696733 0.178691
H9    H     H_    0.172209 0.377562 0.691702 0.125176
H10   H     H_    0.495009 0.876761 0.321376 0.118797
H11   H     H_    0.501426 0.894951 0.190631 0.124639
H12   H     H_    0.749530 0.427815 0.703383 0.147860
H13   H     H_    0.958901 0.373561 0.178364 0.136978
H14   H     H_    0.778296 0.394087 0.172778 0.141349
H15   H     H_    0.774036 0.376080 0.298307 0.172977
H16   H     H_    0.447691 0.804535 0.692797 0.138441
H17   H     H_    0.955940 0.352348 0.304362 0.145631
H18   H     H_    0.882192 0.083084 0.191276 0.154122
H19   H     H_    0.418909 0.120329 0.176306 0.153257
H20   H     H_    0.308657 0.314953 0.175240 0.134206
H21   H     H_    0.299005 0.314840 0.302300 0.150063
H22   H     H_    0.418824 0.121077 0.303454 0.132575
H23   H     H_    0.923044 0.550515 0.788393 0.143490
H24   H     H_    0.093681 0.518154 0.332489 0.122776
H25   H     H_    0.063673 0.525308 0.201992 0.135815
H26   H     H_    0.223759 0.920013 0.184896 0.141845
H27   H     H_    0.557761 0.877668 0.673584 0.113841
H28   H     H_    0.356088 0.727620 0.177949 0.136628
H29   H     H_    0.385917 0.715914 0.303104 0.158789
H30   H     H_    0.259812 0.910150 0.310027 0.161493
H31   H     H_    0.852474 0.737251 0.781105 0.126391
H32   H     H_    0.818739 0.723726 0.662024 0.117527
H33   H     H_    0.763737 0.450808 0.821760 0.131107
H34   H     H_    0.900449 0.536601 0.670226 0.132432
H35   H     H_    0.576968 0.566642 0.827444 0.119246
H36   H     H_    0.561038 0.531878 0.708583 0.126306
H37   H     H_    0.498553 0.127231 0.682410 0.129391
H38   H     H_    0.493782 0.132731 0.807517 0.137489
H39   H     H_    0.973084 0.990508 0.807193 0.174387
H40   H     H_    0.978292 0.158800 0.811469 0.126871
H41   H     H_    0.971753 0.170490 0.684433 0.133643
N1    N     N_1   0.996431 0.060646 0.364078 -0.311952
O1    O     O_R   0.507380 0.255700 0.581440 -0.535999
O2    O     O_R   0.837170 0.593410 0.915250 -0.527676
O3    O     O_R   0.065200 0.635530 0.931570 -0.500291
O4    O     O_R   0.280320 0.527350 0.578930 -0.504276
O5    O     O_R   0.068260 0.828890 0.091840 -0.520882
O6    O     O_R   0.798870 0.057410 0.079340 -0.513594
O7    O     O_R   0.584930 0.080350 0.076780 -0.522496
O8    O     O_R   0.626960 0.809650 0.067060 -0.507654
O9    O     O_R   0.816040 0.596610 0.076510 -0.519745
O10   O     O_R   0.045610 0.638500 0.081060 -0.512660
O11   O     O_3   0.833640 0.833710 0.001100 -0.250739
O12   O     O_R   0.524480 0.695810 0.424040 -0.512618
O13   O     O_R   0.260510 0.739590 0.584590 -0.529272
O14   O     O_R   0.532300 0.695080 0.573820 -0.510736
O15   O     O_R   0.744840 0.503500 0.576370 -0.528463
O16   O     O_R   0.699120 0.276560 0.571960 -0.497378
O17   O     O_R   0.498940 0.256500 0.419860 -0.520866
O18   O     O_R   0.272500 0.528080 0.429150 -0.509255
O19   O     O_R   0.252060 0.740380 0.423010 -0.503346
O20   O     O_R   0.736390 0.504290 0.414790 -0.517582
O21   O     O_R   0.691300 0.277290 0.422170 -0.494385
O22   O     O_3   0.499990 0.499990 0.499980 -0.255794
O23   O     O_R   0.089400 0.825690 0.930570 -0.531757
O24   O     O_R   0.818460 0.054440 0.929850 -0.500867
O25   O     O_R   0.606060 0.077150 0.915510 -0.536466
O26   O     O_R   0.646550 0.806680 0.917570 -0.510357

loop_
_geom_bond_atom_site_label_1
_geom_bond_atom_site_label_2
_ccdc_geom_bond_type
C6    H2    S    
C15   H8    S    
C21   C26   A    
C34   C56   S    
C8    C13   A    
C27   C29   A    
C58   N1    T    
C41   C42   A    
C48   O26   A    
C2    C7    A    
C9    C14   S    
Cr4   O23   S    
C11   H3    S    
C16   O1    A    
C3    H38   S    
Cr6   O11   S    
C40   O12   A    
C12   C23   S    
C45   C57   S    
C29   C30   A    
C56   H12   S    
Cr5   O7    S    
C30   C35   S    
C14   H7    S    
C6    C61   S    
C18   C19   A    
C10   C15   S    
C31   C36   A    
C5    C6    S    
C54   H1    S    
C20   C25   S    
C57   H31   S    
C10   C17   A    
C29   C33   S    
C51   O9    A    
C4    O15   A    
C50   O6    A    
Cr4   O5    S    
C37   C42   A    
C1    O13   A    
C7    C61   A    
C43   H26   S    
Cr5   O25   S    
C24   H13   S    
C54   H4    S    
C19   C20   A    
C8    C9    A    
Cr5   O8    S    
C25   H17   S    
C43   H28   S    
C41   C46   A    
Cr3   O22   S    
Cr2   O22   S    
C16   O16   A    
C42   H25   S    
Cr2   O19   S    
C36   C52   S    
C27   C50   S    
C37   C53   S    
C15   H9    S    
C34   C55   S    
Cr5   O11   S    
C21   C22   A    
C47   O24   A    
Cr4   O6    S    
C1    O4    A    
C55   H27   S    
C9    C10   A    
Cr2   O12   S    
C18   C51   S    
C5    H39   S    
C49   O23   A    
C4    C34   S    
C57   H23   S    
C14   H6    S    
C24   C25   S    
C22   H11   S    
Cr1   O4    S    
C45   H32   S    
Cr1   O17   S    
C52   O17   A    
Cr3   O15   S    
C4    O14   A    
C60   C61   A    
C35   H21   S    
C43   C44   S    
C12   H35   S    
C37   C38   A    
C44   H29   S    
C44   H30   S    
Cr6   O3    S    
C31   C32   A    
Cr1   O1    S    
C24   H14   S    
C2    H37   S    
C28   C46   S    
C34   C45   S    
C28   O18   A    
C12   C56   S    
C45   H34   S    
C39   C46   A    
C35   H22   S    
Cr6   O2    S    
C7    C16   S    
C41   H24   S    
Cr3   O21   S    
C49   O3    A    
C47   O25   A    
C25   H15   S    
C51   O8    A    
C55   H16   S    
Cr2   O13   S    
C53   O5    A    
C31   C58   S    
C23   C54   S    
C5    H40   S    
C23   C57   S    
C54   C55   S    
C11   C17   A    
C23   C48   S    
C5    C60   S    
C27   C32   A    
C18   C22   A    
Cr1   O22   S    
C56   H36   S    
Cr2   O14   S    
C53   O10   A    
C39   C44   S    
C13   H5    S    
C40   O20   A    
C1    C17   S    
C30   C36   A    
C52   O21   A    
C2    C3    A    
C33   H20   S    
C38   C43   S    
C11   C13   A    
C26   C40   S    
C38   C39   A    
C20   C26   A    
C32   H18   S    
C33   C35   S    
Cr4   O11   S    
C19   C24   S    
C50   O7    A    
Cr6   O9    S    
C12   H33   S    
C47   C59   S    
Cr5   O26   S    
Cr1   O18   S    
C59   C60   A    
C48   O2    A    
Cr3   O20   S    
Cr3   O16   S    
C21   H10   S    
C6    H41   S    
C14   C15   S    
Cr6   O10   S    
C8    C49   S    
C33   H19   S    
Cr4   O24   S    
C28   O19   A    
C3    C59   A    
