data_mof_unit_33447.cif
_audit_creation_date              2012-12-11T15:49:55-0500
_audit_creation_method            fapswitch 2.2
_symmetry_space_group_name_H-M    P1
_symmetry_Int_Tables_number       1
_space_group_crystal_system       triclinic
_cell_length_a                    8.239326
_cell_length_b                    19.080192
_cell_length_c                    26.910808
_cell_angle_alpha                 95.390543
_cell_angle_beta                  93.271397
_cell_angle_gamma                 85.474679
_cell_volume                      4193.49402933

loop_
_atom_site_label
_atom_site_type_symbol
_atom_type_description
_atom_site_fract_x
_atom_site_fract_y
_atom_site_fract_z
_atom_type_partial_charge
Ba1   Ba    Ba6+2 0.854000 0.466860 0.523710 1.684924
Ba2   Ba    Ba6+2 0.335820 0.533080 0.476290 1.694121
Br1   Br    Br    0.312054 0.214457 0.341381 -0.352044
Br2   Br    Br    0.934506 0.781380 0.612846 -0.608942
Br3   Br    Br    0.820825 0.250995 0.310181 -0.377167
Br4   Br    Br    0.642492 0.591632 0.940509 -0.626911
Br5   Br    Br    0.602263 0.088837 0.397970 -0.492099
C1    C     C_3   0.681526 0.206964 0.651207 -0.356241
C2    C     C_R   0.866244 0.555500 0.173840 0.581927
C3    C     C_2   0.730527 0.519786 0.270016 -0.077171
C4    C     C_3   0.140872 0.319389 0.660564 0.328386
C5    C     C_3   0.691432 0.516397 0.324064 -0.061288
C6    C     C_1   0.979288 0.488646 0.343072 0.034595
C7    C     C_2   0.016248 0.487306 0.295391 -0.091014
C8    C     C_2   0.885624 0.504035 0.255547 0.195374
C9    C     C_R   0.995572 0.494434 0.101071 -0.086232
C10   C     C_R   0.054110 0.439616 0.130404 -0.038527
C11   C     C_R   0.147606 0.381655 0.107855 -0.047539
C12   C     C_3   0.653644 0.281038 0.634485 0.321639
C13   C     C_R   0.897513 0.551780 0.122414 -0.032339
C14   C     C_2   0.842562 0.522011 0.358238 -0.290878
C15   C     C_2   0.345609 0.476599 0.641180 -0.280855
C16   C     C_3   0.131626 0.302613 0.714731 -0.182858
C17   C     C_R   0.215922 0.446758 0.983426 0.021764
C18   C     C_R   0.976021 0.528373 0.965655 -0.013523
C19   C     C_R   0.116199 0.485985 0.949203 0.022316
C20   C     C_R   0.373509 0.417894 0.968572 0.058157
C21   C     C_R   0.413872 0.419745 0.918581 -0.021944
C22   C     C_R   0.307600 0.452005 0.883391 -0.022286
C23   C     C_3   0.508468 0.632520 0.628145 0.300725
C24   C     C_R   0.156603 0.482783 0.898297 -0.080652
C25   C     C_R   0.045976 0.510307 0.862267 -0.075122
C26   C     C_R   0.083900 0.501854 0.811131 0.604358
C27   C     C_R   0.354484 0.457743 0.834229 0.609706
C28   C     C_3   0.192541 0.317774 0.417092 0.303295
C29   C     C_2   0.425035 0.445476 0.725996 -0.116166
C30   C     C_3   0.486126 0.467392 0.678514 -0.022006
C31   C     C_1   0.215597 0.514837 0.657552 0.003982
C32   C     C_2   0.185837 0.523446 0.706429 -0.070919
C33   C     C_2   0.287126 0.480895 0.744154 0.181450
C34   C     C_3   0.459409 0.656649 0.681125 -0.365542
C35   C     C_R   0.152438 0.439800 0.030854 0.016632
C36   C     C_R   0.035032 0.491690 0.050032 0.050901
C37   C     C_R   0.955663 0.540152 0.018291 0.026011
C38   C     C_R   0.194206 0.381450 0.058704 -0.126201
C39   C     C_R   0.835748 0.604770 0.091934 -0.063090
C40   C     C_3   0.203180 0.238270 0.403489 0.172551
C41   C     C_R   0.862352 0.554357 0.928461 0.229744
C42   C     C_R   0.897272 0.543823 0.877819 -0.014734
C43   C     C_R   0.863348 0.598774 0.040780 -0.063092
C44   C     C_R   0.398577 0.299122 0.522301 -0.312262
C45   C     C_3   0.027050 0.685141 0.339909 0.295162
C46   C     C_R   0.539775 0.277036 0.497527 0.055836
C47   C     C_R   0.593758 0.205209 0.493086 -0.065913
C48   C     C_R   0.501295 0.154448 0.510840 0.004981
C49   C     C_R   0.355528 0.177864 0.534622 -0.136410
C50   C     C_R   0.304104 0.250048 0.539788 0.010788
C51   C     C_R   0.553263 0.036870 0.545521 -0.116769
C52   C     C_3   0.934704 0.684604 0.629249 0.551449
C53   C     C_R   0.603193 0.964756 0.541347 -0.054669
C54   C     C_R   0.657496 0.930870 0.496018 0.012511
C55   C     C_R   0.659942 0.970816 0.454920 -0.083836
C56   C     C_3   0.052542 0.697707 0.285584 -0.163205
C57   C     C_R   0.608566 0.042979 0.458562 0.273873
C58   C     C_R   0.555565 0.077421 0.504525 0.021153
C59   C     C_R   0.849436 0.827212 0.466289 -0.109637
C60   C     C_R   0.897738 0.754696 0.463439 0.044135
C61   C     C_R   0.663926 0.733893 0.509081 0.035751
C62   C     C_R   0.615474 0.806108 0.512630 -0.074818
C63   C     C_R   0.707776 0.853759 0.491285 0.018403
C64   C     C_3   0.912784 0.685072 0.685276 -0.348179
C65   C     C_R   0.803934 0.708729 0.484497 -0.226239
C66   C     C_3   0.686544 0.368382 0.373277 0.327481
C67   C     C_3   0.526905 0.715408 0.366033 0.339371
C68   C     C_3   0.694799 0.341217 0.318211 0.154749
C69   C     C_3   0.276789 0.253224 0.730849 -0.225275
C70   C     C_3   0.269745 0.239399 0.785578 -0.405185
C71   C     C_3   0.929747 0.753826 0.264902 -0.206145
C72   C     C_3   0.948543 0.827776 0.290732 -0.347835
C73   C     C_3   0.508138 0.390544 0.004817 -0.234384
C74   C     C_3   0.665248 0.427738 0.004135 -0.379893
C75   C     C_3   0.512694 0.788990 0.348187 -0.350770
C76   C     C_R   0.013861 0.442915 0.181024 0.599963
H1    H     H_    0.727524 0.283175 0.601465 0.092649
H2    H     H_    0.812688 0.195305 0.661486 0.147580
H3    H     H_    0.754267 0.378594 0.297424 -0.007108
H4    H     H_    0.569734 0.335095 0.301515 0.099415
H5    H     H_    0.522215 0.291103 0.623986 -0.047121
H6    H     H_    0.644173 0.168019 0.620274 0.072469
H7    H     H_    0.404500 0.607873 0.607360 0.047089
H8    H     H_    0.614182 0.592851 0.629791 0.018217
H9    H     H_    0.343437 0.690429 0.680033 0.150689
H10   H     H_    0.443319 0.610739 0.702086 0.054527
H11   H     H_    0.554917 0.687379 0.701515 0.131868
H12   H     H_    0.271981 0.210753 0.433375 0.002037
H13   H     H_    0.608796 0.201936 0.683972 0.109655
H14   H     H_    0.087743 0.632427 0.345863 0.066794
H15   H     H_    0.894825 0.684550 0.346000 -0.026878
H16   H     H_    0.179245 0.712083 0.281923 0.132871
H17   H     H_    0.038513 0.647271 0.262053 0.089936
H18   H     H_    0.640283 0.709317 0.390045 -0.054679
H19   H     H_    0.419389 0.710834 0.388144 0.109827
H20   H     H_    0.507785 0.829054 0.380905 0.083746
H21   H     H_    0.399775 0.796485 0.324113 0.138405
H22   H     H_    0.056758 0.366534 0.655227 0.095910
H23   H     H_    0.078682 0.219359 0.399105 0.108249
H24   H     H_    0.619580 0.796791 0.326709 0.110748
H25   H     H_    0.141082 0.474595 0.285032 0.132748
H26   H     H_    0.187298 0.336645 0.128366 0.140382
H27   H     H_    0.496921 0.405169 0.744832 0.147572
H28   H     H_    0.530557 0.395655 0.906909 0.117151
H29   H     H_    0.262253 0.334889 0.042471 0.081142
H30   H     H_    0.631141 0.528379 0.242500 0.111509
H31   H     H_    0.764242 0.650907 0.107439 0.130483
H32   H     H_    0.266637 0.332220 0.653919 -0.070940
H33   H     H_    0.807029 0.562871 0.850403 0.167711
H34   H     H_    0.834312 0.660846 0.606922 0.023590
H35   H     H_    0.110453 0.569340 0.719998 0.096323
H36   H     H_    0.818697 0.642355 0.019739 0.144376
H37   H     H_    0.839461 0.553076 0.394169 0.069386
H38   H     H_    0.336002 0.440024 0.607922 0.067063
H39   H     H_    0.507112 0.824971 0.532243 0.087747
H40   H     H_    0.601011 0.935554 0.573890 0.107612
H41   H     H_    0.513605 0.061187 0.581205 0.081287
H42   H     H_    0.706009 0.188990 0.474840 0.132266
H43   H     H_    0.697515 0.945333 0.419297 0.101296
H44   H     H_    0.130986 0.352761 0.739315 0.089297
H45   H     H_    0.874981 0.633361 0.694179 0.088433
H46   H     H_    0.923759 0.862748 0.450222 0.077439
H47   H     H_    0.280291 0.140153 0.547852 0.087663
H48   H     H_    0.842548 0.653049 0.482853 0.062277
H49   H     H_    0.356629 0.354452 0.525171 0.070965
H50   H     H_    0.015429 0.278431 0.719161 0.147153
H51   H     H_    0.316503 0.335253 0.424855 -0.002319
H52   H     H_    0.119982 0.329934 0.450791 -0.005223
H53   H     H_    0.273653 0.289683 0.809931 0.133421
H54   H     H_    0.156245 0.214203 0.791536 0.142128
H55   H     H_    0.376058 0.203478 0.796232 0.137358
H56   H     H_    0.816257 0.726032 0.697194 0.127579
H57   H     H_    0.276824 0.202204 0.707212 0.146399
H58   H     H_    0.392269 0.277699 0.726071 0.121973
H59   H     H_    0.911927 0.831025 0.329984 0.148646
H60   H     H_    0.076622 0.841854 0.290075 0.152667
H61   H     H_    0.868319 0.866736 0.270848 0.140706
H62   H     H_    0.949092 0.755078 0.224462 0.141450
H63   H     H_    0.803547 0.738752 0.268128 0.156380
H64   H     H_    0.722457 0.417724 0.967600 0.142889
H65   H     H_    0.639339 0.485271 0.013275 0.186683
H66   H     H_    0.754260 0.407709 0.032987 0.123268
H67   H     H_    0.028060 0.696978 0.706714 0.117401
H68   H     H_    0.475411 0.399856 0.044164 0.127042
H69   H     H_    0.534577 0.332932 0.995623 0.111709
H70   H     H_    0.810541 0.378743 0.388493 0.003185
H71   H     H_    0.605288 0.417585 0.376836 -0.034763
N1    N     N_R   0.923362 0.501118 0.202777 -0.427494
N2    N     N_R   0.241096 0.479092 0.796772 -0.422104
O1    O     O_2   0.913240 0.537010 0.617740 -0.493594
O2    O     O_2   0.236042 0.749026 0.461762 -0.474515
O3    O     O_3   0.098202 0.737636 0.372347 -0.622097
O4    O     O_3   0.145240 0.536960 0.557560 -0.450278
O5    O     O_3   0.557280 0.416300 0.475860 -0.489204
O6    O     O_2   0.376710 0.670070 0.522470 -0.417397
O7    O     O_3   0.551203 0.691466 0.605828 -0.623226
O8    O     O_2   0.354689 0.557361 0.325912 -0.504534
O9    O     O_3   0.531600 0.664507 0.324757 -0.599106
O10   O     O_2   0.057988 0.393454 0.205535 -0.561921
O11   O     O_2   0.498532 0.446232 0.825936 -0.588694
O12   O     O_3   0.622611 0.317201 0.398486 -0.580692
O13   O     O_2   0.789204 0.607521 0.192882 -0.605840
O14   O     O_2   0.975346 0.514279 0.779723 -0.582604
O15   O     O_3   0.669960 0.410470 0.588880 -0.496647
O16   O     O_2   0.823371 0.451316 0.674455 -0.445152
O17   O     O_3   0.084062 0.650318 0.615644 -0.621269
O18   O     O_3   0.702010 0.330028 0.673694 -0.608590
O19   O     O_2   0.812980 0.329910 0.477500 -0.469647
O20   O     O_3   0.078660 0.374870 0.564770 -0.495313
O21   O     O_2   0.964884 0.249140 0.536506 -0.493180
O22   O     O_3   0.093075 0.262032 0.627797 -0.609722
O23   O     O_2   0.276450 0.462960 0.382230 -0.468098
O24   O     O_3   0.044470 0.462980 0.442430 -0.493983
O25   O     O_3   0.519740 0.589470 0.411120 -0.486390
O26   O     O_3   0.118480 0.350672 0.376605 -0.588325
O27   O     O_3   0.632420 0.583650 0.524140 -0.485216
O28   O     O_3   0.111040 0.625070 0.435230 -0.486513
P1    P     P_3+3 0.082480 0.557670 0.610090 0.993162
P2    P     P_3+3 0.635220 0.340300 0.462910 1.026263
P3    P     P_3+3 0.109115 0.283097 0.566374 0.938664
P4    P     P_3+3 0.107220 0.442270 0.389900 1.023019
P5    P     P_3+3 0.085530 0.717174 0.434027 0.963880
P6    P     P_3+3 0.668892 0.415121 0.653892 0.970355
P7    P     P_3+3 0.559773 0.671179 0.541193 0.987729
P8    P     P_3+3 0.523494 0.580688 0.345998 0.961512

loop_
_geom_bond_atom_site_label_1
_geom_bond_atom_site_label_2
_ccdc_geom_bond_type
C54   C63   S    
C73   H68   S    
C48   C49   A    
Ba1   O20   S    
C17   C35   A    
O3    P5    S    
C2    O13   D    
C1    H13   S    
C11   H26   S    
C16   C69   S    
C23   H7    S    
C28   C40   S    
Ba2   O6    S    
Ba1   O27   S    
C38   H29   S    
Ba1   P2    S    
C28   O26   S    
O17   P1    S    
C56   H17   S    
Br4   C41   S    
C15   H38   S    
C45   H15   S    
C47   H42   S    
C23   O7    S    
C29   C30   S    
C70   H54   S    
Ba1   Ba2   S    
C14   H37   S    
C3    C8    D    
C31   C32   D    
O25   P8    S    
C25   C42   A    
C64   H67   S    
C76   N1    Am   
C51   C53   A    
C15   C31   D    
C49   H47   S    
C45   H14   S    
O9    P8    S    
C49   C50   A    
C28   H51   S    
C1    H2    S    
Br1   C40   S    
C56   H16   S    
O24   P4    S    
C71   H62   S    
C72   H60   S    
C34   H11   S    
C9    C10   A    
C74   H64   S    
C66   H71   S    
C4    H22   S    
C55   C57   A    
C75   H20   S    
C17   C20   A    
C23   C34   S    
Ba2   O5    S    
C44   C50   A    
C70   H53   S    
C4    H32   S    
C8    N1    S    
C9    C13   A    
C67   H19   S    
C59   H46   S    
C69   H58   S    
C74   H65   S    
C45   O3    S    
C7    H25   S    
C59   C60   A    
Ba1   O5    S    
C19   C24   A    
C52   H34   S    
C6    P4    S    
C6    C7    D    
C66   C68   S    
C62   C63   A    
Ba2   O24   S    
O4    P1    S    
C67   C75   S    
C66   O12   S    
C26   O14   D    
O1    P1    D    
C18   C37   A    
O6    P7    D    
C48   C58   S    
C69   H57   S    
C21   H28   S    
C5    P8    S    
C76   O10   D    
C34   H10   S    
C26   N2    Am   
C1    C12   S    
O12   P2    S    
C39   H31   S    
C43   H36   S    
C60   C65   A    
C70   H55   S    
C20   C73   S    
O2    P5    D    
C28   H52   S    
C32   C33   S    
C55   H43   S    
C16   H50   S    
C71   C72   S    
C61   C62   A    
C64   H56   S    
O23   P4    D    
C61   P7    S    
O16   P6    D    
C18   C19   A    
C46   C47   A    
C15   C30   S    
C5    C14   S    
Ba1   O15   S    
C32   H35   S    
O15   P6    S    
C53   C54   A    
C44   C46   A    
C35   C38   A    
Br3   C68   S    
C53   H40   S    
C46   P2    S    
O5    P2    S    
C34   H9    S    
C51   C58   A    
C24   C25   A    
C18   C41   A    
C29   C33   D    
C61   C65   A    
C40   H23   S    
C23   H8    S    
Ba2   O28   S    
C10   C11   A    
C6    C14   D    
C4    O22   S    
O26   P4    S    
C75   H24   S    
C69   C70   S    
C9    C36   A    
C3    H30   S    
C3    C5    S    
O18   P6    S    
C67   H18   S    
C2    C13   A    
C68   H4    S    
C41   C42   A    
C12   H5    S    
C27   N2    Am   
C36   C37   A    
C29   H27   S    
C64   H45   S    
Ba2   O23   S    
O22   P3    S    
C12   H1    S    
C21   C22   A    
C11   C38   A    
C65   H48   S    
C16   H44   S    
C37   C43   A    
C73   H69   S    
C47   C48   A    
Ba1   O19   S    
C75   H21   S    
O28   P5    S    
Ba1   O4    S    
C17   C19   A    
C73   C74   S    
C52   O17   S    
C45   C56   S    
O27   P7    S    
C44   H49   S    
C60   P5    S    
Ba1   P1    S    
C31   P1    S    
C39   C43   A    
C51   H41   S    
O21   P3    D    
C72   H61   S    
C25   C26   A    
Ba1   O1    S    
C12   O18   S    
C22   C24   A    
C57   C58   A    
O19   P2    D    
C59   C63   A    
C62   H39   S    
C74   H66   S    
C22   C27   A    
Br2   C52   S    
C4    C16   S    
Ba1   O24   S    
C30   P6    S    
Ba2   O27   S    
C54   C55   A    
Ba2   P4    S    
Br5   C57   S    
C50   P3    S    
C71   H63   S    
C72   H59   S    
C42   H33   S    
C2    N1    Am   
Ba2   O4    S    
C35   C36   A    
C66   H70   S    
C20   C21   A    
C40   H12   S    
C7    C8    S    
C33   N2    S    
C68   H3    S    
O7    P7    S    
C1    H6    S    
C10   C76   A    
O8    P8    D    
O20   P3    S    
Ba2   O25   S    
C67   O9    S    
C13   C39   A    
C27   O11   D    
C52   C64   S    
C56   C71   S    
