data_mof_unit_14550.cif
_audit_creation_date              2012-12-10T18:12:33-0500
_audit_creation_method            fapswitch 2.2
_symmetry_space_group_name_H-M    P1
_symmetry_Int_Tables_number       1
_space_group_crystal_system       triclinic
_cell_length_a                    12.639381
_cell_length_b                    13.040952
_cell_length_c                    15.739866
_cell_angle_alpha                 93.077152
_cell_angle_beta                  103.641484
_cell_angle_gamma                 82.185554
_cell_volume                      2497.1661167

loop_
_atom_site_label
_atom_site_type_symbol
_atom_type_description
_atom_site_fract_x
_atom_site_fract_y
_atom_site_fract_z
_atom_type_partial_charge
C1    C     C_R   0.439063 0.689293 0.476828 0.873566
C2    C     C_R   0.593923 0.195365 0.502267 -0.111048
C3    C     C_R   0.286260 0.832240 0.415177 -0.062785
C4    C     C_R   0.502287 0.500176 0.662231 0.925195
C5    C     C_R   0.254597 0.938289 0.397054 0.021460
C6    C     C_R   0.334772 0.004608 0.407305 -0.271381
C7    C     C_R   0.447707 0.965937 0.424888 0.082066
C8    C     C_R   0.477591 0.857908 0.426785 0.068801
C9    C     C_R   0.533182 0.030099 0.446544 0.094620
C10   C     C_R   0.644186 0.985345 0.463397 0.160912
C11   C     C_R   0.668850 0.881623 0.440591 -0.289843
C12   C     C_3   0.509174 0.497296 0.918824 0.103730
C13   C     C_R   0.585322 0.818781 0.419742 -0.209884
C14   C     C_R   0.511820 0.136373 0.458960 -0.283685
C15   C     C_R   0.701628 0.146024 0.535243 0.000436
C16   C     C_R   0.560494 0.307512 0.508861 0.841642
C17   C     C_R   0.400093 0.793264 0.437828 -0.207296
C18   C     C_R   0.073179 0.367184 0.357808 -0.092020
C19   C     C_R   0.807452 0.627324 0.609669 0.042494
C20   C     C_R   0.919026 0.643214 0.639854 -0.015163
C21   C     C_R   0.999484 0.570059 0.615954 0.058537
C22   C     C_R   0.967988 0.511959 0.537576 -0.014232
C23   C     C_3   0.586288 0.427399 0.043995 -0.219493
C24   C     C_R   0.854783 0.499115 0.507292 0.167943
C25   C     C_R   0.043509 0.466730 0.487824 -0.027526
C26   C     C_R   0.005687 0.402067 0.414936 0.089490
C27   C     C_R   0.898644 0.376062 0.397887 -0.293353
C28   C     C_R   0.498052 0.499442 0.337865 0.869608
C29   C     C_R   0.824626 0.424356 0.443054 -0.166724
C30   C     C_R   0.152016 0.491466 0.502766 -0.060672
C31   C     C_R   0.184546 0.384624 0.381527 0.178594
C32   C     C_3   0.406626 0.471045 0.006620 -0.264955
C33   C     C_3   0.424310 0.566161 0.959303 0.128700
C34   C     C_3   0.500600 0.496711 0.083187 0.138067
C35   C     C_1   0.507770 0.499295 0.752195 -0.186498
C36   C     C_1   0.494875 0.498042 0.248312 -0.195971
C37   C     C_3   0.492789 0.402996 0.965948 0.049180
C38   C     C_3   0.329037 0.639696 0.907312 -0.434726
C39   C     C_3   0.261217 0.700187 0.966952 -0.340987
C40   C     C_3   0.152468 0.753201 0.914183 -0.917844
C41   C     C_R   0.198362 0.764142 0.403803 0.169348
C42   C     C_R   0.121131 0.779731 0.456082 -0.139604
C43   C     C_R   0.026982 0.729686 0.434492 -0.148403
C44   C     C_R   0.010060 0.662841 0.361489 -0.107073
C45   C     C_3   0.603356 0.522409 0.995808 -0.246617
C46   C     C_R   0.088647 0.643704 0.311322 -0.154212
C47   C     C_R   0.182441 0.694216 0.332183 -0.112826
C48   C     C_R   0.137146 0.981771 0.368410 0.114195
C49   C     C_R   0.071761 0.945840 0.290249 -0.146909
C50   C     C_R   0.959865 0.982126 0.265697 -0.140671
C51   C     C_R   0.912980 0.056879 0.317399 -0.091350
C52   C     C_R   0.978014 0.095404 0.393620 -0.155905
C53   C     C_R   0.089452 0.057348 0.419888 -0.201005
C54   C     C_3   0.260780 0.330611 0.326349 -0.361929
C55   C     C_3   0.245475 0.375805 0.234881 -0.337804
C56   C     C_3   0.517844 0.591322 0.036734 0.149598
C57   C     C_3   0.319807 0.310187 0.183566 -0.882760
C58   C     C_R   0.021750 0.328241 0.268343 0.107160
C59   C     C_R   0.045436 0.225357 0.240419 -0.127834
C60   C     C_R   0.997340 0.192534 0.155753 -0.127803
C61   C     C_R   0.924238 0.261732 0.098403 -0.126630
C62   C     C_R   0.899180 0.363940 0.125624 -0.160225
C63   C     C_R   0.947124 0.397023 0.210149 -0.178760
C64   C     C_R   0.732872 0.669893 0.666786 0.217868
C65   C     C_R   0.746099 0.624858 0.748578 -0.146669
C66   C     C_R   0.687627 0.670489 0.808943 -0.147529
C67   C     C_1   0.510320 0.498395 0.827966 -0.100034
C68   C     C_R   0.615501 0.761432 0.788637 -0.133434
C69   C     C_R   0.603923 0.808293 0.708795 -0.166158
C70   C     C_R   0.663852 0.763823 0.649079 -0.108670
C71   C     C_3   0.102911 0.535621 0.687158 -0.436359
C72   C     C_3   0.129940 0.417492 0.694711 -0.334693
C73   C     C_3   0.220387 0.386874 0.775409 -0.900676
C74   C     C_3   0.952877 0.732270 0.703155 -0.431237
C75   C     C_3   0.916164 0.838139 0.660304 -0.348159
C76   C     C_3   0.914570 0.924473 0.729546 -0.865049
C77   C     C_3   0.538337 0.694827 0.084369 -0.424720
C78   C     C_1   0.496089 0.496938 0.173216 -0.074861
C79   C     C_3   0.559286 0.774093 0.023822 -0.362726
C80   C     C_3   0.579280 0.876775 0.072152 -0.873294
C81   C     C_R   0.486884 0.295514 0.926782 0.137949
C82   C     C_R   0.401396 0.239645 0.932337 -0.160826
C83   C     C_R   0.398435 0.139020 0.897020 -0.146408
C84   C     C_R   0.480786 0.093489 0.856236 -0.113055
C85   C     C_R   0.566464 0.148417 0.850921 -0.143937
C86   C     C_R   0.569888 0.248847 0.886436 -0.157745
C87   C     C_R   0.780365 0.192819 0.608202 0.135705
C88   C     C_R   0.894317 0.174047 0.614891 -0.175844
C89   C     C_R   0.727656 0.043050 0.507505 -0.257973
C90   C     C_R   0.967772 0.207762 0.688645 -0.158303
C91   C     C_R   0.928728 0.262085 0.756254 -0.137813
C92   C     C_R   0.816082 0.281922 0.750584 -0.143852
C93   C     C_R   0.742392 0.246227 0.677878 -0.096993
H1    H     H_    0.429846 0.174368 0.437583 0.157153
H2    H     H_    0.753010 0.847408 0.444985 0.147033
H3    H     H_    0.810616 0.004220 0.527462 0.139023
H4    H     H_    0.166728 0.803345 0.864171 0.263550
H5    H     H_    0.099990 0.694080 0.881824 0.253386
H6    H     H_    0.108762 0.801903 0.958458 0.251765
H7    H     H_    0.243733 0.647361 0.013644 0.220799
H8    H     H_    0.307758 0.760451 0.004851 0.223255
H9    H     H_    0.361399 0.694249 0.871027 0.188894
H10   H     H_    0.276120 0.592608 0.858563 0.214452
H11   H     H_    0.131632 0.833933 0.511113 0.118712
H12   H     H_    0.305426 0.085429 0.397287 0.127063
H13   H     H_    0.966470 0.743601 0.473679 0.127249
H14   H     H_    0.936676 0.624844 0.344560 0.128698
H15   H     H_    0.076075 0.591146 0.255336 0.117308
H16   H     H_    0.240530 0.682008 0.290714 0.107648
H17   H     H_    0.107303 0.889164 0.248718 0.123908
H18   H     H_    0.909838 0.953302 0.205971 0.126485
H19   H     H_    0.826746 0.086345 0.297624 0.129906
H20   H     H_    0.942139 0.156057 0.431296 0.138927
H21   H     H_    0.138447 0.086975 0.479809 0.133893
H22   H     H_    0.407132 0.306131 0.219319 0.266419
H23   H     H_    0.607278 0.738616 0.402691 0.188587
H24   H     H_    0.296924 0.230411 0.172906 0.258420
H25   H     H_    0.310030 0.344463 0.118919 0.242775
H26   H     H_    0.160807 0.377558 0.195369 0.228527
H27   H     H_    0.263184 0.457061 0.239945 0.236098
H28   H     H_    0.346448 0.327595 0.359560 0.253112
H29   H     H_    0.250577 0.247563 0.319580 0.147168
H30   H     H_    0.101279 0.170584 0.283574 0.142696
H31   H     H_    0.016797 0.113319 0.134598 0.129444
H32   H     H_    0.887049 0.236202 0.032901 0.122981
H33   H     H_    0.842914 0.417709 0.081138 0.128022
H34   H     H_    0.869628 0.320520 0.346960 0.171135
H35   H     H_    0.926725 0.476531 0.230146 0.129002
H36   H     H_    0.802693 0.554927 0.765751 0.120515
H37   H     H_    0.698592 0.635436 0.871518 0.123157
H38   H     H_    0.569794 0.796444 0.835125 0.119460
H39   H     H_    0.549974 0.880094 0.693728 0.131637
H40   H     H_    0.657217 0.803655 0.589837 0.145136
H41   H     H_    0.296965 0.417600 0.772105 0.282153
H42   H     H_    0.194973 0.416770 0.835958 0.249903
H43   H     H_    0.236920 0.301178 0.777967 0.257798
H44   H     H_    0.054851 0.385719 0.699392 0.234440
H45   H     H_    0.181279 0.550211 0.549231 0.156094
H46   H     H_    0.157120 0.381353 0.636983 0.235334
H47   H     H_    0.174735 0.572227 0.680995 0.191265
H48   H     H_    0.088150 0.562466 0.752048 0.203284
H49   H     H_    0.857476 0.912081 0.770878 0.265406
H50   H     H_    0.998205 0.927249 0.771497 0.258119
H51   H     H_    0.885577 0.999746 0.697400 0.261809
H52   H     H_    0.973586 0.852055 0.619650 0.206875
H53   H     H_    0.833641 0.841437 0.616343 0.218283
H54   H     H_    0.920516 0.728351 0.762446 0.213994
H55   H     H_    0.043325 0.727581 0.725756 0.199710
H56   H     H_    0.325154 0.452706 0.011382 0.126349
H57   H     H_    0.506493 0.909800 0.097299 0.262608
H58   H     H_    0.652347 0.865497 0.127670 0.260812
H59   H     H_    0.594042 0.932579 0.026631 0.252392
H60   H     H_    0.632414 0.743740 0.998120 0.217097
H61   H     H_    0.487544 0.788447 0.967789 0.218720
H62   H     H_    0.466954 0.725155 0.112128 0.191988
H63   H     H_    0.611296 0.680668 0.139729 0.205407
H64   H     H_    0.337111 0.273423 0.963866 0.122692
H65   H     H_    0.332282 0.096300 0.901327 0.127874
H66   H     H_    0.478387 0.015593 0.829011 0.116934
H67   H     H_    0.743980 0.402051 0.425653 0.211549
H68   H     H_    0.630420 0.113081 0.819550 0.132343
H69   H     H_    0.637216 0.290257 0.882568 0.119929
H70   H     H_    0.927179 0.129692 0.565164 0.122517
H71   H     H_    0.055261 0.191128 0.693601 0.134877
H72   H     H_    0.985868 0.288342 0.813229 0.129394
H73   H     H_    0.785862 0.323228 0.803348 0.117301
H74   H     H_    0.655826 0.258033 0.677465 0.102580
H75   H     H_    0.684224 0.542292 0.990953 0.125017
H76   H     H_    0.651454 0.369711 0.080716 0.151073
N1    N     N_R   0.222180 0.444680 0.455580 -0.118280
N2    N     N_R   0.776980 0.554790 0.543960 -0.155101
O1    O     O_R   0.366730 0.627160 0.478790 -0.599689
O2    O     O_R   0.544830 0.662520 0.507160 -0.620775
O3    O     O_R   0.410960 0.482330 0.609040 -0.611700
O4    O     O_R   0.589060 0.517690 0.637410 -0.596794
O5    O     O_R   0.455170 0.337480 0.492840 -0.636481
O6    O     O_R   0.633270 0.372840 0.521210 -0.617641
O7    O     O_R   0.410940 0.482310 0.362590 -0.629871
O8    O     O_R   0.589040 0.517670 0.390960 -0.642639
Zn1   Zn    Zn3+2 0.381080 0.476390 0.481050 0.928015
Zn2   Zn    Zn3+2 0.618920 0.523610 0.518950 0.928195

loop_
_geom_bond_atom_site_label_1
_geom_bond_atom_site_label_2
_ccdc_geom_bond_type
C80   H58   S    
C66   C68   A    
C87   C88   A    
C34   C56   S    
C51   H19   S    
C23   C45   S    
C27   C29   A    
C85   H68   S    
C41   C42   A    
C19   C20   A    
C18   C26   A    
C75   C76   S    
C40   H6    S    
C81   C82   A    
C90   C91   A    
C7    C8    A    
C57   H22   S    
C55   H26   S    
C52   H20   S    
C75   H52   S    
C80   H57   S    
C1    O2    A    
C26   C27   A    
C62   C63   A    
C21   C71   S    
C30   H45   S    
C74   H55   S    
C19   N2    A    
C77   H63   S    
C40   H5    S    
C38   C39   S    
C50   H18   S    
C79   H60   S    
C25   C30   A    
C80   H59   S    
C12   C37   S    
C60   H31   S    
C24   N2    A    
C24   C29   A    
C30   N1    A    
C54   C55   S    
C27   H34   S    
C18   C58   S    
C72   H46   S    
C32   H56   S    
C73   H42   S    
C45   C56   S    
C68   C69   A    
C22   C25   A    
C46   H15   S    
C70   H40   S    
N2    Zn2   S    
C86   H69   S    
C64   C70   A    
C2    C16   S    
C9    C10   A    
C63   H35   S    
C72   H44   S    
C71   H48   S    
O1    Zn1   S    
C33   C56   S    
C54   H29   S    
C4    C35   S    
O2    Zn2   S    
C59   C60   A    
C4    O3    A    
C21   C22   A    
C66   H37   S    
C37   C81   S    
C61   C62   A    
C12   C67   S    
C84   H66   S    
C44   C46   A    
C39   H8    S    
C29   H67   S    
C55   H27   S    
C77   C79   S    
C75   H53   S    
C59   H30   S    
C48   C53   A    
C5    C48   S    
C74   C75   S    
C51   C52   A    
C74   H54   S    
C84   C85   A    
C10   C89   A    
C91   C92   A    
C62   H33   S    
C82   H64   S    
C12   C45   S    
C25   C26   A    
C85   C86   A    
C4    O4    A    
C56   C77   S    
C77   H62   S    
N1    Zn1   S    
C60   C61   A    
C43   H13   S    
C32   C34   S    
C68   H38   S    
C43   C44   A    
C76   H50   S    
C38   H10   S    
C23   C37   S    
C15   C89   A    
C65   H36   S    
C83   C84   A    
C23   H76   S    
C73   H43   S    
C35   C67   T    
C19   C64   S    
C23   C34   S    
C50   C51   A    
C41   C47   A    
C9    C14   A    
C20   C74   S    
C32   C37   S    
C73   H41   S    
C2    C15   A    
C93   H74   S    
C16   O6    A    
C71   H47   S    
C76   H51   S    
C48   C49   A    
C54   H28   S    
C88   C90   A    
C49   C50   A    
C55   C57   S    
C22   C24   A    
C61   H32   S    
C42   C43   A    
O3    Zn1   S    
C40   H4    S    
C53   H21   S    
C57   H24   S    
C44   H14   S    
C11   H2    S    
C58   C63   A    
C7    C9    A    
C46   C47   A    
C3    C41   S    
C91   H72   S    
C8    C17   A    
C72   C73   S    
C3    C5    A    
C42   H11   S    
O7    Zn1   S    
C6    C7    A    
C31   N1    A    
C88   H70   S    
C1    O1    A    
C1    C17   S    
C33   C38   S    
O4    Zn2   S    
C81   C86   A    
C32   C33   S    
C89   H3    S    
C58   C59   A    
C71   C72   S    
C38   H9    S    
C47   H16   S    
C64   C65   A    
C79   H61   S    
C11   C13   A    
C16   O5    A    
C39   H7    S    
C5    C6    A    
C83   H65   S    
C69   H39   S    
O6    Zn2   S    
C87   C93   A    
C92   C93   A    
C6    H12   S    
C3    C17   A    
C31   C54   S    
C69   C70   A    
C2    C14   A    
C28   O8    A    
C13   H23   S    
C10   C11   A    
C79   C80   S    
C39   C40   S    
C8    C13   A    
C92   H73   S    
O5    Zn1   S    
C20   C21   A    
C28   C36   S    
C65   C66   A    
C45   H75   S    
C15   C87   S    
C90   H71   S    
C49   H17   S    
C36   C78   T    
C18   C31   A    
C82   C83   A    
C12   C33   S    
C28   O7    A    
C14   H1    S    
C34   C78   S    
C52   C53   A    
C57   H25   S    
O8    Zn2   S    
C76   H49   S    
