data_mof_unit_67260.cif
_audit_creation_date              2012-12-11T18:15:47-0500
_audit_creation_method            fapswitch 2.2
_symmetry_space_group_name_H-M    P1
_symmetry_Int_Tables_number       1
_space_group_crystal_system       triclinic
_cell_length_a                    20.20992
_cell_length_b                    19.984701
_cell_length_c                    8.503133
_cell_angle_alpha                 89.999821
_cell_angle_beta                  92.266586
_cell_angle_gamma                 90.044667
_cell_volume                      3431.63569871

loop_
_atom_site_label
_atom_site_type_symbol
_atom_type_description
_atom_site_fract_x
_atom_site_fract_y
_atom_site_fract_z
_atom_type_partial_charge
Ba1   Ba    Ba6+2 0.999980 0.452130 0.155200 1.605977
Ba2   Ba    Ba6+2 0.999980 0.547870 0.655200 1.601641
Ba3   Ba    Ba6+2 0.499980 0.952130 0.155200 1.628820
Ba4   Ba    Ba6+2 0.499980 0.047870 0.655200 1.607741
C1    C     C_3   0.999935 0.097597 0.315375 -0.318939
C2    C     C_3   0.993995 0.896238 0.772757 -0.339077
C3    C     C_3   0.584922 0.624523 0.291810 -0.403552
C4    C     C_3   0.497681 0.399600 0.809229 -0.323654
C5    C     C_R   0.149284 0.346158 0.825959 0.035911
C6    C     C_R   0.150206 0.653089 0.324236 0.033472
C7    C     C_R   0.645785 0.845138 0.819237 0.033093
C8    C     C_R   0.651142 0.152048 0.324578 0.034668
C9    C     C_R   0.111155 0.336563 0.686878 -0.278105
C10   C     C_R   0.112467 0.662421 0.184523 -0.285573
C11   C     C_R   0.606262 0.834823 0.678739 -0.255003
C12   C     C_R   0.613575 0.160850 0.184869 -0.291146
C13   C     C_R   0.122335 0.282386 0.588574 0.023290
C14   C     C_R   0.124625 0.715956 0.084994 0.033586
C15   C     C_R   0.615698 0.779365 0.578063 -0.025250
C16   C     C_R   0.626428 0.213627 0.084953 0.042632
C17   C     C_R   0.169397 0.234076 0.633136 -0.137679
C18   C     C_R   0.173333 0.762961 0.126732 -0.135041
C19   C     C_R   0.665700 0.733462 0.622927 -0.159050
C20   C     C_R   0.675199 0.260423 0.126445 -0.131788
C21   C     C_R   0.206566 0.240108 0.775716 -0.001626
C22   C     C_R   0.209849 0.757313 0.270128 -0.000121
C23   C     C_R   0.702585 0.738813 0.767843 0.014726
C24   C     C_R   0.710736 0.255945 0.270799 -0.012140
C25   C     C_R   0.198070 0.297222 0.872483 -0.037607
C26   C     C_R   0.199442 0.701628 0.370023 -0.036733
C27   C     C_R   0.693561 0.795262 0.866164 -0.033313
C28   C     C_R   0.700566 0.200322 0.370432 -0.039865
C29   C     C_R   0.791518 0.695656 0.950631 -0.039366
C30   C     C_R   0.797539 0.300445 0.451662 -0.034013
C31   C     C_R   0.296157 0.197931 0.953334 -0.033388
C32   C     C_R   0.296715 0.801301 0.452226 -0.020865
C33   C     C_R   0.781255 0.751419 0.050015 -0.001041
C34   C     C_R   0.787888 0.244480 0.551487 0.007155
C35   C     C_R   0.287585 0.254873 0.050644 0.006228
C36   C     C_R   0.284714 0.747001 0.555161 0.010658
C37   C     C_R   0.845343 0.651038 0.989765 0.056325
C38   C     C_R   0.848658 0.347640 0.491824 0.037068
C39   C     C_R   0.348723 0.152073 0.991531 0.038338
C40   C     C_R   0.347884 0.848232 0.493553 0.047092
C41   C     C_R   0.884855 0.661849 0.126197 -0.282133
C42   C     C_R   0.888055 0.337543 0.629308 -0.280882
C43   C     C_R   0.389610 0.163436 0.126019 -0.287033
C44   C     C_R   0.384860 0.839592 0.635304 -0.286738
C45   C     C_3   0.031542 0.218195 0.953622 0.361149
C46   C     C_3   0.031593 0.779625 0.449548 0.352384
C47   C     C_3   0.522591 0.711716 0.895141 0.357238
C48   C     C_3   0.539531 0.275475 0.465621 0.348027
C49   C     C_R   0.871859 0.713948 0.228225 0.022955
C50   C     C_R   0.875689 0.284718 0.731459 0.026501
C51   C     C_R   0.378570 0.217373 0.225592 0.025841
C52   C     C_R   0.369101 0.789409 0.742195 -0.012284
C53   C     C_R   0.820776 0.759241 0.189688 -0.133348
C54   C     C_R   0.826182 0.238142 0.692284 -0.134383
C55   C     C_R   0.328457 0.263441 0.186995 -0.132631
C56   C     C_R   0.319255 0.743175 0.702017 -0.142492
C57   C     C_R   0.750392 0.689382 0.812060 -0.083259
C58   C     C_R   0.757484 0.305682 0.313136 -0.075757
C59   C     C_R   0.253797 0.190676 0.818400 -0.079178
C60   C     C_R   0.257422 0.806343 0.312041 -0.055958
C61   C     C_3   0.071255 0.152960 0.959200 -0.421773
C62   C     C_3   0.074952 0.842354 0.461735 -0.418461
C63   C     C_3   0.553626 0.642475 0.874436 -0.453892
C64   C     C_3   0.587521 0.333881 0.494834 -0.398133
C65   C     C_3   0.811920 0.455768 0.842599 0.329214
C66   C     C_3   0.809832 0.543744 0.348689 0.324207
C67   C     C_3   0.309898 0.959752 0.805374 0.328700
C68   C     C_3   0.314722 0.043227 0.315088 0.317668
C69   C     C_3   0.748753 0.413396 0.826904 -0.197880
C70   C     C_3   0.748273 0.583481 0.388712 -0.210679
C71   C     C_3   0.246146 0.925312 0.742628 -0.223256
C72   C     C_3   0.253084 0.083775 0.262430 -0.219998
C73   C     C_3   0.189318 0.541537 0.997749 0.311134
C74   C     C_3   0.187813 0.457807 0.496980 0.314682
C75   C     C_3   0.690402 0.040925 0.996872 0.316761
C76   C     C_3   0.686117 0.956885 0.495288 0.315978
C77   C     C_3   0.251764 0.584165 0.011647 -0.389385
C78   C     C_3   0.249844 0.414823 0.513611 -0.396606
C79   C     C_3   0.752843 0.083560 0.005933 -0.396653
C80   C     C_3   0.747678 0.913482 0.516483 -0.410561
C81   C     C_3   0.999857 0.169435 0.383454 0.418780
C82   C     C_3   0.001510 0.830479 0.869143 0.416716
C83   C     C_3   0.515623 0.648680 0.332794 0.460392
C84   C     C_3   0.501328 0.329020 0.885726 0.414066
C85   C     C_R   0.239277 0.303526 0.009722 -0.052166
C86   C     C_R   0.238265 0.697057 0.511288 -0.051316
C87   C     C_R   0.733565 0.800344 0.006536 -0.056472
C88   C     C_R   0.740441 0.195099 0.509851 -0.055372
H1    H     H_    0.727223 0.417145 0.706009 0.071885
H2    H     H_    0.717491 0.591800 0.279452 0.078719
H3    H     H_    0.235500 0.939781 0.618039 0.110664
H4    H     H_    0.241447 0.075299 0.135046 0.103307
H5    H     H_    0.762787 0.360087 0.844175 0.049939
H6    H     H_    0.764166 0.633457 0.433028 0.064574
H7    H     H_    0.254328 0.870479 0.744005 0.039320
H8    H     H_    0.264518 0.137778 0.277493 0.049182
H9    H     H_    0.168307 0.536780 0.115526 0.013934
H10   H     H_    0.165688 0.462371 0.613546 0.013234
H11   H     H_    0.671319 0.035843 0.116615 0.011218
H12   H     H_    0.661990 0.960913 0.609586 0.015656
H13   H     H_    0.153230 0.566605 0.915287 0.078942
H14   H     H_    0.152317 0.433107 0.412402 0.080874
H15   H     H_    0.653116 0.066198 0.917825 0.075236
H16   H     H_    0.651890 0.932702 0.406999 0.074056
H17   H     H_    0.287799 0.561437 0.098016 0.121234
H18   H     H_    0.285118 0.437272 0.602156 0.118722
H19   H     H_    0.790381 0.060024 0.087193 0.117676
H20   H     H_    0.781268 0.934860 0.610066 0.124025
H21   H     H_    0.239828 0.635355 0.051455 0.074995
H22   H     H_    0.237218 0.363579 0.552027 0.075421
H23   H     H_    0.741698 0.134320 0.049809 0.071560
H24   H     H_    0.733979 0.861912 0.550272 0.071845
H25   H     H_    0.274747 0.587669 0.895407 0.118227
H26   H     H_    0.273971 0.411497 0.398756 0.120402
H27   H     H_    0.773503 0.088131 0.887296 0.119476
H28   H     H_    0.774138 0.911184 0.404585 0.119771
H29   H     H_    0.044219 0.070960 0.361196 0.096927
H30   H     H_    0.958239 0.931215 0.825309 0.075290
H31   H     H_    0.584379 0.573185 0.243636 0.080541
H32   H     H_    0.460108 0.431766 0.864051 0.073195
H33   H     H_    0.956537 0.067310 0.347402 0.082166
H34   H     H_    0.976396 0.886525 0.650709 0.138192
H35   H     H_    0.608050 0.657850 0.205826 0.126648
H36   H     H_    0.484406 0.396648 0.682181 0.120280
H37   H     H_    0.109484 0.153637 0.869551 0.078889
H38   H     H_    0.109114 0.844061 0.363170 0.084202
H39   H     H_    0.517518 0.606801 0.820328 0.128569
H40   H     H_    0.617833 0.341751 0.391091 0.074586
H41   H     H_    0.074879 0.373732 0.649741 0.064244
H42   H     H_    0.075436 0.625766 0.148502 0.066003
H43   H     H_    0.569882 0.872142 0.643662 0.068610
H44   H     H_    0.576141 0.124519 0.149346 0.065193
H45   H     H_    0.177893 0.192494 0.555075 0.060852
H46   H     H_    0.183379 0.803349 0.046089 0.064032
H47   H     H_    0.677226 0.694332 0.542416 0.053177
H48   H     H_    0.686446 0.299356 0.044457 0.069849
H49   H     H_    0.811945 0.800515 0.268731 0.070458
H50   H     H_    0.817485 0.197124 0.772204 0.069392
H51   H     H_    0.320807 0.305415 0.264837 0.071201
H52   H     H_    0.308907 0.703152 0.783432 0.073775
H53   H     H_    0.924680 0.627508 0.157196 0.066038
H54   H     H_    0.926716 0.373065 0.661426 0.072400
H55   H     H_    0.428747 0.128393 0.157358 0.069187
H56   H     H_    0.424321 0.874327 0.666606 0.064437
H57   H     H_    0.235923 0.347109 0.083999 0.107789
H58   H     H_    0.233314 0.654808 0.588915 0.111441
H59   H     H_    0.730129 0.843371 0.082099 0.103899
H60   H     H_    0.736127 0.152330 0.586338 0.109549
H61   H     H_    0.756885 0.647451 0.734556 0.099644
H62   H     H_    0.763000 0.347522 0.234912 0.104246
H63   H     H_    0.258420 0.147875 0.742022 0.092898
H64   H     H_    0.263103 0.848233 0.233508 0.088976
H65   H     H_    0.000371 0.098285 0.185731 0.125683
H66   H     H_    0.041863 0.922135 0.764665 0.114888
H67   H     H_    0.617342 0.626402 0.396758 0.076242
H68   H     H_    0.546295 0.425143 0.819617 0.115301
H69   H     H_    0.050447 0.251399 0.049557 0.120246
H70   H     H_    0.045350 0.746980 0.550974 0.115885
H71   H     H_    0.554704 0.741015 0.978764 0.100928
H72   H     H_    0.547350 0.240099 0.564630 0.117654
H73   H     H_    0.041457 0.243580 0.841723 -0.028952
H74   H     H_    0.044038 0.752630 0.341201 -0.023112
H75   H     H_    0.520850 0.737016 0.779002 -0.044372
H76   H     H_    0.553740 0.250007 0.356871 -0.015327
H77   H     H_    0.097436 0.146528 0.075132 0.144384
H78   H     H_    0.106651 0.841835 0.571073 0.141924
H79   H     H_    0.597841 0.645729 0.802206 0.086687
H80   H     H_    0.623318 0.322639 0.593536 0.145896
H81   H     H_    0.039302 0.108793 0.935951 0.118163
H82   H     H_    0.045034 0.888619 0.459741 0.122774
H83   H     H_    0.570959 0.620381 0.985937 0.101672
H84   H     H_    0.561771 0.381097 0.519527 0.125038
H85   H     H_    0.839759 0.450981 0.733607 -0.044472
H86   H     H_    0.824580 0.556207 0.228495 -0.039294
H87   H     H_    0.343825 0.964927 0.706751 0.000670
H88   H     H_    0.347934 0.039603 0.214725 0.001498
H89   H     H_    0.842680 0.437433 0.943594 0.090763
H90   H     H_    0.850016 0.557785 0.434544 0.080250
H91   H     H_    0.333808 0.928256 0.899067 0.035639
H92   H     H_    0.340940 0.069829 0.413775 0.065141
O1    O     O_2   0.130070 0.404060 0.104920 -0.464416
O2    O     O_2   0.130070 0.595940 0.604920 -0.462783
O3    O     O_2   0.630070 0.904060 0.104920 -0.470229
O4    O     O_2   0.630070 0.095940 0.604920 -0.463253
O5    O     O_3   0.793710 0.475909 0.353480 -0.644479
O6    O     O_3   0.794313 0.522352 0.863736 -0.656250
O7    O     O_3   0.295594 0.979630 0.365253 -0.655561
O8    O     O_3   0.294237 0.021967 0.868787 -0.649851
O9    O     O_3   0.962956 0.206319 0.967480 -0.629200
O10   O     O_3   0.963003 0.794555 0.447483 -0.624993
O11   O     O_3   0.458354 0.705735 0.952510 -0.599979
O12   O     O_3   0.472117 0.295287 0.452014 -0.628166
O13   O     O_3   0.924190 0.533610 0.949240 -0.487604
O14   O     O_3   0.924190 0.466390 0.449240 -0.493798
O15   O     O_3   0.424190 0.033610 0.949240 -0.485271
O16   O     O_3   0.424190 0.966390 0.449240 -0.490598
O17   O     O_3   0.075780 0.466370 0.861070 -0.490798
O18   O     O_3   0.075780 0.533630 0.361070 -0.491060
O19   O     O_3   0.575780 0.966370 0.861070 -0.492548
O20   O     O_3   0.575780 0.033630 0.361070 -0.493296
O21   O     O_3   0.022320 0.344950 0.359800 -0.485250
O22   O     O_3   0.022320 0.655050 0.859800 -0.488218
O23   O     O_3   0.522320 0.844950 0.359800 -0.431292
O24   O     O_3   0.522320 0.155050 0.859800 -0.490678
O25   O     O_2   0.136511 0.299019 0.279932 -0.482056
O26   O     O_2   0.137144 0.699214 0.778309 -0.484492
O27   O     O_2   0.618876 0.785192 0.243162 -0.496927
O28   O     O_2   0.637129 0.200572 0.776227 -0.492665
O29   O     O_3   0.206421 0.478424 0.940989 -0.639581
O30   O     O_3   0.205891 0.520975 0.441996 -0.638784
O31   O     O_3   0.706699 0.977971 0.937820 -0.640611
O32   O     O_3   0.705366 0.020263 0.443644 -0.637343
O33   O     O_3   0.056416 0.200848 0.319245 -0.632028
O34   O     O_3   0.061041 0.799875 0.819185 -0.626336
O35   O     O_3   0.508718 0.717663 0.296338 -0.554409
O36   O     O_3   0.561781 0.300670 0.835123 -0.626392
O37   O     O_2   0.869860 0.403670 0.205810 -0.462447
O38   O     O_2   0.869860 0.596330 0.705810 -0.474273
O39   O     O_2   0.369860 0.903670 0.205810 -0.460016
O40   O     O_2   0.369860 0.096330 0.705810 -0.470618
O41   O     O_3   0.977590 0.344880 0.951200 -0.491969
O42   O     O_3   0.977590 0.655120 0.451200 -0.496366
O43   O     O_3   0.477590 0.844880 0.951200 -0.475948
O44   O     O_3   0.477590 0.155120 0.451200 -0.496846
O45   O     O_2   0.869791 0.290441 0.054703 -0.505479
O46   O     O_2   0.870334 0.713422 0.551999 -0.507400
O47   O     O_2   0.373235 0.787273 0.074448 -0.461063
O48   O     O_2   0.373462 0.217539 0.547664 -0.504368
P1    P     P_3+3 0.136530 0.426510 0.931350 0.964117
P2    P     P_3+3 0.136530 0.573490 0.431350 0.964723
P3    P     P_3+3 0.636530 0.926510 0.931350 0.966677
P4    P     P_3+3 0.636530 0.073490 0.431350 0.960856
P5    P     P_3+3 0.863410 0.426100 0.379280 0.961574
P6    P     P_3+3 0.863410 0.573900 0.879280 0.964155
P7    P     P_3+3 0.363410 0.926100 0.379280 0.969144
P8    P     P_3+3 0.363410 0.073900 0.879280 0.963331
P9    P     P_3+3 0.920158 0.281129 0.924382 0.899121
P10   P     P_3+3 0.919486 0.718846 0.417723 0.892808
P11   P     P_3+3 0.417483 0.782704 0.930412 0.978929
P12   P     P_3+3 0.424342 0.222195 0.416847 0.892196
P13   P     P_3+3 0.082087 0.718698 0.890608 0.892892
P14   P     P_3+3 0.080898 0.280703 0.392116 0.894363
P15   P     P_3+3 0.582936 0.217738 0.892979 0.887387
P16   P     P_3+3 0.570169 0.773560 0.376516 0.936818
C89   C     C_3   0.935718 0.208037 0.330913 -0.106063
C90   C     C_3   0.877335 0.166218 0.262013 -0.409038
H93   H     H_    0.890760 0.139846 0.153169 0.156394
H94   H     H_    0.859554 0.129346 0.347856 0.103623
H95   H     H_    0.835096 0.199106 0.230231 0.161362
H96   H     H_    0.917602 0.236656 0.430872 0.043590
H97   H     H_    0.948870 0.246318 0.244699 0.183170
C91   C     C_3   0.940669 0.785262 0.832392 -0.138011
C92   C     C_3   0.874971 0.822889 0.799202 -0.426745
H98   H     H_    0.861843 0.853815 0.901698 0.109973
H99   H     H_    0.875848 0.854586 0.692643 0.141161
H100  H     H_    0.835065 0.787206 0.771875 0.168681
H101  H     H_    0.951796 0.753940 0.731072 0.185445
H102  H     H_    0.934144 0.750415 0.931299 0.043984
C93   C     C_3   0.462402 0.609410 0.229764 -0.127664
C94   C     C_3   0.449384 0.536726 0.279612 -0.531337
H103  H     H_    0.496239 0.510240 0.309857 0.134856
H104  H     H_    0.417479 0.534548 0.382541 0.149535
H105  H     H_    0.423223 0.509568 0.181530 0.141905
H106  H     H_    0.414595 0.636962 0.225793 0.143356
H107  H     H_    0.477524 0.606659 0.107321 0.140966
C95   C     C_3   0.441310 0.286795 0.826152 -0.133434
C96   C     C_3   0.377298 0.326517 0.787982 -0.424972
H108  H     H_    0.363665 0.357842 0.889413 0.106912
H109  H     H_    0.381891 0.358348 0.682310 0.143352
H110  H     H_    0.336125 0.292208 0.758703 0.169731
H111  H     H_    0.455942 0.259127 0.722689 0.183586
H112  H     H_    0.430678 0.248115 0.913730 0.054130
C97   C     C_3   0.695261 0.430797 0.944845 -0.164933
C98   C     C_3   0.661008 0.498675 0.920180 -0.360097
H113  H     H_    0.691090 0.540595 0.969540 0.156515
H114  H     H_    0.648126 0.507277 0.794088 0.127991
H115  H     H_    0.614630 0.499607 0.984830 0.085643
H116  H     H_    0.656078 0.392595 0.927558 0.124877
H117  H     H_    0.715970 0.427567 0.067362 0.113165
C99   C     C_3   0.708149 0.547377 0.514930 -0.136672
C100  C     C_3   0.662558 0.491898 0.446530 -0.365124
H118  H     H_    0.656063 0.495006 0.316748 0.138515
H119  H     H_    0.683920 0.441914 0.471669 0.129049
H120  H     H_    0.613250 0.494589 0.499320 0.091975
H121  H     H_    0.742921 0.525463 0.603465 0.148148
H122  H     H_    0.678447 0.583275 0.581316 0.067509
C101  C     C_3   0.185659 0.940177 0.840631 -0.155162
C102  C     C_3   0.148966 0.003509 0.784896 -0.394891
H123  H     H_    0.181821 0.047830 0.784416 0.160426
H124  H     H_    0.127194 0.996096 0.664330 0.109869
H125  H     H_    0.108467 0.014522 0.864734 0.102688
H126  H     H_    0.151214 0.897172 0.828661 0.131559
H127  H     H_    0.200603 0.944631 0.967411 0.116699
C103  C     C_3   0.191936 0.067647 0.357165 -0.150676
C104  C     C_3   0.153923 0.007132 0.289736 -0.390782
H128  H     H_    0.125938 0.022222 0.180351 0.115504
H129  H     H_    0.186501 0.964715 0.260508 0.163207
H130  H     H_    0.119064 0.988533 0.377250 0.098932
H131  H     H_    0.206618 0.059021 0.482921 0.115605
H132  H     H_    0.158191 0.111439 0.352342 0.123016
C105  C     C_3   0.006007 0.163860 0.565788 -0.171302
C106  C     C_3   0.955118 0.116304 0.636865 -0.462658
H133  H     H_    0.904350 0.126840 0.590615 0.129615
H134  H     H_    0.967996 0.063223 0.614855 0.123234
H135  H     H_    0.954109 0.122323 0.765129 0.169136
H136  H     H_    0.056451 0.146288 0.601949 0.090161
H137  H     H_    0.998750 0.214199 0.616005 0.039289
C107  C     C_3   0.004535 0.848021 0.047160 -0.142982
C108  C     C_3   0.051826 0.905015 0.093674 -0.418883
H138  H     H_    0.042416 0.950860 0.023814 0.116840
H139  H     H_    0.042648 0.920541 0.214921 0.124301
H140  H     H_    0.103913 0.889023 0.085224 0.120898
H141  H     H_    0.954460 0.863064 0.083747 0.083020
H142  H     H_    0.018037 0.802983 0.116012 0.049637
C109  C     C_3   0.502863 0.637347 0.507970 -0.192199
C110  C     C_3   0.434787 0.662187 0.553622 -0.400539
H143  H     H_    0.430709 0.716221 0.526797 0.140208
H144  H     H_    0.393740 0.635533 0.490532 0.120876
H145  H     H_    0.428163 0.653906 0.680487 0.131415
H146  H     H_    0.508982 0.583856 0.540887 0.086449
H147  H     H_    0.540724 0.665470 0.576175 0.058523
C111  C     C_3   0.498477 0.335846 0.067585 -0.141328
C112  C     C_3   0.541372 0.391099 0.142049 -0.425859
H148  H     H_    0.531603 0.440360 0.087195 0.117173
H149  H     H_    0.527355 0.397452 0.264987 0.146525
H150  H     H_    0.594408 0.378297 0.138435 0.122071
H151  H     H_    0.446714 0.347147 0.098591 0.079881
H152  H     H_    0.510944 0.287468 0.124173 0.043529

loop_
_geom_bond_atom_site_label_1
_geom_bond_atom_site_label_2
_ccdc_geom_bond_type
O1    P1    D    
C51   C55   A    
C73   H9    S    
C101  C102  S    
C30   C38   A    
C17   H45   S    
O5    P5    S    
O15   P8    S    
C74   O30   S    
C25   C85   A    
C64   H84   S    
C71   H3    S    
C76   O32   S    
C20   H48   S    
C80   H20   S    
C99   C100  S    
C91   H102  S    
C3    H67   S    
C90   H94   S    
C105  H136  S    
C34   C88   A    
Ba1   O37   S    
C79   H27   S    
C5    C9    A    
Ba3   P3    S    
C7    C11   A    
Ba4   O15   S    
Ba1   O14   S    
Ba1   P1    S    
C48   O12   S    
C66   C70   S    
C111  C112  S    
C69   H1    S    
C67   O8    S    
C68   O7    S    
C76   C80   S    
C90   H95   S    
C99   H122  S    
Ba3   O20   S    
O29   P1    S    
Ba1   O18   S    
Ba4   O24   S    
C37   P6    S    
C21   C25   A    
C51   P12   S    
C5    P1    S    
C110  H145  S    
C67   H91   S    
C24   C28   A    
O22   P13   S    
C68   H92   S    
C69   C97   S    
C13   C17   A    
O37   P5    D    
C15   C19   A    
O14   P5    S    
C79   H23   S    
O18   P2    S    
C74   C78   S    
O44   P12   S    
C12   C16   A    
C106  H133  S    
C89   H97   S    
C32   C40   A    
C103  C104  S    
C78   H26   S    
Ba2   O42   S    
C9    H41   S    
C66   H86   S    
C3    H31   S    
Ba3   O3    S    
Ba1   O1    S    
C72   H8    S    
C74   H14   S    
Ba3   O23   S    
Ba4   O4    S    
C102  H124  S    
O16   P7    S    
O20   P4    S    
C47   O11   S    
C72   H4    S    
C42   H54   S    
C29   C57   A    
C37   C41   A    
O35   P16   S    
C62   H82   S    
C31   C59   A    
C32   C60   A    
C39   C43   A    
O25   P14   D    
C35   C85   A    
C33   C53   A    
C40   C44   A    
C65   H89   S    
C72   C103  S    
C97   H116  S    
C81   C89   S    
C36   C56   A    
C77   H25   S    
C46   H70   S    
C64   H80   S    
C47   H75   S    
Ba2   O38   S    
C86   H58   S    
C70   H6    S    
C28   C88   A    
C89   C90   S    
C41   H53   S    
C108  H139  S    
C82   C91   S    
C107  C108  S    
C92   H98   S    
C82   O34   S    
C4    H36   S    
C94   H103  S    
Ba2   O22   S    
C31   C39   A    
C45   H69   S    
C1    C81   S    
C96   H108  S    
C41   C49   A    
C80   H24   S    
C97   C98   S    
Ba4   P4    S    
C75   H11   S    
C2    H66   S    
C66   H90   S    
C15   P16   S    
C43   H55   S    
O34   P13   S    
C8    C12   A    
C6    C10   A    
C84   C111  S    
C112  H149  S    
C100  H119  S    
Ba4   O19   S    
Ba1   P5    S    
C4    C84   S    
C110  H144  S    
O46   P10   D    
C46   C62   S    
C71   H7    S    
Ba3   O16   S    
C47   C63   S    
C47   H71   S    
O40   P8    D    
C22   C26   A    
C27   C87   A    
C111  H152  S    
C107  H142  S    
C6    C26   A    
C68   H88   S    
Ba3   Ba4   S    
C12   H44   S    
C83   C93   S    
O11   P11   S    
Ba3   O39   S    
C14   C18   A    
O9    P9    S    
C95   H111  S    
Ba1   O13   S    
C20   C24   A    
C65   O6    S    
C76   H16   S    
C2    C82   S    
C9    C13   A    
C92   H100  S    
C14   P13   S    
C94   H105  S    
C103  H131  S    
C104  H130  S    
C93   H107  S    
C83   C109  S    
C1    H33   S    
C98   H113  S    
C3    H35   S    
O2    P2    D    
C24   C58   A    
C96   H110  S    
C74   H10   S    
Ba2   O13   S    
C70   H2    S    
O6    P6    S    
C8    P4    S    
C26   C86   A    
C73   O29   S    
C93   C94   S    
C11   C15   A    
O8    P8    S    
C76   H12   S    
C43   C51   A    
O41   P9    S    
C30   C58   A    
C44   C52   A    
C38   C42   A    
C64   H40   S    
C17   C21   A    
C65   H85   S    
C34   C54   A    
Ba2   P2    S    
C16   P15   S    
C3    C83   S    
C109  H147  S    
C63   H83   S    
C98   H115  S    
C46   H74   S    
C106  H134  S    
C65   C69   S    
C85   H57   S    
C70   C99   S    
C89   H96   S    
Ba2   O14   S    
C91   H101  S    
C7    P3    S    
O30   P2    S    
Ba2   O17   S    
C93   H106  S    
C6    P2    S    
C106  H135  S    
C50   P9    S    
O33   P14   S    
C2    H34   S    
O21   P14   S    
C49   C53   A    
C4    H32   S    
C90   H93   S    
C105  H137  S    
C23   C27   A    
C29   C33   A    
C84   O36   S    
C61   H77   S    
C31   C35   A    
C104  H128  S    
C45   H73   S    
C100  H118  S    
O45   P9    D    
O13   P6    S    
C54   H50   S    
O17   P1    S    
C73   C77   S    
C80   H28   S    
C35   C55   A    
C42   C50   A    
Ba4   P8    S    
C75   H15   S    
C48   H72   S    
C84   C95   S    
O36   P15   S    
C77   H17   S    
C99   H121  S    
C1    H65   S    
O32   P4    S    
C79   H19   S    
C4    H68   S    
Ba3   O43   S    
O19   P3    S    
Ba1   O41   S    
C109  H146  S    
O48   P12   D    
C61   H37   S    
C18   H46   S    
C53   H49   S    
C29   C37   A    
C73   H13   S    
C101  H126  S    
C112  H148  S    
O39   P7    D    
C56   H52   S    
C75   C79   S    
C46   O10   S    
C108  H138  S    
Ba4   O44   S    
O42   P10   S    
C39   P8    S    
C109  C110  S    
C52   C56   A    
C94   H104  S    
C105  C106  S    
C18   C22   A    
C77   H21   S    
C95   C96   S    
C36   C86   A    
C66   O5    S    
Ba3   P7    S    
C87   H59   S    
C10   C14   A    
C68   C72   S    
O23   P16   S    
C82   C107  S    
C45   C61   S    
O12   P12   S    
C78   H18   S    
C19   H47   S    
C102  H123  S    
C100  H120  S    
O43   P11   S    
C11   H43   S    
C1    H29   S    
Ba1   Ba2   S    
C21   C59   A    
C67   H87   S    
C81   O33   S    
C22   C60   A    
C23   C57   A    
C16   C20   A    
C88   H60   S    
Ba3   O15   S    
C83   O35   S    
Ba1   O21   S    
C48   C64   S    
C5    C25   A    
C75   O31   S    
C97   H117  S    
C7    C27   A    
C8    C28   A    
O28   P15   D    
C38   P5    S    
O7    P7    S    
C33   C87   A    
C95   H112  S    
C32   C36   A    
O31   P3    S    
C49   P10   S    
C78   H22   S    
C71   C101  S    
Ba2   P6    S    
C108  H140  S    
C10   H42   S    
C63   H79   S    
Ba4   O40   S    
O38   P6    D    
C58   H62   S    
C92   H99   S    
O27   P16   D    
O47   P11   D    
Ba2   O2    S    
Ba4   O16   S    
C91   C92   S    
C103  H132  S    
C104  H129  S    
C52   P11   S    
C69   H5    S    
C19   C23   A    
C98   H114  S    
C2    H30   S    
C40   P7    S    
C81   C105  S    
C50   C54   A    
C96   H109  S    
O10   P10   S    
C61   H81   S    
C30   C34   A    
C62   H78   S    
C102  H125  S    
C63   H39   S    
O4    P4    D    
C112  H150  S    
C60   H64   S    
C110  H143  S    
O24   P15   S    
C59   H63   S    
C48   H76   S    
C67   C71   S    
C45   O9    S    
C13   P14   S    
C44   H56   S    
C101  H127  S    
C55   H51   S    
C111  H151  S    
C107  H141  S    
C57   H61   S    
O26   P13   D    
O3    P3    D    
C62   H38   S    
