data_mof_unit_67680.cif
_audit_creation_date              2012-12-10T19:48:29-0500
_audit_creation_method            fapswitch 2.2
_symmetry_space_group_name_H-M    P1
_symmetry_Int_Tables_number       1
_space_group_crystal_system       triclinic
_cell_length_a                    10.819408
_cell_length_b                    10.634182
_cell_length_c                    9.449229
_cell_angle_alpha                 90.68167
_cell_angle_beta                  90.968582
_cell_angle_gamma                 92.481309
_cell_volume                      1085.92493532

loop_
_atom_site_label
_atom_site_type_symbol
_atom_type_description
_atom_site_fract_x
_atom_site_fract_y
_atom_site_fract_z
_atom_type_partial_charge
C1    C     C_R   0.499901 0.259765 0.499320 0.924809
C2    C     C_R   0.500098 0.740235 0.500680 0.924809
C3    C     C_R   0.871452 0.504731 0.502704 -0.263386
C4    C     C_R   0.128548 0.495269 0.497296 -0.263387
C5    C     C_R   0.944951 0.582613 0.595503 -0.076855
C6    C     C_R   0.055049 0.417386 0.404497 -0.076855
C7    C     C_3   0.572185 0.046490 0.604828 0.615930
C8    C     C_3   0.427815 0.953510 0.395172 0.615930
C9    C     C_3   0.617440 0.962987 0.482756 -0.469401
C10   C     C_3   0.382560 0.037013 0.517244 -0.469402
C11   C     C_3   0.500702 0.876706 0.501475 -0.399072
C12   C     C_3   0.499298 0.123294 0.498525 -0.399072
C13   C     C_3   0.457213 0.959422 0.623153 0.646972
C14   C     C_3   0.542787 0.040578 0.376847 0.646972
C15   C     C_3   0.426372 0.581356 0.049386 0.711765
C16   C     C_3   0.573628 0.418644 0.950614 0.711758
C17   C     C_3   0.389217 0.472626 0.946211 -0.288617
C18   C     C_3   0.610783 0.527374 0.053789 -0.288625
C19   C     C_3   0.535384 0.607533 0.953400 0.344512
C20   C     C_3   0.464616 0.392467 0.046600 0.344513
C21   C     C_R   0.262494 0.494831 0.498739 0.879360
C22   C     C_R   0.737506 0.505169 0.501261 0.879360
C23   C     C_R   0.139040 0.238040 0.074031 0.518038
C24   C     C_R   0.860962 0.761958 0.925970 0.518030
C25   C     C_R   0.122270 0.340768 0.164963 0.331926
C26   C     C_R   0.877731 0.659231 0.835037 0.331926
C27   C     C_R   0.105218 0.319703 0.311300 -0.246226
C28   C     C_R   0.894782 0.680296 0.688701 -0.246225
C29   C     C_R   0.105616 0.196472 0.362737 0.538318
C30   C     C_R   0.894384 0.803528 0.637264 0.538317
C31   C     C_R   0.120558 0.093775 0.271736 0.326543
C32   C     C_R   0.879442 0.906224 0.728265 0.326546
C33   C     C_R   0.139070 0.114107 0.125960 0.175288
C34   C     C_R   0.860932 0.885892 0.874041 0.175287
C35   C     C_R   0.926904 0.423091 0.408119 0.665013
C36   C     C_R   0.073096 0.576909 0.591881 0.665013
Cu1   Cu    Cu3+1 0.500030 0.499990 0.643150 1.118866
Cu2   Cu    Cu3+1 0.499970 0.500010 0.356850 1.118866
H1    H     H_    0.297175 0.450795 0.896497 0.271184
H2    H     H_    0.702825 0.549205 0.103503 0.271184
H3    H     H_    0.712486 0.931842 0.466353 0.272741
H4    H     H_    0.287514 0.068158 0.533648 0.272740
N1    N     N_3   0.500090 0.499970 0.858290 -0.282013
N2    N     N_3   0.499910 0.500030 0.141710 -0.282013
O1    O     O_R   0.500060 0.316850 0.620870 -0.533093
O2    O     O_R   0.499940 0.683150 0.379130 -0.533093
O3    O     O_R   0.500000 0.316860 0.379090 -0.505175
O4    O     O_R   0.500000 0.683140 0.620910 -0.505175
O5    O     O_R   0.319670 0.500010 0.620890 -0.534570
O6    O     O_R   0.680330 0.499990 0.379110 -0.534569
O7    O     O_R   0.319620 0.500010 0.379110 -0.574028
O8    O     O_R   0.680380 0.499990 0.620890 -0.574028
O9    O     O_3   0.154924 0.011963 0.037230 -0.607331
H5    H     H_    0.167005 0.041230 0.939109 0.410368
O10   O     O_3   0.845079 0.988035 0.962772 -0.607334
H6    H     H_    0.832999 0.958768 0.060893 0.410368
F1    F     F_    0.349829 0.668956 0.106045 -0.534417
F2    F     F_    0.650171 0.331044 0.893954 -0.534419
O11   O     O_3   0.572253 0.724511 0.898933 -0.630974
H7    H     H_    0.584664 0.781259 0.982411 0.377723
O12   O     O_3   0.427746 0.275489 0.101067 -0.630976
H8    H     H_    0.415345 0.218738 0.017589 0.377727
F3    F     F_    0.151432 0.259152 0.933415 -0.621297
F4    F     F_    0.848571 0.740847 0.066587 -0.621298
O13   O     O_3   0.117752 0.458568 0.105345 -0.592585
H9    H     H_    0.115650 0.523706 0.180782 0.376114
O14   O     O_3   0.882250 0.541431 0.894656 -0.592584
H10   H     H_    0.884351 0.476293 0.819218 0.376113
F5    F     F_    0.081299 0.175020 0.501213 -0.570525
F6    F     F_    0.918700 0.824979 0.498787 -0.570526
O15   O     O_3   0.111166 0.974823 0.328832 -0.548191
H11   H     H_    0.113277 0.910555 0.252370 0.427980
O16   O     O_3   0.888833 0.025177 0.671169 -0.548191
H12   H     H_    0.886722 0.089443 0.747632 0.427980
F7    F     F_    0.855673 0.344583 0.322282 -0.590199
F8    F     F_    0.144326 0.655416 0.677717 -0.590199
F9    F     F_    0.643482 0.097434 0.715635 -0.538303
F10   F     F_    0.356518 0.902566 0.284365 -0.538302
F11   F     F_    0.414325 0.915960 0.751426 -0.527178
F12   F     F_    0.585674 0.084040 0.248574 -0.527180

loop_
_geom_bond_atom_site_label_1
_geom_bond_atom_site_label_2
_ccdc_geom_bond_type
C7    C13   S    
O10   H6    S    
C13   F11   S    
C10   H4    S    
O16   H12   S    
C21   O5    A    
O9    H5    S    
C2    O2    A    
C15   C19   S    
C35   F7    S    
C26   O14   S    
C24   C26   A    
C15   N2    S    
C27   C29   A    
C5    C36   A    
C17   C20   S    
C6    C35   A    
C15   C17   S    
C18   C19   S    
C17   H1    S    
C20   O12   S    
C18   H2    S    
C36   F8    S    
C30   F6    S    
C23   C33   A    
C31   C33   A    
C14   F12   S    
C7    F9    S    
C23   F3    S    
O11   H7    S    
C24   F4    S    
C8    F10   S    
C15   F1    S    
C1    C12   S    
C2    C11   S    
C20   N2    S    
C19   N1    S    
C29   F5    S    
C33   O9    S    
C7    C12   S    
O14   H10   S    
C25   O13   S    
C4    C36   A    
C4    C6    A    
C32   O16   S    
Cu1   O8    S    
C1    O3    A    
Cu2   O7    S    
C19   O11   S    
C24   C34   A    
C32   C34   A    
Cu1   N1    S    
C9    C14   S    
C17   N1    S    
Cu2   N2    S    
Cu1   Cu2   S    
C18   N2    S    
C5    C28   S    
Cu1   O5    S    
C6    C27   S    
C3    C35   A    
C16   C20   S    
C16   F2    S    
Cu1   O4    S    
C9    C11   S    
C16   N1    S    
Cu2   O3    S    
C10   C12   S    
C16   C18   S    
C12   C14   S    
Cu1   O1    S    
C21   O7    A    
C22   O8    A    
C7    C9    S    
C8    C14   S    
C9    H3    S    
C3    C5    A    
C10   C13   S    
Cu2   O6    S    
C25   C27   A    
C26   C28   A    
C22   O6    A    
C2    O4    A    
C28   C30   A    
O15   H11   S    
C29   C31   A    
C30   C32   A    
C4    C21   S    
C11   C13   S    
C1    O1    A    
C8    C11   S    
C31   O15   S    
C23   C25   A    
O12   H8    S    
Cu2   O2    S    
C34   O10   S    
C8    C10   S    
O13   H9    S    
C3    C22   S    
