data_mof_unit_58021.cif
_audit_creation_date              2012-12-11T16:07:15-0500
_audit_creation_method            fapswitch 2.2
_symmetry_space_group_name_H-M    P1
_symmetry_Int_Tables_number       1
_space_group_crystal_system       tetragonal
_cell_length_a                    17.206445
_cell_length_b                    17.206445
_cell_length_c                    17.428527
_cell_angle_alpha                 90.0
_cell_angle_beta                  90.0
_cell_angle_gamma                 90.0
_cell_volume                      5159.92019549

loop_
_atom_site_label
_atom_site_type_symbol
_atom_type_description
_atom_site_fract_x
_atom_site_fract_y
_atom_site_fract_z
_atom_type_partial_charge
C1    C     C_R   0.414822 0.677081 0.640146 0.512002
C2    C     C_R   0.609246 0.700027 0.596778 0.574366
C3    C     C_3   0.744096 0.255904 0.725912 -0.148198
C4    C     C_3   0.796920 0.796920 0.368900 -0.128514
C5    C     C_3   0.203080 0.203080 0.631100 -0.128515
C6    C     C_3   0.744095 0.255903 0.274088 -0.148197
C7    C     C_3   0.255904 0.744096 0.725912 -0.148198
C8    C     C_3   0.755904 0.755904 0.774088 -0.148197
C9    C     C_3   0.244096 0.244096 0.225912 -0.148198
C10   C     C_3   0.703080 0.296920 0.868900 -0.128514
C11   C     C_3   0.296921 0.703081 0.131100 -0.128514
C12   C     C_3   0.244096 0.244096 0.774088 -0.148197
C13   C     C_R   0.677081 0.414822 0.359853 0.512002
C14   C     C_3   0.755904 0.755904 0.225912 -0.148197
C15   C     C_3   0.296920 0.703080 0.868900 -0.128515
C16   C     C_3   0.703081 0.296921 0.131100 -0.128514
C17   C     C_R   0.322919 0.585178 0.640146 0.512003
C18   C     C_R   0.609246 0.700027 0.403222 0.574366
C19   C     C_R   0.390754 0.299973 0.596778 0.574366
C20   C     C_R   0.322919 0.585178 0.359853 0.512003
C21   C     C_R   0.677081 0.414822 0.640146 0.512002
C22   C     C_R   0.890753 0.200027 0.096778 0.574365
C23   C     C_R   0.109246 0.799973 0.903222 0.574366
C24   C     C_R   0.177081 0.085178 0.140146 0.512003
C25   C     C_R   0.585178 0.322919 0.359853 0.512002
C26   C     C_R   0.822919 0.914822 0.859854 0.512003
C27   C     C_R   0.109246 0.799973 0.096778 0.574366
C28   C     C_R   0.890753 0.200027 0.903222 0.574366
C29   C     C_R   0.822919 0.914822 0.140146 0.512002
C30   C     C_R   0.177081 0.085178 0.859854 0.512002
C31   C     C_R   0.914822 0.822919 0.859854 0.512003
C32   C     C_R   0.085178 0.177081 0.140146 0.512003
C33   C     C_R   0.200027 0.890753 0.903222 0.574366
C34   C     C_R   0.799973 0.109246 0.096778 0.574366
C35   C     C_R   0.085178 0.177081 0.859854 0.512003
C36   C     C_R   0.700027 0.609246 0.596778 0.574366
C37   C     C_R   0.914822 0.822919 0.140146 0.512003
C38   C     C_R   0.799973 0.109246 0.903222 0.574366
C39   C     C_R   0.200027 0.890753 0.096778 0.574365
C40   C     C_3   0.263621 0.263621 0.345567 0.219996
C41   C     C_3   0.736379 0.736379 0.654433 0.219996
C42   C     C_3   0.316704 0.683296 0.252261 0.235503
C43   C     C_3   0.683296 0.316704 0.747739 0.235503
C44   C     C_3   0.736379 0.736379 0.345567 0.219996
C45   C     C_3   0.263621 0.263621 0.654433 0.219996
C46   C     C_3   0.683296 0.316704 0.252261 0.235503
C47   C     C_R   0.299973 0.390754 0.403222 0.574366
C48   C     C_3   0.316704 0.683296 0.747739 0.235503
C49   C     C_3   0.816704 0.816704 0.752261 0.235503
C50   C     C_3   0.183296 0.183296 0.247739 0.235503
C51   C     C_3   0.763621 0.236379 0.845567 0.219996
C52   C     C_3   0.236379 0.763621 0.154433 0.219996
C53   C     C_3   0.183296 0.183296 0.752261 0.235503
C54   C     C_3   0.816704 0.816704 0.247739 0.235504
C55   C     C_3   0.236379 0.763621 0.845567 0.219996
C56   C     C_3   0.763621 0.236379 0.154433 0.219996
C57   C     C_R   0.353980 0.646020 0.682687 -0.391632
C58   C     C_R   0.585178 0.322919 0.640146 0.512003
C59   C     C_R   0.646020 0.353980 0.317312 -0.391632
C60   C     C_R   0.686890 0.686890 0.608466 -0.447673
C61   C     C_R   0.313109 0.313109 0.391534 -0.447673
C62   C     C_R   0.646020 0.353980 0.682687 -0.391632
C63   C     C_R   0.353980 0.646020 0.317313 -0.391632
C64   C     C_R   0.313109 0.313109 0.608466 -0.447673
C65   C     C_R   0.686890 0.686890 0.391534 -0.447673
C66   C     C_R   0.813110 0.186890 0.108466 -0.447673
C67   C     C_R   0.186890 0.813110 0.891534 -0.447673
C68   C     C_R   0.146020 0.146020 0.182687 -0.391633
C69   C     C_R   0.414822 0.677081 0.359854 0.512002
C70   C     C_R   0.853980 0.853980 0.817313 -0.391632
C71   C     C_R   0.186890 0.813110 0.108466 -0.447673
C72   C     C_R   0.813110 0.186890 0.891534 -0.447673
C73   C     C_R   0.853980 0.853980 0.182687 -0.391632
C74   C     C_R   0.146020 0.146020 0.817313 -0.391632
C75   C     C_3   0.791255 0.701044 0.714236 -0.171239
C76   C     C_3   0.208744 0.298956 0.285764 -0.171238
C77   C     C_3   0.647343 0.262421 0.807901 -0.174956
C78   C     C_3   0.352657 0.737580 0.192100 -0.174956
C79   C     C_3   0.208745 0.298956 0.714236 -0.171239
C80   C     C_R   0.299973 0.390754 0.596778 0.574366
C81   C     C_3   0.791255 0.701044 0.285764 -0.171238
C82   C     C_3   0.352657 0.737579 0.807901 -0.174956
C83   C     C_3   0.647343 0.262422 0.192098 -0.174958
C84   C     C_3   0.737580 0.352657 0.192100 -0.174955
C85   C     C_3   0.262421 0.647343 0.807901 -0.174956
C86   C     C_3   0.701044 0.791255 0.285764 -0.171238
C87   C     C_3   0.298956 0.208745 0.714236 -0.171238
C88   C     C_3   0.262422 0.647343 0.192098 -0.174958
C89   C     C_3   0.737579 0.352657 0.807901 -0.174956
C90   C     C_3   0.298956 0.208744 0.285764 -0.171238
C91   C     C_R   0.700027 0.609246 0.403222 0.574366
C92   C     C_3   0.701044 0.791255 0.714236 -0.171239
C93   C     C_3   0.237579 0.147343 0.307901 -0.174956
C94   C     C_3   0.762421 0.852657 0.692099 -0.174957
C95   C     C_3   0.201044 0.708744 0.214235 -0.171237
C96   C     C_3   0.798956 0.291255 0.785764 -0.171238
C97   C     C_3   0.762421 0.852657 0.307901 -0.174957
C98   C     C_3   0.237579 0.147343 0.692099 -0.174956
C99   C     C_3   0.798956 0.291254 0.214237 -0.171239
C100  C     C_3   0.201044 0.708745 0.785764 -0.171238
C101  C     C_3   0.291255 0.798956 0.785764 -0.171238
C102  C     C_R   0.390754 0.299973 0.403222 0.574366
C103  C     C_3   0.708744 0.201044 0.214235 -0.171238
C104  C     C_3   0.147343 0.237579 0.692099 -0.174956
C105  C     C_3   0.852657 0.762421 0.307901 -0.174957
C106  C     C_3   0.708745 0.201044 0.785764 -0.171238
C107  C     C_3   0.291254 0.798956 0.214237 -0.171239
C108  C     C_3   0.852657 0.762421 0.692099 -0.174957
C109  C     C_3   0.147343 0.237579 0.307901 -0.174956
C110  C     C_3   0.203080 0.203080 0.368900 -0.128514
C111  C     C_3   0.796920 0.796920 0.631100 -0.128513
C112  C     C_3   0.255903 0.744095 0.274088 -0.148198
H1    H     H_    0.187752 0.187752 0.428823 0.104761
H2    H     H_    0.260442 0.260442 0.166401 0.129974
H3    H     H_    0.687752 0.312248 0.928822 0.104761
H4    H     H_    0.312249 0.687754 0.071177 0.104760
H5    H     H_    0.260442 0.260442 0.833599 0.129974
H6    H     H_    0.739558 0.739558 0.166401 0.129974
H7    H     H_    0.312248 0.687752 0.928822 0.104761
H8    H     H_    0.687754 0.312249 0.071177 0.104761
H9    H     H_    0.802731 0.638295 0.723850 0.151696
H10   H     H_    0.197269 0.361705 0.276150 0.151696
H11   H     H_    0.584331 0.252249 0.817203 0.129004
H12   H     H_    0.812248 0.812248 0.571177 0.104760
H13   H     H_    0.415668 0.747753 0.182798 0.129005
H14   H     H_    0.197269 0.361705 0.723850 0.151696
H15   H     H_    0.802731 0.638295 0.276150 0.151696
H16   H     H_    0.415669 0.747751 0.817203 0.129004
H17   H     H_    0.584331 0.252251 0.182795 0.129003
H18   H     H_    0.747753 0.415669 0.182798 0.129005
H19   H     H_    0.252249 0.584331 0.817203 0.129004
H20   H     H_    0.638295 0.802731 0.276150 0.151696
H21   H     H_    0.361705 0.197269 0.723850 0.151696
H22   H     H_    0.252251 0.584331 0.182795 0.129003
H23   H     H_    0.239556 0.760441 0.333599 0.129974
H24   H     H_    0.747751 0.415669 0.817203 0.129004
H25   H     H_    0.361705 0.197269 0.276150 0.151696
H26   H     H_    0.638295 0.802731 0.723850 0.151696
H27   H     H_    0.247751 0.084331 0.317203 0.129004
H28   H     H_    0.752249 0.915669 0.682797 0.129004
H29   H     H_    0.138295 0.697267 0.223848 0.151696
H30   H     H_    0.861705 0.302731 0.776150 0.151696
H31   H     H_    0.752249 0.915669 0.317203 0.129004
H32   H     H_    0.247751 0.084331 0.682797 0.129004
H33   H     H_    0.861706 0.302729 0.223851 0.151696
H34   H     H_    0.760442 0.239558 0.666401 0.129974
H35   H     H_    0.138294 0.697269 0.776150 0.151696
H36   H     H_    0.302731 0.861705 0.776150 0.151696
H37   H     H_    0.697267 0.138295 0.223848 0.151697
H38   H     H_    0.084331 0.247751 0.682797 0.129004
H39   H     H_    0.915669 0.752249 0.317203 0.129004
H40   H     H_    0.697269 0.138294 0.776150 0.151696
H41   H     H_    0.302729 0.861706 0.223851 0.151696
H42   H     H_    0.915669 0.752249 0.682797 0.129004
H43   H     H_    0.084331 0.247751 0.317203 0.129004
H44   H     H_    0.421026 0.779188 0.686062 0.316490
H45   H     H_    0.812248 0.812248 0.428822 0.104761
H46   H     H_    0.578973 0.220813 0.313937 0.316491
H47   H     H_    0.811091 0.618546 0.581392 0.312130
H48   H     H_    0.188909 0.381454 0.418608 0.312130
H49   H     H_    0.578974 0.220812 0.686061 0.316491
H50   H     H_    0.421025 0.779188 0.313940 0.316490
H51   H     H_    0.188909 0.381454 0.581393 0.312130
H52   H     H_    0.811091 0.618546 0.418607 0.312130
H53   H     H_    0.381454 0.188909 0.418608 0.312130
H54   H     H_    0.618546 0.811091 0.581392 0.312130
H55   H     H_    0.779188 0.421025 0.313940 0.316491
H56   H     H_    0.187752 0.187752 0.571178 0.104761
H57   H     H_    0.220812 0.578974 0.686061 0.316490
H58   H     H_    0.618546 0.811091 0.418607 0.312130
H59   H     H_    0.381454 0.188909 0.581393 0.312130
H60   H     H_    0.220813 0.578973 0.313937 0.316490
H61   H     H_    0.779188 0.421026 0.686062 0.316490
H62   H     H_    0.881454 0.311091 0.081393 0.312130
H63   H     H_    0.118546 0.688909 0.918607 0.312130
H64   H     H_    0.279188 0.078974 0.186062 0.316490
H65   H     H_    0.720812 0.921026 0.813938 0.316490
H66   H     H_    0.118546 0.688909 0.081392 0.312130
H67   H     H_    0.760441 0.239556 0.333599 0.129973
H68   H     H_    0.881454 0.311091 0.918607 0.312130
H69   H     H_    0.720812 0.921026 0.186062 0.316490
H70   H     H_    0.279188 0.078974 0.813938 0.316490
H71   H     H_    0.921026 0.720812 0.813938 0.316490
H72   H     H_    0.078974 0.279188 0.186062 0.316490
H73   H     H_    0.311091 0.881454 0.918607 0.312130
H74   H     H_    0.688909 0.118546 0.081392 0.312130
H75   H     H_    0.078974 0.279188 0.813938 0.316491
H76   H     H_    0.921026 0.720812 0.186062 0.316491
H77   H     H_    0.688909 0.118546 0.918607 0.312130
H78   H     H_    0.239558 0.760442 0.666401 0.129974
H79   H     H_    0.311091 0.881454 0.081393 0.312130
H80   H     H_    0.739558 0.739558 0.833599 0.129973
N1    N     N_R   0.424590 0.632770 0.578330 -0.106100
N2    N     N_R   0.575410 0.632770 0.578330 -0.128999
N3    N     N_R   0.632770 0.424590 0.421670 -0.106100
N4    N     N_R   0.367230 0.575410 0.578330 -0.106101
N5    N     N_R   0.575410 0.632770 0.421670 -0.128999
N6    N     N_R   0.424590 0.367230 0.578330 -0.128999
N7    N     N_R   0.367230 0.575410 0.421670 -0.106100
N8    N     N_R   0.632770 0.424590 0.578330 -0.106100
N9    N     N_R   0.924590 0.132770 0.078330 -0.128999
N10   N     N_R   0.075410 0.867230 0.921670 -0.128999
N11   N     N_R   0.132770 0.075410 0.078330 -0.106100
N12   N     N_R   0.575410 0.367230 0.421670 -0.106100
N13   N     N_R   0.867230 0.924590 0.921670 -0.106101
N14   N     N_R   0.075410 0.867230 0.078330 -0.128999
N15   N     N_R   0.924590 0.132770 0.921670 -0.128999
N16   N     N_R   0.867230 0.924590 0.078330 -0.106101
N17   N     N_R   0.132770 0.075410 0.921670 -0.106100
N18   N     N_R   0.924590 0.867230 0.921670 -0.106101
N19   N     N_R   0.075410 0.132770 0.078330 -0.106100
N20   N     N_R   0.132770 0.924590 0.921670 -0.128999
N21   N     N_R   0.867230 0.075410 0.078330 -0.128999
N22   N     N_R   0.075410 0.132770 0.921670 -0.106101
N23   N     N_R   0.632770 0.575410 0.578330 -0.128999
N24   N     N_R   0.924590 0.867230 0.078330 -0.106101
N25   N     N_R   0.867230 0.075410 0.921670 -0.128999
N26   N     N_R   0.132770 0.924590 0.078330 -0.128999
N27   N     N_R   0.367230 0.424590 0.421670 -0.128999
N28   N     N_R   0.575410 0.367230 0.578330 -0.106101
N29   N     N_R   0.424590 0.632770 0.421670 -0.106101
N30   N     N_R   0.367230 0.424590 0.578330 -0.128999
N31   N     N_R   0.632770 0.575410 0.421670 -0.128999
N32   N     N_R   0.424590 0.367230 0.421670 -0.128999
Ni1   Ni    Ni4+2 0.500000 0.631570 0.500000 0.290506
Ni2   Ni    Ni4+2 0.500000 0.368430 0.500000 0.290506
Ni3   Ni    Ni4+2 0.631570 0.500000 0.500000 0.290506
Ni4   Ni    Ni4+2 0.368430 0.500000 0.500000 0.290506
Ni5   Ni    Ni4+2 0.000000 0.131570 0.000000 0.290506
Ni6   Ni    Ni4+2 0.000000 0.868430 0.000000 0.290506
Ni7   Ni    Ni4+2 0.131570 0.000000 0.000000 0.290506
Ni8   Ni    Ni4+2 0.868430 0.000000 0.000000 0.290506
O1    O     O_3   0.451321 0.747296 0.649902 -0.697896
O2    O     O_3   0.577206 0.771066 0.578895 -0.648860
O3    O     O_3   0.747296 0.451321 0.350098 -0.697896
O4    O     O_3   0.252704 0.548679 0.649902 -0.697896
O5    O     O_3   0.577206 0.771066 0.421105 -0.648860
O6    O     O_3   0.422794 0.228934 0.578895 -0.648860
O7    O     O_3   0.252704 0.548679 0.350097 -0.697897
O8    O     O_3   0.747296 0.451321 0.649902 -0.697896
O9    O     O_3   0.922794 0.271066 0.078895 -0.648859
O10   O     O_3   0.077206 0.728934 0.921105 -0.648860
O11   O     O_3   0.247296 0.048679 0.149902 -0.697896
O12   O     O_3   0.548679 0.252704 0.350097 -0.697896
O13   O     O_3   0.752704 0.951321 0.850097 -0.697896
O14   O     O_3   0.077206 0.728934 0.078895 -0.648860
O15   O     O_3   0.922794 0.271066 0.921105 -0.648860
O16   O     O_3   0.752704 0.951321 0.149902 -0.697896
O17   O     O_3   0.247296 0.048679 0.850097 -0.697896
O18   O     O_3   0.951321 0.752704 0.850097 -0.697896
O19   O     O_3   0.048679 0.247296 0.149902 -0.697896
O20   O     O_3   0.271066 0.922794 0.921105 -0.648860
O21   O     O_3   0.728934 0.077206 0.078895 -0.648860
O22   O     O_3   0.048679 0.247296 0.850097 -0.697897
O23   O     O_3   0.771066 0.577206 0.578895 -0.648860
O24   O     O_3   0.951321 0.752704 0.149902 -0.697897
O25   O     O_3   0.728934 0.077206 0.921105 -0.648860
O26   O     O_3   0.271066 0.922794 0.078895 -0.648859
O27   O     O_3   0.228934 0.422794 0.421105 -0.648860
O28   O     O_3   0.548679 0.252704 0.649902 -0.697896
O29   O     O_3   0.451321 0.747296 0.350098 -0.697896
O30   O     O_3   0.228934 0.422794 0.578895 -0.648860
O31   O     O_3   0.771066 0.577206 0.421105 -0.648860
O32   O     O_3   0.422794 0.228934 0.421105 -0.648860

loop_
_geom_bond_atom_site_label_1
_geom_bond_atom_site_label_2
_ccdc_geom_bond_type
C58   C62   A    
H63   O10   S    
N4    Ni4   S    
C35   C74   A    
H54   O2    S    
H57   O4    S    
C46   C59   S    
N14   Ni6   S    
C11   C88   S    
C94   H28   S    
C107  C112  S    
C87   H21   S    
C39   N26   A    
C53   C74   S    
H47   O23   S    
C25   N12   A    
C92   H26   S    
N25   Ni8   S    
C34   C66   A    
C30   N17   A    
N20   Ni7   S    
H61   O8    S    
C102  N32   A    
C48   C57   S    
C24   N11   A    
C26   C70   A    
N14   N26   A    
C18   C65   A    
H55   O3    S    
C32   O19   S    
C3    C43   S    
C43   C89   S    
C29   N16   A    
C83   C103  S    
C52   C95   S    
C34   O21   S    
C77   H11   S    
C9    H2    S    
N13   N18   A    
N2    Ni1   S    
C77   C106  S    
C45   C87   S    
H70   O17   S    
C83   H17   S    
C7    C101  S    
C95   C112  S    
C16   H8    S    
C36   N23   A    
C30   C74   A    
C33   N20   A    
N31   Ni3   S    
C25   O12   S    
C29   C73   A    
C53   C104  S    
C23   C67   A    
C23   O10   S    
H52   O31   S    
N29   Ni1   S    
C94   C111  S    
C16   C84   S    
C24   O11   S    
N17   Ni7   S    
C5    H56   S    
C104  H38   S    
C86   C97   S    
C42   C112  S    
C22   C66   A    
C91   O31   S    
C11   C52   S    
C41   C60   S    
H62   O9    S    
C50   C68   S    
N27   N32   A    
H66   O14   S    
C58   N28   A    
C2    O2    S    
C31   C70   A    
H65   O13   S    
C63   C69   A    
C10   C89   S    
C1    O1    S    
C76   C109  S    
C14   H6    S    
C55   C100  S    
C35   O22   S    
N24   Ni6   S    
C15   H7    S    
C54   C97   S    
C3    C96   S    
C8    C92   S    
C9    C76   S    
C49   C94   S    
C15   C82   S    
N19   Ni5   S    
N7    Ni4   S    
H44   O1    S    
C37   N24   A    
C69   N29   A    
C12   C53   S    
C22   N9    A    
C18   O5    S    
C51   C96   S    
C32   C68   A    
C87   C98   S    
C98   H32   S    
C37   O24   S    
N9    Ni5   S    
C99   H33   S    
C5    C104  S    
C75   C108  S    
N16   N24   A    
C89   H24   S    
C4    C97   S    
C81   H15   S    
C64   C80   A    
C38   N25   A    
N11   N19   A    
C44   C65   S    
C28   C72   A    
C2    C60   A    
C44   C86   S    
C10   C51   S    
C40   C90   S    
N10   N20   A    
C10   C77   S    
C49   C108  S    
C81   C105  S    
C3    C106  S    
C105  H39   S    
C38   C72   A    
H69   O16   S    
C36   O23   S    
N15   N25   A    
C7    C100  S    
C23   N10   A    
H72   O19   S    
H76   O24   S    
C80   O30   S    
C14   C86   S    
H74   O21   S    
C45   C79   S    
C44   C81   S    
C19   O6    S    
C47   O27   S    
N2    N23   A    
C32   N19   A    
C103  H37   S    
N15   Ni5   S    
C40   C110  S    
N3    N12   A    
C4    C44   S    
H50   O29   S    
C36   C60   A    
C5    C45   S    
C8    C75   S    
C40   C61   S    
C40   C76   S    
C31   O18   S    
C58   O28   S    
C78   C107  S    
C2    N2    A    
N8    Ni3   S    
C15   C55   S    
C33   O20   S    
C1    N1    A    
N3    Ni3   S    
C16   C56   S    
C20   N7    A    
H79   O26   S    
C93   H27   S    
C39   O26   S    
C1    C57   A    
C41   C75   S    
C54   C73   S    
C55   C67   S    
C4    H45   S    
N30   Ni4   S    
C19   C64   A    
N1    N4    A    
N9    N21   A    
C21   O8    S    
C18   N5    A    
C92   C94   S    
N18   Ni6   S    
H53   O32   S    
N28   Ni2   S    
C7    H78   S    
H46   O12   S    
C6    C103  S    
C26   O13   S    
H75   O22   S    
C11   H4    S    
C110  H1    S    
C82   H16   S    
C21   C62   A    
C107  H41   S    
N21   Ni8   S    
N16   Ni8   S    
H64   O11   S    
N7    N29   A    
H49   O28   S    
C14   C54   S    
H58   O5    S    
C95   H29   S    
C49   C70   S    
C41   C111  S    
N8    N28   A    
C29   O16   S    
C101  H36   S    
C79   C104  S    
C27   O14   S    
C106  H40   S    
C42   C88   S    
C51   C72   S    
C21   N8    A    
C91   N31   A    
C38   O25   S    
C13   O3    S    
C90   H25   S    
C27   C71   A    
C33   C67   A    
C90   C93   S    
C15   C85   S    
C17   O4    S    
C65   C91   A    
C37   C73   A    
C19   N6    A    
C6    C46   S    
C54   C105  S    
N6    N30   A    
C111  H12   S    
C75   H9    S    
C84   C99   S    
C102  O32   S    
C79   H14   S    
C9    C50   S    
C56   C103  S    
C52   C107  S    
N5    N31   A    
C34   N21   A    
N32   Ni2   S    
C9    C90   S    
C47   C61   A    
C69   O29   S    
C100  H35   S    
C30   O17   S    
C50   C93   S    
C97   H31   S    
C13   C59   A    
H59   O6    S    
H77   O25   S    
C53   C98   S    
C43   C77   S    
C20   O7    S    
C25   C59   A    
C4    C105  S    
C55   C101  S    
C45   C64   S    
N27   Ni4   S    
N17   N22   A    
C14   C81   S    
C108  C111  S    
N10   Ni6   S    
C27   N14   A    
C76   H10   S    
C6    C99   S    
C20   C63   A    
C61   C102  A    
H71   O18   S    
N1    Ni1   S    
C12   C87   S    
C52   C71   S    
C109  C110  S    
C7    C48   S    
H73   O20   S    
N11   Ni7   S    
N22   Ni5   S    
C86   H20   S    
H48   O27   S    
C31   N18   A    
C47   N27   A    
C6    H67   S    
C8    H80   S    
C51   C106  S    
C56   C66   S    
C8    C49   S    
H51   O30   S    
C84   H18   S    
C88   H22   S    
C82   C101  S    
C48   C82   S    
C46   C84   S    
N23   Ni3   S    
C16   C83   S    
C11   C78   S    
H68   O15   S    
C109  H43   S    
C35   N22   A    
N26   Ni7   S    
C88   C95   S    
C50   C109  S    
C24   C68   A    
C96   H30   S    
C46   C83   S    
C26   N13   A    
H60   O7    S    
C41   C92   S    
C108  H42   S    
C5    C98   S    
C3    H34   S    
C13   N3    A    
C17   C57   A    
C85   C100  S    
C28   N15   A    
C39   C71   A    
C48   C85   S    
C42   C78   S    
C17   N4    A    
N13   Ni8   S    
C12   H5    S    
C112  H23   S    
C56   C99   S    
C89   C96   S    
C78   H13   S    
N12   Ni2   S    
C42   C63   S    
C28   O15   S    
C22   O9    S    
C85   H19   S    
C10   H3    S    
N6    Ni2   S    
C43   C62   S    
C80   N30   A    
C12   C79   S    
C93   C110  S    
N5    Ni1   S    
