data_mof_unit_21151.cif
_audit_creation_date              2012-12-10T17:33:03-0500
_audit_creation_method            fapswitch 2.2
_symmetry_space_group_name_H-M    P1
_symmetry_Int_Tables_number       1
_space_group_crystal_system       triclinic
_cell_length_a                    12.363234
_cell_length_b                    13.267307
_cell_length_c                    14.173893
_cell_angle_alpha                 93.584273
_cell_angle_beta                  107.325244
_cell_angle_gamma                 117.128278
_cell_volume                      1920.69505739

loop_
_atom_site_label
_atom_site_type_symbol
_atom_type_description
_atom_site_fract_x
_atom_site_fract_y
_atom_site_fract_z
_atom_type_partial_charge
C1    C     C_R   0.650891 0.714155 0.508645 0.803631
C2    C     C_R   0.853685 0.508006 0.920348 0.024327
C3    C     C_R   0.795411 0.509567 0.992701 0.114221
C4    C     C_R   0.965965 0.494215 0.946847 -0.091498
C5    C     C_R   0.025395 0.492770 0.049183 -0.004231
C6    C     C_R   0.974588 0.510005 0.121939 -0.219224
C7    C     C_R   0.857614 0.512775 0.094031 0.348585
C8    C     C_R   0.020956 0.480472 0.875163 0.603153
C9    C     C_R   0.142355 0.488170 0.907347 -0.228982
C10   C     C_R   0.203315 0.491013 0.007890 -0.093992
C11   C     C_R   0.138757 0.480507 0.077100 0.079029
C12   C     C_R   0.618186 0.517120 0.686987 0.792148
C13   C     C_R   0.324787 0.497002 0.037880 -0.173062
C14   C     C_R   0.383545 0.490911 0.135859 0.353002
C15   C     C_R   0.187340 0.453324 0.169577 0.326819
C16   C     C_R   0.135893 0.965424 0.357808 -0.262114
C17   C     C_R   0.247506 0.161563 0.460471 -0.170290
C18   C     C_R   0.730534 0.921758 0.574454 -0.297424
C19   C     C_R   0.820504 0.040067 0.592673 0.471171
C20   C     C_R   0.920324 0.073389 0.554685 -0.182725
C21   C     C_R   0.929814 0.990198 0.494921 0.017149
C22   C     C_R   0.828405 0.872649 0.466004 0.059306
C23   C     C_R   0.344659 0.284994 0.484022 0.839669
C24   C     C_R   0.036026 0.020207 0.461849 0.107574
C25   C     C_R   0.031804 0.936400 0.391332 0.062775
C26   C     C_R   0.922769 0.825268 0.353636 -0.194407
C27   C     C_R   0.821875 0.794019 0.389593 -0.154418
C28   C     C_R   0.147636 0.130769 0.498296 -0.341966
C29   C     C_R   0.243003 0.077836 0.391381 0.605879
C30   C     C_R   0.735484 0.837516 0.513558 -0.141336
C31   C     C_R   0.253783 0.686048 0.662090 -0.296623
C32   C     C_R   0.654974 0.342335 0.362743 0.130515
C33   C     C_R   0.732604 0.307920 0.332007 -0.208943
C34   C     C_R   0.380895 0.481337 0.312574 0.813682
C35   C     C_R   0.867743 0.367053 0.383496 -0.200749
C36   C     C_R   0.927787 0.462456 0.466892 -0.002667
C37   C     C_R   0.843839 0.495018 0.495430 0.309997
C38   C     C_R   0.067398 0.526793 0.522809 -0.026515
C39   C     C_R   0.119041 0.621701 0.605559 0.188371
C40   C     C_R   0.036253 0.652381 0.631636 -0.227870
C41   C     C_R   0.902355 0.590947 0.577849 -0.143916
C42   C     C_R   0.159246 0.501832 0.500975 0.039121
C43   C     C_R   0.338166 0.657159 0.636804 0.066810
C44   C     C_R   0.680080 0.521347 0.793946 -0.075853
C45   C     C_R   0.316054 0.471697 0.203975 -0.259034
C46   C     C_R   0.677846 0.512828 0.963068 -0.130729
C47   C     C_R   0.618812 0.515499 0.863559 -0.230285
C48   C     C_R   0.799908 0.524852 0.824716 -0.149320
Cu1   Cu    Cu3+1 0.416420 0.526630 0.522910 0.944157
Cu2   Cu    Cu3+1 0.583580 0.473370 0.477090 0.976869
H1    H     H_    0.375059 0.507145 0.985111 0.156354
H2    H     H_    0.915732 0.761871 0.296571 0.176099
H3    H     H_    0.132776 0.901833 0.303605 0.166789
H4    H     H_    0.159572 0.195580 0.556284 0.176335
H5    H     H_    0.658091 0.895490 0.609583 0.152373
H6    H     H_    0.986745 0.165693 0.571035 0.161145
H7    H     H_    0.737489 0.708353 0.354466 0.200882
H8    H     H_    0.442065 0.706844 0.680385 0.123666
H9    H     H_    0.075518 0.725201 0.694813 0.143561
H10   H     H_    0.293751 0.758608 0.725630 0.141695
H11   H     H_    0.128266 0.430983 0.439500 0.137702
H12   H     H_    0.550399 0.295816 0.321918 0.164963
H13   H     H_    0.922861 0.336645 0.356337 0.161263
H14   H     H_    0.687732 0.235000 0.267794 0.163034
H15   H     H_    0.848276 0.622062 0.604017 0.186223
H16   H     H_    0.185522 0.485040 0.851651 0.172808
H17   H     H_    0.630287 0.511974 0.016245 0.217427
H18   H     H_    0.525988 0.513535 0.841367 0.159998
H19   H     H_    0.851125 0.544797 0.773152 0.211059
H20   H     H_    0.027070 0.525604 0.202095 0.197126
N1    N     N_R   0.290690 0.566960 0.557640 -0.180874
N2    N     N_R   0.709100 0.433710 0.442970 -0.213623
O1    O     O_R   0.545970 0.684450 0.528810 -0.576507
O2    O     O_R   0.687130 0.639470 0.490120 -0.613684
O3    O     O_R   0.519670 0.535100 0.660030 -0.586729
O4    O     O_R   0.660830 0.490120 0.621340 -0.582663
O5    O     O_R   0.312870 0.360530 0.509880 -0.601327
O6    O     O_R   0.454030 0.315550 0.471190 -0.522813
O7    O     O_R   0.339170 0.509880 0.378660 -0.563556
O8    O     O_R   0.480330 0.464900 0.339970 -0.582731
O9    O     O_3   0.805310 0.523147 0.165437 -0.738100
H21   H     H_    0.860731 0.524267 0.232927 0.325119
F1    F     F_    0.338542 0.105532 0.352837 -0.674487
O10   O     O_3   0.816142 0.125132 0.650041 -0.686431
H22   H     H_    0.739990 0.087762 0.671225 0.327393
O11   O     O_3   0.103669 0.397686 0.219292 -0.752091
H23   H     H_    0.131746 0.347818 0.256669 0.321679
O12   O     O_3   0.506402 0.504012 0.162180 -0.713002
H24   H     H_    0.499867 0.431786 0.182135 0.342049
F2    F     F_    0.956947 0.451990 0.773144 -0.667918

loop_
_geom_bond_atom_site_label_1
_geom_bond_atom_site_label_2
_ccdc_geom_bond_type
C17   C29   A    
C35   C36   A    
C48   H19   S    
C4    C8    A    
O9    H21   S    
C32   N2    A    
C26   C27   A    
C17   C23   S    
C31   C43   A    
C1    O2    A    
C36   C37   A    
C29   F1    S    
C3    C7    A    
Cu2   O2    S    
C38   C39   A    
C18   C19   A    
Cu2   N2    S    
C16   H3    S    
C42   N1    A    
C43   H8    S    
C34   O8    A    
C13   H1    S    
C11   C15   A    
C19   C20   A    
C31   C39   A    
C8    C9    A    
Cu1   O3    S    
C18   C30   A    
C9    C10   A    
C44   C47   A    
C20   H6    S    
O12   H24   S    
C40   H9    S    
C21   C22   A    
C37   N2    A    
Cu2   O6    S    
C14   C45   A    
O10   H22   S    
C27   H7    S    
C39   C40   A    
C28   H4    S    
O11   H23   S    
C41   H15   S    
C2    C48   A    
C25   C26   A    
C23   O5    A    
Cu1   O7    S    
C31   H10   S    
C2    C4    A    
C26   H2    S    
C34   O7    A    
C34   C45   S    
C24   C25   A    
C42   H11   S    
C18   H5    S    
C15   O11   S    
C40   C41   A    
C7    O9    S    
C22   C27   A    
C12   O4    A    
C5    C11   A    
Cu1   O1    S    
C21   C24   A    
C8    F2    S    
C15   C45   A    
C19   O10   S    
C47   H18   S    
C16   C25   A    
C6    H20   S    
C46   C47   A    
C43   N1    A    
C22   C30   A    
C17   C28   A    
C24   C28   A    
C4    C5    A    
C10   C13   A    
Cu2   O8    S    
C38   C42   A    
C6    C7    A    
C3    C46   A    
C1    O1    A    
C32   C33   A    
C36   C38   A    
C2    C3    A    
C16   C29   A    
C14   O12   S    
C46   H17   S    
C12   C44   S    
C9    H16   S    
C5    C6    A    
C33   H14   S    
C1    C30   S    
C33   C35   A    
Cu1   O5    S    
C23   O6    A    
C37   C41   A    
C10   C11   A    
C32   H12   S    
C20   C21   A    
Cu1   Cu2   S    
Cu1   N1    S    
C12   O3    A    
C35   H13   S    
C13   C14   A    
C44   C48   A    
Cu2   O4    S    
