data_mof_unit_62664.cif
_audit_creation_date              2012-12-11T18:55:02-0500
_audit_creation_method            fapswitch 2.2
_symmetry_space_group_name_H-M    P1
_symmetry_Int_Tables_number       1
_space_group_crystal_system       triclinic
_cell_length_a                    8.230688
_cell_length_b                    15.013113
_cell_length_c                    16.262633
_cell_angle_alpha                 110.907806
_cell_angle_beta                  97.052989
_cell_angle_gamma                 81.770091
_cell_volume                      1852.29992656

loop_
_atom_site_label
_atom_site_type_symbol
_atom_type_description
_atom_site_fract_x
_atom_site_fract_y
_atom_site_fract_z
_atom_type_partial_charge
Ba1   Ba    Ba6+2 0.364200 0.465260 0.540910 1.640645
Ba2   Ba    Ba6+2 0.825640 0.534660 0.459080 1.625225
C1    C     C_3   0.200687 0.190596 0.781211 0.264918
C2    C     C_R   0.887708 0.528773 0.754246 -0.304691
C3    C     C_2   0.495874 0.401238 0.134642 -0.166721
C4    C     C_3   0.686424 0.216804 0.756554 0.827207
C5    C     C_2   0.457246 0.423985 0.218288 0.052043
C6    C     C_2   0.190265 0.511470 0.192960 0.008538
C7    C     C_3   0.252080 0.514849 0.110101 -0.088157
C8    C     C_3   0.381995 0.431898 0.067360 0.134199
C9    C     C_2   0.133803 0.550664 0.047119 -0.108193
C10   C     C_2   0.075260 0.492962 0.967310 0.420843
C11   C     C_R   0.828090 0.591352 0.932340 -0.068608
C12   C     C_3   0.190946 0.267487 0.739091 0.478768
C13   C     C_R   0.975101 0.534100 0.904478 -0.082211
C14   C     C_R   0.712793 0.617428 0.872189 -0.131080
C15   C     C_R   0.740088 0.583095 0.782437 0.061300
C16   C     C_3   0.684363 0.124176 0.776993 -0.017558
C17   C     C_R   0.008002 0.506288 0.814435 0.014468
C18   C     C_R   0.865404 0.189476 0.562988 -0.028230
C19   C     C_R   0.080353 0.206653 0.482508 0.074511
C20   C     C_R   0.263288 0.766594 0.478164 -0.287840
C21   C     C_R   0.348884 0.818498 0.445433 0.017025
C22   C     C_R   0.291713 0.913623 0.454571 -0.150649
C23   C     C_3   0.019434 0.727521 0.731897 0.308318
C24   C     C_R   0.144149 0.957879 0.495685 0.039856
C25   C     C_R   0.060365 0.903668 0.530219 -0.017479
C26   C     C_R   0.077906 0.054471 0.505536 0.044523
C27   C     C_R   0.928846 0.093044 0.547867 0.017536
C28   C     C_3   0.706405 0.234224 0.343690 0.299652
C29   C     C_R   0.843816 0.033979 0.572448 -0.089513
C30   C     C_R   0.912790 0.944114 0.569210 -0.042624
C31   C     C_R   0.148909 0.112584 0.470925 -0.142091
C32   C     C_R   0.945394 0.246180 0.532455 -0.270472
C33   C     C_R   0.124105 0.809252 0.523668 0.004357
C34   C     C_3   0.020927 0.775086 0.831623 -0.403027
C35   C     C_3   0.751130 0.126229 0.316866 -0.389855
C36   C     C_3   0.505938 0.771380 0.658031 0.304756
C37   C     C_3   0.547375 0.872807 0.677687 -0.388566
C38   C     C_3   0.217057 0.260949 0.263457 0.410977
C39   C     C_3   0.297910 0.183388 0.185836 -0.305799
C40   C     C_3   0.180236 0.031472 0.755033 0.143566
C41   C     C_3   0.676728 0.380544 0.829297 0.242832
C42   C     C_3   0.993618 0.365026 0.990147 0.159463
C43   C     C_3   0.501325 0.685459 0.226015 0.357407
C44   C     C_3   0.499806 0.696073 0.136225 -0.363369
C45   C     C_3   0.979427 0.745284 0.278917 0.358601
C46   C     C_3   0.934981 0.836393 0.256685 -0.368340
C47   C     C_2   0.298263 0.478831 0.247268 -0.251334
H1    H     H_    0.249475 0.237143 0.675404 0.070990
H2    H     H_    0.314275 0.303373 0.306450 0.036016
H3    H     H_    0.318859 0.191195 0.822721 0.082207
H4    H     H_    0.361004 0.216515 0.149187 0.078319
H5    H     H_    0.203931 0.140110 0.139860 0.097612
H6    H     H_    0.389493 0.134861 0.210137 0.109188
H7    H     H_    0.058379 0.290227 0.725901 -0.170977
H8    H     H_    0.896251 0.703078 0.706209 0.020776
H9    H     H_    0.114894 0.664829 0.716859 0.062967
H10   H     H_    0.922772 0.836252 0.848801 0.121414
H11   H     H_    0.999034 0.722684 0.861799 0.064295
H12   H     H_    0.842483 0.101905 0.266318 0.129398
H13   H     H_    0.142332 0.801689 0.858913 0.123353
H14   H     H_    0.097556 0.208859 0.824527 0.022102
H15   H     H_    0.765500 0.064453 0.734766 -0.011125
H16   H     H_    0.585523 0.620752 0.226302 0.093730
H17   H     H_    0.374668 0.676493 0.236059 -0.060632
H18   H     H_    0.468370 0.629028 0.082806 0.073754
H19   H     H_    0.407177 0.756044 0.131792 0.102572
H20   H     H_    0.622883 0.711000 0.126397 0.155386
H21   H     H_    0.115739 0.730791 0.284071 -0.069508
H22   H     H_    0.932259 0.757660 0.343651 0.086847
H23   H     H_    0.804668 0.106803 0.374826 0.065717
H24   H     H_    0.991108 0.896958 0.308821 0.066674
H25   H     H_    0.799275 0.854236 0.252472 0.150878
H26   H     H_    0.981931 0.826415 0.192459 0.107363
H27   H     H_    0.609969 0.357260 0.113208 0.101148
H28   H     H_    0.600884 0.662324 0.895341 0.089632
H29   H     H_    0.264881 0.485713 0.311892 0.069747
H30   H     H_    0.911326 0.506721 0.685410 0.072610
H31   H     H_    0.105897 0.627882 0.065321 0.048214
H32   H     H_    0.892847 0.318735 0.540088 0.069959
H33   H     H_    0.722397 0.056311 0.595316 0.077421
H34   H     H_    0.639525 0.088509 0.289438 0.117740
H35   H     H_    0.253414 0.085831 0.431752 0.087004
H36   H     H_    0.816074 0.219488 0.744691 -0.192356
H37   H     H_    0.310451 0.693687 0.472359 0.067395
H38   H     H_    0.365275 0.950774 0.429637 0.081228
H39   H     H_    0.845047 0.906550 0.596358 0.100984
H40   H     H_    0.557816 0.102146 0.762811 0.097944
H41   H     H_    0.819481 0.270294 0.369130 0.021751
H42   H     H_    0.620067 0.257275 0.396431 0.084660
H43   H     H_    0.055945 0.380584 0.284263 0.210241
H44   H     H_    0.995952 0.285808 0.197665 0.197723
H45   H     H_    0.371082 0.770550 0.648037 -0.004334
H46   H     H_    0.198958 0.958758 0.705103 0.087470
H47   H     H_    0.056081 0.040073 0.778446 0.044094
H48   H     H_    0.276085 0.035624 0.810547 0.015593
H49   H     H_    0.610281 0.399096 0.773217 0.092182
H50   H     H_    0.811540 0.376621 0.826595 -0.022315
H51   H     H_    0.640609 0.438587 0.890910 0.071484
H52   H     H_    0.967580 0.290720 0.951661 0.060168
H53   H     H_    0.872335 0.409699 0.000463 0.050119
H54   H     H_    0.055823 0.364403 0.054390 0.061027
H55   H     H_    0.864128 0.143082 0.878405 0.154921
H56   H     H_    0.563261 0.724950 0.596680 0.076493
H57   H     H_    0.720987 0.075477 0.880659 0.167039
H58   H     H_    0.494648 0.921682 0.739490 0.108852
H59   H     H_    0.498041 0.898666 0.622645 0.081291
H60   H     H_    0.682843 0.874082 0.687224 0.123259
N1    N     N_3   0.096885 0.323136 0.229783 -0.531902
N2    N     N_3   0.737589 0.137808 0.869350 -0.477789
O1    O     O_2   0.428380 0.595290 0.716080 -0.460113
O2    O     O_2   0.687320 0.812262 0.451848 -0.488585
O3    O     O_3   0.556276 0.767661 0.291520 -0.598337
O4    O     O_3   0.649320 0.571640 0.606850 -0.496183
O5    O     O_3   0.067570 0.379360 0.450830 -0.492812
O6    O     O_2   0.850910 0.734710 0.551660 -0.469275
O7    O     O_3   0.052925 0.794261 0.695655 -0.657550
O8    O     O_2   0.852978 0.492240 0.185513 -0.501068
O9    O     O_3   0.907110 0.669224 0.212718 -0.601307
O10   O     O_3   0.202060 0.415890 0.655600 -0.487248
O11   O     O_2   0.343700 0.513779 0.813030 -0.499547
O12   O     O_3   0.137213 0.216361 0.307327 -0.643607
O13   O     O_3   0.562767 0.744683 0.731580 -0.635374
O14   O     O_3   0.275853 0.343824 0.796644 -0.563071
O15   O     O_2   0.338780 0.265250 0.448290 -0.461575
O16   O     O_3   0.612600 0.359160 0.609560 -0.485911
O17   O     O_2   0.547782 0.183610 0.518375 -0.475228
O18   O     O_3   0.191152 0.099599 0.715099 -0.679470
O19   O     O_3   0.632178 0.294487 0.830886 -0.628849
O20   O     O_3   0.098413 0.393993 0.943795 -0.651626
O21   O     O_3   0.573028 0.213979 0.683120 -0.628259
O22   O     O_2   0.761310 0.404670 0.283870 -0.464600
O23   O     O_3   0.540390 0.428280 0.393140 -0.498472
O24   O     O_3   0.987650 0.584030 0.344390 -0.478377
O25   O     O_3   0.633073 0.255625 0.269645 -0.644473
O26   O     O_3   0.122140 0.620560 0.549160 -0.477957
O27   O     O_3   0.577110 0.640760 0.390430 -0.489786
P1    P     P_3+3 0.592580 0.619730 0.703530 0.979147
P2    P     P_3+3 0.156500 0.273340 0.422460 0.972067
P3    P     P_3+3 0.657004 0.238125 0.599575 0.920892
P4    P     P_3+3 0.597130 0.380190 0.296460 0.965027
P5    P     P_3+3 0.541905 0.760243 0.395301 0.947827
P6    P     P_3+3 0.206998 0.446813 0.770658 0.992495
P7    P     P_3+3 0.039920 0.741328 0.580529 0.924911
P8    P     P_3+3 0.983620 0.562672 0.231430 0.941156

loop_
_geom_bond_atom_site_label_1
_geom_bond_atom_site_label_2
_ccdc_geom_bond_type
C12   H7    S    
O9    P8    S    
C17   P6    S    
C10   O20   S    
O13   P1    S    
O1    P1    D    
C41   H49   S    
O11   P6    D    
C4    O19   S    
C34   H10   S    
H43   N1    S    
C23   O7    S    
C43   C44   S    
C42   O20   S    
C37   H58   S    
C20   C33   A    
O15   P2    D    
O22   P4    D    
Ba2   O23   S    
C29   H33   S    
C40   H47   S    
O26   P7    S    
C26   C27   A    
C41   H50   S    
Ba1   Ba2   S    
O27   P5    S    
Ba1   O1    S    
C33   P7    S    
C36   C37   S    
C19   C31   A    
O14   P6    S    
C30   H39   S    
C47   H29   S    
O6    P7    D    
C14   H28   S    
O16   P3    S    
C39   H6    S    
C44   H20   S    
O25   P4    S    
C2    C17   A    
Ba2   O5    S    
C43   O3    S    
Ba2   O6    S    
C29   C30   A    
C14   C15   A    
C21   C22   A    
C32   H32   S    
O17   P3    D    
Ba1   P1    S    
C28   H41   S    
H44   N1    S    
H57   N2    S    
C18   C32   A    
Ba2   O26   S    
O10   P6    S    
C21   P5    S    
C23   H8    S    
C34   H13   S    
C18   P3    S    
C31   H35   S    
C42   H54   S    
C18   C27   A    
O7    P7    S    
C37   H59   S    
C4    C16   S    
Ba2   O22   S    
C40   H46   S    
Ba2   O27   S    
C46   H25   S    
C41   H51   S    
C5    C47   S    
C2    H30   S    
C4    O21   S    
C40   H48   S    
C3    C5    D    
C42   H53   S    
C6    C7    S    
C38   N1    S    
C19   C32   A    
C25   C33   A    
O12   P2    S    
O2    P5    D    
C28   C35   S    
O8    P8    D    
C13   C17   A    
C45   H21   S    
C44   H19   S    
O23   P4    S    
Ba2   O4    S    
C45   C46   S    
C10   C13   S    
C37   H60   S    
C9    C10   D    
O24   P8    S    
C39   H4    S    
C36   H45   S    
C24   C25   A    
C15   P1    S    
Ba1   O15   S    
C46   H26   S    
C7    C9    S    
C42   H52   S    
C45   H22   S    
C1    C12   S    
C2    C15   A    
C38   C39   S    
Ba1   O5    S    
O4    P1    S    
C26   C31   A    
C28   O25   S    
C11   C13   A    
C43   H16   S    
Ba2   P4    S    
C35   H23   S    
C23   H9    S    
C16   N2    S    
Ba1   O26   S    
C7    C8    S    
O21   P3    S    
C38   O12   S    
C45   O9    S    
C25   C30   A    
C1    O18   S    
C16   H40   S    
C24   C26   A    
C46   H24   S    
C41   O19   S    
C6    P8    S    
Ba1   O16   S    
C22   C24   A    
C28   H42   S    
C34   H11   S    
H55   N2    S    
C35   H12   S    
C1    H3    S    
C1    H14   S    
C38   H2    S    
C12   O14   S    
Ba2   O24   S    
O3    P5    S    
C3    H27   S    
C44   H18   S    
C27   C29   A    
C16   H15   S    
C12   H1    S    
C36   H56   S    
C40   O18   S    
C20   H37   S    
C22   H38   S    
Ba1   O10   S    
C39   H5    S    
C9    H31   S    
C23   C34   S    
C3    C8    S    
C11   C14   A    
C4    H36   S    
C43   H17   S    
C20   C21   A    
C35   H34   S    
Ba1   P2    S    
Ba1   O4    S    
C19   P2    S    
C6    C47   D    
C5    P4    S    
C36   O13   S    
Ba1   O23   S    
O5    P2    S    
