data_mof_unit_32759.cif
_audit_creation_date              2012-12-10T17:28:35-0500
_audit_creation_method            fapswitch 2.2
_symmetry_space_group_name_H-M    P1
_symmetry_Int_Tables_number       1
_space_group_crystal_system       triclinic
_cell_length_a                    10.633549
_cell_length_b                    11.999528
_cell_length_c                    12.81929
_cell_angle_alpha                 94.041203
_cell_angle_beta                  90.217331
_cell_angle_gamma                 86.607586
_cell_volume                      1628.78396454

loop_
_atom_site_label
_atom_site_type_symbol
_atom_type_description
_atom_site_fract_x
_atom_site_fract_y
_atom_site_fract_z
_atom_type_partial_charge
C1    C     C_R   0.499660 0.522758 0.700448 0.871075
C2    C     C_R   0.449529 0.549210 0.132635 -0.289255
C3    C     C_R   0.529711 0.451630 0.973938 0.104611
C4    C     C_R   0.466972 0.547428 0.026021 0.097779
C5    C     C_R   0.395088 0.951562 0.392807 -0.328951
C6    C     C_R   0.604965 0.048429 0.607154 -0.329302
C7    C     C_R   0.403695 0.835925 0.404275 0.034678
C8    C     C_R   0.596353 0.164067 0.595692 0.036585
C9    C     C_R   0.543349 0.860011 0.547776 -0.046563
C10   C     C_R   0.456661 0.139988 0.452215 -0.046695
C11   C     C_R   0.537605 0.976897 0.539333 0.091247
C12   C     C_R   0.500137 0.477241 0.299584 0.865365
C13   C     C_R   0.462426 0.023098 0.460643 0.091453
C14   C     C_R   0.739085 0.500477 0.500247 0.875539
C15   C     C_R   0.260923 0.499521 0.499912 0.877538
C16   C     C_R   0.871519 0.482401 0.691531 -0.222981
C17   C     C_R   0.128692 0.515393 0.308407 -0.200510
C18   C     C_R   0.937637 0.472945 0.784846 -0.156066
C19   C     C_R   0.062694 0.523941 0.214968 -0.223032
C20   C     C_R   0.069047 0.471930 0.785546 0.280161
C21   C     C_R   0.931218 0.526080 0.214305 0.280964
C22   C     C_R   0.132904 0.481714 0.691514 -0.232262
C23   C     C_R   0.500992 0.462174 0.188067 -0.095691
C24   C     C_R   0.867207 0.517543 0.308525 -0.171432
C25   C     C_R   0.066712 0.489939 0.595752 0.041285
C26   C     C_R   0.933347 0.509648 0.404361 0.016540
C27   C     C_R   0.935557 0.490708 0.595819 0.072610
C28   C     C_R   0.064525 0.508439 0.404258 0.070601
C29   C     C_R   0.128613 0.498723 0.499921 -0.156911
C30   C     C_R   0.871417 0.501082 0.500234 -0.157557
C31   C     C_3   0.778629 0.630156 0.112051 -0.784841
C32   C     C_3   0.129270 0.361541 0.930844 -0.816125
C33   C     C_3   0.450839 0.817507 0.065412 -0.813270
C34   C     C_R   0.497820 0.537639 0.812021 -0.104598
C35   C     C_3   0.546229 0.181970 0.935045 -0.820427
C36   C     C_R   0.424339 0.639880 0.970495 0.216136
C37   C     C_R   0.573502 0.359632 0.029551 0.235544
C38   C     C_R   0.438836 0.633346 0.862585 -0.297845
C39   C     C_R   0.560638 0.366800 0.137547 -0.252902
C40   C     C_R   0.547485 0.449899 0.867408 -0.284184
H1    H     H_    0.336621 0.984565 0.331426 0.145698
H2    H     H_    0.597551 0.378792 0.826233 0.190944
H3    H     H_    0.599134 0.299101 0.181910 0.158332
H4    H     H_    0.401563 0.701550 0.818282 0.167946
H5    H     H_    0.398869 0.177159 0.392611 0.127536
H6    H     H_    0.601134 0.822841 0.607384 0.128211
H7    H     H_    0.647954 0.219181 0.648303 0.136272
H8    H     H_    0.352126 0.780807 0.351644 0.136788
H9    H     H_    0.918809 0.516405 0.052368 0.231710
H10   H     H_    0.729989 0.626117 0.035186 0.246471
H11   H     H_    0.831910 0.707241 0.119448 0.240648
H12   H     H_    0.663454 0.015422 0.668520 0.145846
H13   H     H_    0.705870 0.634233 0.174227 0.253494
H14   H     H_    0.228115 0.489953 0.877988 0.233649
H15   H     H_    0.183152 0.365771 0.005273 0.243300
H16   H     H_    0.170444 0.290615 0.879041 0.250706
H17   H     H_    0.029997 0.346557 0.949216 0.242489
H18   H     H_    0.294560 0.775518 0.978098 0.228117
H19   H     H_    0.397090 0.887748 0.109395 0.237988
H20   H     H_    0.504478 0.851534 0.001724 0.243956
H21   H     H_    0.517853 0.777634 0.120263 0.254143
H22   H     H_    0.703147 0.223820 0.021607 0.227406
H23   H     H_    0.769929 0.483795 0.695484 0.139929
H24   H     H_    0.599519 0.111797 0.890608 0.239611
H25   H     H_    0.478608 0.221990 0.880763 0.256441
H26   H     H_    0.493273 0.147850 0.999032 0.243243
H27   H     H_    0.230290 0.513768 0.304467 0.139179
H28   H     H_    0.885945 0.467963 0.856808 0.144754
H29   H     H_    0.114380 0.529348 0.143030 0.154985
H30   H     H_    0.234487 0.482197 0.694268 0.133855
H31   H     H_    0.765810 0.515475 0.305651 0.140676
H32   H     H_    0.399423 0.620221 0.173917 0.191350
N1    N     N_R   0.523130 0.207800 0.519340 -0.101938
N2    N     N_R   0.476870 0.792200 0.480660 -0.102118
N3    N     N_2   0.863763 0.532229 0.118420 -0.317403
N4    N     N_2   0.136976 0.465482 0.881143 -0.322817
N5    N     N_2   0.364351 0.737838 0.022009 -0.317871
N6    N     N_2   0.633113 0.261531 0.977977 -0.323462
O1    O     O_R   0.506170 0.421700 0.658830 -0.632463
O2    O     O_R   0.493830 0.578300 0.341170 -0.635841
O3    O     O_R   0.491330 0.609310 0.646410 -0.621806
O4    O     O_R   0.508670 0.390690 0.353590 -0.622934
O5    O     O_R   0.690650 0.406190 0.506220 -0.617607
O6    O     O_R   0.309350 0.593810 0.493780 -0.617878
O7    O     O_R   0.675800 0.593810 0.493800 -0.614831
O8    O     O_R   0.324200 0.406190 0.506200 -0.613687
Zn1   Zn    Zn3+2 0.509910 0.374730 0.508290 0.940416
Zn2   Zn    Zn3+2 0.490090 0.625270 0.491710 0.938256

loop_
_geom_bond_atom_site_label_1
_geom_bond_atom_site_label_2
_ccdc_geom_bond_type
O5    Zn1   S    
C4    C36   A    
O1    Zn1   S    
C12   C23   S    
C34   C40   A    
C32   H17   S    
C28   C29   A    
C19   C21   A    
C24   C26   A    
C36   N5    S    
C10   N1    A    
C35   H25   S    
C1    O3    A    
O4    Zn1   S    
C20   N4    S    
N1    Zn1   S    
H18   N5    S    
C22   C25   A    
H9    N3    S    
C35   H24   S    
C16   H23   S    
C32   H15   S    
C5    C13   A    
C16   C27   A    
C40   H2    S    
C9    H6    S    
C33   H19   S    
C27   C30   A    
C14   O5    A    
C14   C30   S    
C2    H32   S    
C1    C34   S    
C15   C29   S    
C7    N2    A    
C25   C29   A    
C37   C39   A    
C17   H27   S    
C6    C11   A    
C5    C7    A    
O8    Zn1   S    
C6    C8    A    
C35   H26   S    
C2    C4    A    
C38   H4    S    
C31   N3    S    
C10   H5    S    
C12   O4    A    
C31   H13   S    
C9    C11   A    
C15   O8    A    
H14   N4    S    
C33   H21   S    
C20   C22   A    
C3    C40   A    
C26   C30   A    
C33   H20   S    
C1    O1    A    
C19   H29   S    
C9    N2    A    
C31   H10   S    
C3    C4    A    
O7    Zn2   S    
C5    H1    S    
C34   C38   A    
C17   C28   A    
H22   N6    S    
O6    Zn2   S    
C14   O7    A    
C31   H11   S    
C10   C13   A    
C32   N4    S    
C39   H3    S    
C15   O6    A    
C25   C27   A    
C37   N6    S    
C21   N3    S    
C35   N6    S    
C26   C28   A    
C6    H12   S    
C7    H8    S    
C36   C38   A    
C8    H7    S    
O2    Zn2   S    
C11   C13   A    
C33   N5    S    
C23   C39   A    
C12   O2    A    
C8    N1    A    
C17   C19   A    
C32   H16   S    
C18   C20   A    
O3    Zn2   S    
C3    C37   A    
C16   C18   A    
C21   C24   A    
C2    C23   A    
N2    Zn2   S    
C18   H28   S    
C22   H30   S    
C24   H31   S    
