data_mof_unit_56122.cif
_audit_creation_date              2012-12-10T17:45:15-0500
_audit_creation_method            fapswitch 2.2
_symmetry_space_group_name_H-M    P1
_symmetry_Int_Tables_number       1
_space_group_crystal_system       triclinic
_cell_length_a                    17.770626
_cell_length_b                    17.884554
_cell_length_c                    17.883055
_cell_angle_alpha                 115.440495
_cell_angle_beta                  92.505382
_cell_angle_gamma                 69.569787
_cell_volume                      4771.56756944

loop_
_atom_site_label
_atom_site_type_symbol
_atom_type_description
_atom_site_fract_x
_atom_site_fract_y
_atom_site_fract_z
_atom_type_partial_charge
C1    C     C_R   0.464303 0.463211 0.287716 0.805573
C2    C     C_R   0.906323 0.618614 0.572194 0.541312
C3    C     C_R   0.948663 0.669289 0.624300 -0.257965
C4    C     C_R   0.535605 0.536062 0.712150 0.836586
C5    C     C_R   0.032889 0.641636 0.608570 -0.168616
C6    C     C_R   0.074926 0.564157 0.535044 0.012408
C7    C     C_R   0.074697 0.691146 0.665547 0.448176
C8    C     C_R   0.159952 0.660592 0.651538 0.347277
C9    C     C_R   0.160415 0.529918 0.524620 0.332458
C10   C     C_R   0.544200 0.558270 0.800510 -0.168157
C11   C     C_R   0.449631 0.446359 0.202401 -0.143746
C12   C     C_R   0.828688 0.378864 0.332408 0.440772
C13   C     C_R   0.558309 0.662335 0.937716 0.475907
C14   C     C_R   0.558084 0.635742 0.851780 -0.386819
C15   C     C_R   0.534648 0.503911 0.834231 0.432019
C16   C     C_R   0.463772 0.730191 0.554445 0.952829
C17   C     C_R   0.520053 0.537266 0.922335 -0.090356
C18   C     C_R   0.537512 0.614243 0.973236 -0.027577
C19   C     C_R   0.488992 0.497058 0.961211 -0.034613
C20   C     C_R   0.488837 0.524556 0.048865 -0.043429
C21   C     C_R   0.505831 0.602873 0.097850 0.445867
C22   C     C_R   0.531666 0.644298 0.059514 -0.216403
C23   C     C_R   0.843075 0.471757 0.475495 0.412506
C24   C     C_R   0.452738 0.434687 0.916010 -0.251115
C25   C     C_R   0.426653 0.391189 0.951648 0.468369
C26   C     C_R   0.429570 0.414665 0.036960 -0.060852
C27   C     C_R   0.466077 0.476518 0.084569 0.031092
C28   C     C_R   0.534895 0.268930 0.444330 0.830628
C29   C     C_R   0.396328 0.377124 0.075365 -0.177079
C30   C     C_R   0.404738 0.393382 0.158062 0.432668
C31   C     C_R   0.481142 0.485277 0.165245 -0.239207
C32   C     C_R   0.548534 0.173853 0.418410 -0.182421
C33   C     C_R   0.448586 0.823742 0.579142 -0.251522
C34   C     C_R   0.909904 0.481513 0.446033 -0.025787
C35   C     C_R   0.612863 0.014876 0.325707 0.444602
C36   C     C_R   0.594243 0.104366 0.341939 0.310955
C37   C     C_R   0.515841 0.152840 0.473174 -0.300918
C38   C     C_R   0.530958 0.064317 0.457304 0.002132
C39   C     C_R   0.581059 0.995259 0.383137 -0.009150
C40   C     C_R   0.288138 0.556066 0.555432 0.851687
C41   C     C_R   0.498299 0.042634 0.513547 0.063777
C42   C     C_R   0.511251 0.951978 0.491476 0.045494
C43   C     C_R   0.569576 0.884354 0.422298 0.381530
C44   C     C_R   0.601071 0.906694 0.367886 -0.279879
C45   C     C_R   0.942910 0.427623 0.360984 -0.098860
C46   C     C_R   0.455788 0.108191 0.592795 -0.218323
C47   C     C_R   0.430074 0.085447 0.649233 -0.126258
C48   C     C_R   0.439840 0.997530 0.627366 -0.019985
C49   C     C_R   0.471559 0.931969 0.544493 -0.107646
C50   C     C_R   0.419024 0.974553 0.687650 0.352601
C51   C     C_R   0.425144 0.886248 0.663538 0.288539
C52   C     C_R   0.713142 0.445688 0.445900 0.830866
C53   C     C_R   0.462883 0.848818 0.518795 0.391101
C54   C     C_R   0.797082 0.428952 0.417868 -0.318192
C55   C     C_R   0.202093 0.581281 0.579279 -0.298996
C56   C     C_R   0.948138 0.539235 0.499536 -0.038868
C57   C     C_R   0.901212 0.378280 0.305123 -0.259780
C58   C     C_3   0.107621 0.291392 0.236886 0.067081
C59   C     C_3   0.135639 0.234414 0.143445 -0.306781
C60   C     C_3   0.199029 0.143285 0.125534 -0.942554
C61   C     C_3   0.036538 0.785076 0.808129 0.098513
C62   C     C_3   0.001182 0.726785 0.826812 -0.428584
C63   C     C_3   0.005531 0.742273 0.917463 -0.913158
C64   C     C_3   0.455908 0.240485 0.881640 0.076938
C65   C     C_3   0.524638 0.214002 0.815541 -0.391224
C66   C     C_3   0.581415 0.117392 0.786366 -0.915624
C67   C     C_R   0.029631 0.521659 0.475228 0.001576
C68   C     C_3   0.620315 0.357595 0.775421 0.070813
C69   C     C_3   0.681064 0.352209 0.713156 -0.361251
C70   C     C_3   0.762128 0.277150 0.698611 -0.932573
C71   C     C_3   0.411348 0.698272 0.213374 0.104049
C72   C     C_3   0.395296 0.793462 0.226889 -0.368044
C73   C     C_3   0.311707 0.857029 0.274747 -0.941822
C74   C     C_3   0.334483 0.852213 0.719402 0.088206
C75   C     C_3   0.268909 0.939855 0.779022 -0.394050
C76   C     C_3   0.188145 0.928981 0.784303 -0.856173
C77   C     C_3   0.259524 0.674238 0.743975 0.043166
C78   C     C_R   0.061071 0.468086 0.390301 -0.199342
C79   C     C_3   0.242512 0.609291 0.770649 -0.404964
C80   C     C_3   0.306541 0.580075 0.822352 -0.885172
C81   C     C_3   0.806641 0.247906 0.267715 0.163499
C82   C     C_3   0.875768 0.179759 0.197389 -0.417498
C83   C     C_3   0.889519 0.084920 0.182074 -0.912698
C84   C     C_3   0.783720 0.703330 0.551343 0.108161
C85   C     C_3   0.757767 0.802122 0.612841 -0.393750
C86   C     C_3   0.697473 0.861059 0.579061 -0.866164
C87   C     C_R   0.017978 0.422577 0.333218 0.461539
H1    H     H_    0.544563 0.703103 0.099135 0.220709
H2    H     H_    0.914790 0.729579 0.678808 0.194684
H3    H     H_    0.924114 0.339735 0.239363 0.201296
H4    H     H_    0.117013 0.465312 0.365767 0.216687
H5    H     H_    0.081775 0.255586 0.260179 0.132228
H6    H     H_    0.160950 0.300635 0.269379 0.172778
H7    H     H_    0.082770 0.225309 0.110273 0.221101
H8    H     H_    0.161926 0.268971 0.119263 0.246610
H9    H     H_    0.253064 0.150710 0.157014 0.277599
H10   H     H_    0.218058 0.103732 0.057237 0.267557
H11   H     H_    0.173510 0.106822 0.147776 0.259972
H12   H     H_    0.520356 0.518923 0.199581 0.216851
H13   H     H_    0.001058 0.855636 0.851070 0.169326
H14   H     H_    0.099138 0.774385 0.823523 0.171739
H15   H     H_    0.936849 0.743151 0.815259 0.241863
H16   H     H_    0.035218 0.655246 0.785653 0.218366
H17   H     H_    0.069373 0.725532 0.930761 0.258263
H18   H     H_    0.979906 0.699263 0.929108 0.279403
H19   H     H_    0.970061 0.812856 0.960365 0.265174
H20   H     H_    0.378644 0.372348 0.250762 0.321891
H21   H     H_    0.424750 0.192275 0.856754 0.216760
H22   H     H_    0.481802 0.234482 0.937522 0.136758
H23   H     H_    0.567943 0.676166 0.825065 0.196703
H24   H     H_    0.499007 0.223828 0.761245 0.236203
H25   H     H_    0.560641 0.256886 0.842978 0.211201
H26   H     H_    0.610585 0.107889 0.839473 0.267402
H27   H     H_    0.629329 0.100237 0.737581 0.257228
H28   H     H_    0.547884 0.071692 0.759693 0.291054
H29   H     H_    0.587869 0.762994 0.953704 0.344172
H30   H     H_    0.616526 0.290854 0.752316 0.169199
H31   H     H_    0.642413 0.372993 0.837726 0.135865
H32   H     H_    0.656319 0.340385 0.652635 0.226469
H33   H     H_    0.691402 0.415877 0.737440 0.214753
H34   H     H_    0.440536 0.420273 0.852807 0.226730
H35   H     H_    0.788316 0.287957 0.758260 0.269247
H36   H     H_    0.804919 0.275545 0.654020 0.266007
H37   H     H_    0.754281 0.212014 0.671920 0.264530
H38   H     H_    0.397999 0.699895 0.274300 0.205647
H39   H     H_    0.368960 0.671312 0.171929 0.123757
H40   H     H_    0.441993 0.816937 0.262340 0.243179
H41   H     H_    0.398926 0.794543 0.165539 0.220969
H42   H     H_    0.264012 0.835225 0.239936 0.267256
H43   H     H_    0.301645 0.924981 0.282562 0.269961
H44   H     H_    0.307046 0.859462 0.337560 0.269959
H45   H     H_    0.363534 0.334486 0.041123 0.195157
H46   H     H_    0.258067 0.421415 0.474008 0.340017
H47   H     H_    0.447177 0.829468 0.405110 0.341555
H48   H     H_    0.338739 0.800253 0.739472 0.158932
H49   H     H_    0.316122 0.829471 0.655337 0.133626
H50   H     H_    0.288082 0.963293 0.842441 0.232336
H51   H     H_    0.260429 0.991054 0.756662 0.238276
H52   H     H_    0.168754 0.902672 0.721272 0.287549
H53   H     H_    0.141217 0.994572 0.824448 0.253027
H54   H     H_    0.193335 0.883023 0.812307 0.272940
H55   H     H_    0.681238 0.967672 0.220374 0.384595
H56   H     H_    0.643509 0.853725 0.314093 0.210172
H57   H     H_    0.573711 0.166162 0.273682 0.354250
H58   H     H_    0.641992 0.759724 0.362884 0.341987
H59   H     H_    0.265840 0.729038 0.801563 0.154195
H60   H     H_    0.319181 0.642534 0.705558 0.149637
H61   H     H_    0.182684 0.641276 0.808594 0.213679
H62   H     H_    0.242661 0.548802 0.715171 0.235789
H63   H     H_    0.367105 0.544343 0.785035 0.291869
H64   H     H_    0.292408 0.534448 0.841350 0.267840
H65   H     H_    0.307745 0.638550 0.879492 0.250304
H66   H     H_    0.393646 0.011068 0.806466 0.372488
H67   H     H_    0.401554 0.137957 0.710489 0.201752
H68   H     H_    0.751980 0.230205 0.252568 0.199676
H69   H     H_    0.821767 0.243757 0.327476 0.108967
H70   H     H_    0.861079 0.186440 0.138969 0.243209
H71   H     H_    0.932609 0.192245 0.214086 0.210153
H72   H     H_    0.905251 0.076461 0.239489 0.266253
H73   H     H_    0.940198 0.037249 0.131281 0.261139
H74   H     H_    0.834256 0.069535 0.163155 0.277936
H75   H     H_    0.801830 0.459556 0.567146 0.326856
H76   H     H_    0.728777 0.688006 0.530380 0.202962
H77   H     H_    0.820284 0.688935 0.494173 0.106066
H78   H     H_    0.477734 0.207797 0.527999 0.194733
H79   H     H_    0.729177 0.813868 0.672926 0.250254
H80   H     H_    0.811829 0.821201 0.624999 0.216789
H81   H     H_    0.723621 0.849338 0.517947 0.272950
H82   H     H_    0.682425 0.932107 0.623584 0.255547
H83   H     H_    0.640837 0.846894 0.571679 0.290340
H84   H     H_    0.445232 0.177761 0.616090 0.145639
O1    O     O_3   0.500000 0.500000 0.500000 -0.501966
O2    O     O_R   0.309700 0.585900 0.509470 -0.627279
O3    O     O_R   0.674980 0.398780 0.398780 -0.611504
O4    O     O_R   0.340340 0.501790 0.578230 -0.665805
O5    O     O_R   0.674980 0.513530 0.513520 -0.615350
O6    O     O_3   0.048900 0.374430 0.249595 -0.641206
O7    O     O_3   0.029922 0.776497 0.725836 -0.624460
O8    O     O_3   0.370070 0.354426 0.191475 -0.767962
O9    O     O_3   0.397122 0.326223 0.901225 -0.651740
O10   O     O_3   0.574566 0.737465 0.988493 -0.764089
O11   O     O_3   0.541832 0.417900 0.779498 -0.650123
O12   O     O_R   0.524320 0.685780 0.578230 -0.624124
O13   O     O_3   0.493981 0.644101 0.184197 -0.651914
O14   O     O_3   0.201461 0.444358 0.463499 -0.788326
O15   O     O_3   0.463009 0.793076 0.436204 -0.707915
O16   O     O_3   0.411180 0.860676 0.723100 -0.646298
O17   O     O_3   0.660328 0.944968 0.253276 -0.766248
O18   O     O_3   0.620821 0.121677 0.282023 -0.773239
O19   O     O_3   0.601059 0.797915 0.413011 -0.740233
O20   O     O_3   0.198410 0.715278 0.704529 -0.653478
O21   O     O_3   0.396194 0.038774 0.769699 -0.807840
O22   O     O_3   0.786966 0.334333 0.273574 -0.614652
O23   O     O_R   0.567430 0.291230 0.398780 -0.636221
O24   O     O_3   0.829338 0.495929 0.559701 -0.693023
O25   O     O_3   0.823240 0.650220 0.591924 -0.588290
O26   O     O_R   0.417260 0.532000 0.348010 -0.625137
O27   O     O_R   0.490990 0.490990 0.674980 -0.612375
O28   O     O_R   0.524330 0.409580 0.302030 -0.628932
O29   O     O_R   0.567420 0.567430 0.674980 -0.647012
O30   O     O_R   0.417260 0.693460 0.509470 -0.633211
O31   O     O_R   0.490990 0.329540 0.513520 -0.638457
Zn1   Zn    Zn3+2 0.565540 0.565550 0.565540 1.002287
Zn2   Zn    Zn3+2 0.412570 0.576510 0.467300 0.995798
Zn3   Zn    Zn3+2 0.456340 0.456340 0.565550 0.951796
Zn4   Zn    Zn3+2 0.565550 0.401610 0.401610 0.992654

loop_
_geom_bond_atom_site_label_1
_geom_bond_atom_site_label_2
_ccdc_geom_bond_type
C78   C87   A    
C21   O13   S    
C73   H44   S    
C34   C56   A    
C66   H26   S    
H58   O19   S    
C80   H64   S    
C86   H82   S    
C41   C42   A    
H47   O15   S    
C35   C39   A    
C35   C36   A    
C1    C11   S    
C53   O15   S    
C6    C9    A    
C81   C82   S    
C25   O9    S    
C7    C8    A    
C85   C86   S    
C80   H63   S    
C45   C57   A    
C26   C27   A    
C37   C38   A    
C81   H69   S    
C13   C18   A    
C72   H41   S    
O2    Zn2   S    
C85   H79   S    
C32   C36   A    
O1    Zn3   S    
C45   C87   A    
C58   H6    S    
C62   H16   S    
C9    O14   S    
C10   C15   A    
O29   Zn1   S    
C5    C6    A    
C64   O9    S    
C31   H12   S    
C29   H45   S    
C82   H71   S    
H57   O18   S    
C8    O20   S    
C15   O11   S    
C46   H84   S    
O26   Zn2   S    
C14   H23   S    
C12   O22   S    
O1    Zn2   S    
C65   H24   S    
C68   H31   S    
C73   H43   S    
C70   H36   S    
C83   H73   S    
C19   C20   A    
C11   C30   A    
C35   O17   S    
O31   Zn3   S    
C74   H49   S    
H75   O24   S    
C28   O23   A    
C30   O8    S    
C71   H39   S    
C9    C55   A    
C59   H7    S    
C22   H1    S    
C63   H18   S    
C29   C30   A    
C50   O21   S    
C77   H60   S    
C84   H77   S    
H46   O14   S    
C79   H62   S    
C76   H54   S    
C40   C55   S    
C4    O27   A    
C83   H74   S    
C11   C31   A    
C59   C60   S    
C18   C22   A    
C13   C14   A    
H29   O10   S    
O27   Zn3   S    
O5    Zn1   S    
C1    O28   A    
C67   C78   A    
C59   H8    S    
C8    C55   A    
C52   C54   S    
C64   H21   S    
C76   H53   S    
C33   C53   A    
C38   C39   A    
O23   Zn4   S    
C73   H42   S    
C16   O12   A    
C66   H28   S    
C72   H40   S    
C27   C31   A    
C36   O18   S    
C77   O20   S    
C80   H65   S    
C28   C32   S    
C86   H81   S    
C84   C85   S    
C43   O19   S    
C38   C41   A    
C60   H10   S    
C57   H3    S    
C61   O7    S    
C5    C7    A    
C82   H70   S    
C68   C69   S    
C37   H78   S    
C25   C26   A    
C69   H32   S    
O28   Zn4   S    
C7    O7    S    
C85   H80   S    
O1    Zn1   S    
C61   H14   S    
C75   C76   S    
C65   H25   S    
C62   C63   S    
C68   H30   S    
C87   O6    S    
C70   H35   S    
C47   C48   A    
C41   C46   A    
C23   C34   A    
C68   O11   S    
C74   H48   S    
C20   C21   A    
C50   C51   A    
C77   C79   S    
C34   C45   A    
C32   C37   A    
C24   C25   A    
C63   H19   S    
C39   C44   A    
C84   H76   S    
C12   C57   A    
C60   H9    S    
C48   C49   A    
C20   C27   A    
C82   C83   S    
C13   O10   S    
C43   C44   A    
C75   H50   S    
O30   Zn2   S    
C61   H13   S    
C42   C43   A    
O4    Zn3   S    
C4    C10   S    
C16   O30   A    
C52   O3    A    
C23   C54   A    
C74   O16   S    
C76   H52   S    
C15   C17   A    
C52   O5    A    
C46   C47   A    
C6    C67   A    
C66   H27   S    
H20   O8    S    
C86   H83   S    
C71   O13   S    
C1    O26   A    
C72   C73   S    
C3    C5    A    
C75   H51   S    
C58   O6    S    
C40   O4    A    
C79   H61   S    
C47   H67   S    
C78   H4    S    
C33   C51   A    
C56   C67   A    
H55   O17   S    
C69   H33   S    
C60   H11   S    
C81   H68   S    
C17   C18   A    
C3    H2    S    
O12   Zn1   S    
C64   C65   S    
O1    Zn4   S    
C2    C3    A    
C58   C59   S    
C28   O31   A    
C71   C72   S    
C16   C33   S    
C2    C56   A    
C64   H22   S    
C40   O2    A    
C84   O25   S    
C44   H56   S    
C49   C53   A    
C48   C50   A    
C24   H34   S    
C17   C19   A    
C19   C24   A    
C63   H17   S    
C2    O25   S    
C61   C62   S    
C69   C70   S    
C51   O16   S    
C42   C49   A    
C81   O22   S    
C79   C80   S    
C70   H37   S    
C4    O29   A    
C83   H72   S    
C74   C75   S    
C26   C29   A    
C65   C66   S    
C23   O24   S    
O3    Zn4   S    
C71   H38   S    
C21   C22   A    
C58   H5    S    
C77   H59   S    
C12   C54   A    
C10   C14   A    
C62   H15   S    
H66   O21   S    
