data_mof_unit_27530.cif
_audit_creation_date              2012-12-11T14:08:28-0500
_audit_creation_method            fapswitch 2.2
_symmetry_space_group_name_H-M    P1
_symmetry_Int_Tables_number       1
_space_group_crystal_system       triclinic
_cell_length_a                    10.958094
_cell_length_b                    10.915887
_cell_length_c                    18.732728
_cell_angle_alpha                 90.606515
_cell_angle_beta                  90.731506
_cell_angle_gamma                 60.418491
_cell_volume                      1948.50292196

loop_
_atom_site_label
_atom_site_type_symbol
_atom_type_description
_atom_site_fract_x
_atom_site_fract_y
_atom_site_fract_z
_atom_type_partial_charge
C1    C     C_R   0.231804 0.646389 0.606382 0.547479
C2    C     C_2   0.777671 0.179908 0.712227 0.074641
C3    C     C_2   0.174432 0.655252 0.676421 -0.084683
C4    C     C_R   0.658234 0.627728 0.598486 0.550894
C5    C     C_2   0.179070 0.679668 0.835719 0.111893
C6    C     C_2   0.219474 0.558647 0.799101 -0.037269
C7    C     C_2   0.252929 0.551614 0.723063 -0.109142
C8    C     C_2   0.647713 0.660824 0.321072 0.067152
C9    C     C_2   0.630895 0.661126 0.155582 -0.081045
C10   C     C_2   0.716645 0.560486 0.199940 -0.144402
C11   C     C_2   0.684237 0.555171 0.273853 -0.136250
C12   C     C_3   0.660792 0.604736 0.798614 -0.014947
C13   C     C_2   0.631368 0.190775 0.321559 -0.061999
C14   C     C_2   0.649968 0.197558 0.165730 0.070590
C15   C     C_2   0.529807 0.252614 0.202037 0.082585
C16   C     C_R   0.629290 0.228605 0.602534 0.560615
C17   C     C_2   0.531118 0.283246 0.277274 -0.095550
C18   C     C_2   0.125471 0.679695 0.343856 -0.121735
C19   C     C_2   0.011793 0.752158 0.195565 0.011574
C20   C     C_2   0.068449 0.813245 0.238930 0.004014
C21   C     C_2   0.060491 0.807832 0.315958 -0.142076
C22   C     C_R   0.700383 0.106478 0.898922 0.547783
C23   C     C_3   0.726517 0.702361 0.806647 0.050574
C24   C     C_R   0.756583 0.713896 0.883406 0.569406
C25   C     C_R   0.116256 0.708613 0.906568 0.584583
C26   C     C_R   0.675198 0.112555 0.102240 0.589013
C27   C     C_R   0.691065 0.686788 0.092788 0.567810
C28   C     C_R   0.214530 0.651616 0.405067 0.542427
C29   C     C_R   0.020246 0.752740 0.117798 0.602132
C30   C     C_R   0.641656 0.624797 0.394340 0.565622
C31   C     C_R   0.616202 0.228111 0.395496 0.552911
C32   C     C_3   0.634754 0.850864 0.767835 -0.108895
C33   C     C_3   0.632532 0.825624 0.684970 -0.033478
C34   C     C_3   0.683619 0.665348 0.671449 0.027185
C35   C     C_3   0.868336 0.626873 0.765887 -0.302079
C36   C     C_3   0.888841 0.203077 0.833492 -0.325787
C37   C     C_3   0.250470 0.422992 0.835291 -0.375467
C38   C     C_3   0.483653 0.944513 0.795480 -0.326668
C39   C     C_3   0.170451 0.860842 0.214665 -0.319249
C40   C     C_3   0.918649 0.698303 0.223226 -0.393017
C41   C     C_3   0.843990 0.585890 0.690031 -0.267692
C42   C     C_3   0.606022 0.614579 0.722497 -0.207478
C43   C     C_2   0.676490 0.168298 0.674179 -0.115696
C44   C     C_2   0.677507 0.178106 0.830209 -0.104128
C45   C     C_2   0.780391 0.181175 0.792799 -0.018331
Cr1   Cr    Cr6+3 0.393010 0.398050 0.501480 1.066594
Cr2   Cr    Cr6+3 0.398820 0.707980 0.501630 1.100466
Cr3   Cr    Cr6+3 0.708140 0.393940 0.496850 1.069835
Cr4   Cr    Cr6+3 0.937950 0.938450 0.008940 1.048214
Cr5   Cr    Cr6+3 0.626180 0.937030 0.994750 1.050977
Cr6   Cr    Cr6+3 0.937790 0.625760 0.001410 1.040014
H1    H     H_    0.689112 0.913084 0.776913 0.110250
H2    H     H_    0.713732 0.450853 0.293162 0.179045
H3    H     H_    0.524632 0.737251 0.171152 0.145336
H4    H     H_    0.442060 0.378798 0.297817 0.150092
H5    H     H_    0.717651 0.090552 0.303924 0.133543
H6    H     H_    0.050088 0.897612 0.346670 0.171006
H7    H     H_    0.142082 0.588134 0.312630 0.130715
H8    H     H_    0.711974 0.848034 0.661053 0.118463
H9    H     H_    0.914624 0.697215 0.762831 0.115607
H10   H     H_    0.903677 0.610924 0.650690 0.133025
H11   H     H_    0.746533 0.494469 0.805918 0.142883
H12   H     H_    0.622652 0.508796 0.706455 0.125152
H13   H     H_    0.491204 0.688107 0.720028 0.188581
H14   H     H_    0.939578 0.247826 0.800152 0.146795
H15   H     H_    0.837532 0.279890 0.877654 0.148483
H16   H     H_    0.970689 0.103805 0.857126 0.204836
H17   H     H_    0.298733 0.332637 0.797469 0.123719
H18   H     H_    0.325440 0.400906 0.880263 0.167375
H19   H     H_    0.153562 0.428239 0.855518 0.154681
H20   H     H_    0.472047 0.967243 0.852930 0.196798
H21   H     H_    0.437783 0.051042 0.771847 0.135533
H22   H     H_    0.418403 0.897851 0.780457 0.208942
H23   H     H_    0.945831 0.529444 0.793638 0.144436
H24   H     H_    0.219418 0.886180 0.260668 0.154751
H25   H     H_    0.257689 0.774968 0.184287 0.154917
H26   H     H_    0.117012 0.957507 0.182004 0.201409
H27   H     H_    0.816484 0.755723 0.195314 0.151314
H28   H     H_    0.967565 0.583743 0.212089 0.161060
H29   H     H_    0.895602 0.716292 0.280910 0.159109
H30   H     H_    0.885975 0.470186 0.688209 0.183695
H31   H     H_    0.578507 0.203572 0.805049 0.083990
H32   H     H_    0.605670 0.140622 0.699670 0.086086
H33   H     H_    0.348634 0.459097 0.705458 0.149778
H34   H     H_    0.075744 0.746788 0.690886 0.124421
H35   H     H_    0.821413 0.482019 0.183655 0.193350
I1    I     I_    0.956640 0.165369 0.657827 -0.317334
I2    I     I_    0.187008 0.857554 0.791275 -0.398016
I3    I     I_    0.570393 0.877435 0.297118 -0.407379
I4    I     I_    0.331660 0.294875 0.159442 -0.302583
I5    I     I_    0.833123 0.205313 0.203658 -0.455328
I6    I     I_    0.446369 0.981426 0.626589 -0.318706
I7    I     I_    0.519092 0.611339 0.879041 -0.364313
O1    O     O_R   0.507110 0.256280 0.580300 -0.492048
O2    O     O_R   0.837080 0.593860 0.915300 -0.512187
O3    O     O_R   0.064770 0.636080 0.932550 -0.528609
O4    O     O_R   0.280830 0.527190 0.577940 -0.510605
O5    O     O_R   0.068250 0.829200 0.092940 -0.511698
O6    O     O_R   0.799650 0.057040 0.080330 -0.497575
O7    O     O_R   0.586130 0.079760 0.077080 -0.473986
O8    O     O_R   0.627700 0.809630 0.066580 -0.475209
O9    O     O_R   0.816140 0.597180 0.075920 -0.509800
O10   O     O_R   0.045360 0.639170 0.081440 -0.471017
O11   O     O_3   0.833980 0.833750 0.001700 -0.315034
O12   O     O_R   0.524640 0.695370 0.425100 -0.469834
O13   O     O_R   0.261360 0.738990 0.584270 -0.461316
O14   O     O_R   0.532590 0.694780 0.574370 -0.465455
O15   O     O_R   0.744470 0.503750 0.577000 -0.506666
O16   O     O_R   0.698520 0.277230 0.571620 -0.464593
O17   O     O_R   0.498530 0.256920 0.419280 -0.483870
O18   O     O_R   0.272880 0.527780 0.428680 -0.503862
O19   O     O_R   0.252780 0.739630 0.423250 -0.501912
O20   O     O_R   0.735890 0.504390 0.415980 -0.518185
O21   O     O_R   0.690560 0.277820 0.422350 -0.493510
O22   O     O_3   0.499990 0.499990 0.499980 -0.282369
O23   O     O_R   0.089190 0.825870 0.932320 -0.476517
O24   O     O_R   0.819070 0.053960 0.931440 -0.497258
O25   O     O_R   0.607070 0.076440 0.916460 -0.542231
O26   O     O_R   0.647110 0.806550 0.917690 -0.480094

loop_
_geom_bond_atom_site_label_1
_geom_bond_atom_site_label_2
_ccdc_geom_bond_type
C22   O24   A    
C35   H23   S    
Cr5   O11   S    
C37   H18   S    
C3    H34   S    
C18   C21   D    
C43   H32   S    
C19   C20   D    
C34   C42   S    
C41   H10   S    
Cr4   O11   S    
C36   H16   S    
C39   H24   S    
C28   O19   A    
Cr6   O9    S    
Cr2   O22   S    
C4    O15   A    
C12   C23   S    
C29   O5    A    
C39   H26   S    
C3    C7    D    
C5    C6    D    
C36   H15   S    
Cr6   O10   S    
Cr2   O19   S    
C37   H17   S    
C29   O10   A    
C15   C17   S    
C32   H1    S    
C12   C42   S    
Cr4   O5    S    
C5    I2    S    
C18   H7    S    
Cr4   O24   S    
Cr2   O12   S    
C23   C24   S    
C40   H29   S    
C33   I6    S    
C32   C38   S    
C9    C10   D    
C17   H4    S    
C31   O21   A    
C11   H2    S    
Cr6   O3    S    
C13   H5    S    
C7    H33   S    
C33   H8    S    
C37   H19   S    
C34   C41   S    
C16   O16   A    
C4    C34   S    
C28   O18   A    
C14   I5    S    
C4    O14   A    
C38   H21   S    
C40   H28   S    
Cr5   O26   S    
C2    I1    S    
C18   C28   S    
C19   C40   S    
C25   O23   A    
C1    O4    A    
C20   C39   S    
C36   H14   S    
Cr6   O11   S    
C27   O8    A    
C35   H9    S    
C1    C3    S    
C21   H6    S    
Cr4   O6    S    
C12   H11   S    
Cr1   O1    S    
C2    C43   D    
Cr2   O13   S    
C41   H30   S    
C33   C34   S    
C6    C37   S    
C36   C45   S    
C39   H25   S    
C14   C26   S    
C16   C43   S    
Cr5   O8    S    
Cr3   O22   S    
C5    C25   S    
Cr1   O22   S    
Cr1   O4    S    
Cr2   O14   S    
C10   C11   S    
Cr1   O17   S    
C30   O12   A    
C40   H27   S    
C12   I7    S    
C24   O2    A    
C19   C29   S    
C42   H13   S    
C44   C45   D    
C9    C27   S    
Cr3   O21   S    
C22   O25   A    
C38   H20   S    
C10   H35   S    
C24   O26   A    
C22   C44   S    
Cr5   O25   S    
C16   O1    A    
C13   C31   S    
C6    C7    S    
C9    H3    S    
C1    O13   A    
C27   O9    A    
C44   H31   S    
C13   C17   D    
C8    C30   S    
C23   C32   S    
C32   C33   S    
C15   I4    S    
Cr3   O15   S    
C8    C11   D    
C31   O17   A    
Cr3   O16   S    
C35   C41   S    
C23   C35   S    
Cr5   O7    S    
C2    C45   S    
Cr4   O23   S    
C20   C21   S    
C25   O3    A    
Cr6   O2    S    
C26   O6    A    
C14   C15   D    
C8    I3    S    
Cr1   O18   S    
C42   H12   S    
C30   O20   A    
C26   O7    A    
Cr3   O20   S    
C38   H22   S    
