data_mof_unit_52966.cif
_audit_creation_date              2012-12-10T17:18:17-0500
_audit_creation_method            fapswitch 2.2
_symmetry_space_group_name_H-M    P1
_symmetry_Int_Tables_number       1
_space_group_crystal_system       triclinic
_cell_length_a                    10.144516
_cell_length_b                    10.365661
_cell_length_c                    14.93489
_cell_angle_alpha                 90.780802
_cell_angle_beta                  81.748818
_cell_angle_gamma                 94.376115
_cell_volume                      1549.67894076

loop_
_atom_site_label
_atom_site_type_symbol
_atom_type_description
_atom_site_fract_x
_atom_site_fract_y
_atom_site_fract_z
_atom_type_partial_charge
C1    C     C_R   0.554371 0.735409 0.498951 0.917064
C2    C     C_R   0.445761 0.264700 0.509772 0.938855
C3    C     C_R   0.643714 0.708097 0.947856 -0.088363
C4    C     C_R   0.376095 0.281995 0.050563 -0.088959
C5    C     C_2   0.580265 0.873158 0.513755 0.135009
C6    C     C_2   0.420482 0.127636 0.529350 0.116690
C7    C     C_2   0.503202 0.932115 0.581275 0.347633
C8    C     C_2   0.498354 0.071517 0.581504 0.298596
C9    C     C_2   0.927075 0.510892 0.508053 -0.071608
C10   C     C_2   0.072856 0.488888 0.492113 -0.090705
C11   C     C_R   0.501739 0.503775 0.672683 0.978530
C12   C     C_R   0.498425 0.496190 0.327311 0.954505
C13   C     C_R   0.423064 0.393630 0.192498 0.323720
C14   C     C_R   0.582649 0.603957 0.806436 0.348306
C15   C     C_R   0.497331 0.491848 0.232058 -0.153993
C16   C     C_R   0.504653 0.507636 0.767762 -0.128893
C17   C     C_R   0.576833 0.586280 0.181865 -0.254092
C18   C     C_R   0.430363 0.409975 0.817898 -0.220733
C19   C     C_R   0.578517 0.592240 0.089345 0.049188
C20   C     C_R   0.435407 0.400473 0.909512 0.041930
C21   C     C_R   0.506755 0.493107 0.046130 -0.026690
C22   C     C_R   0.507545 0.499794 0.952443 -0.034396
C23   C     C_R   0.434437 0.387539 0.097018 -0.036316
C24   C     C_R   0.578814 0.606130 0.901587 -0.036834
C25   C     C_R   0.647674 0.697686 0.040695 0.301418
C26   C     C_R   0.372666 0.291402 0.957528 0.297671
H1    H     H_    0.632475 0.658388 0.217565 0.222204
H2    H     H_    0.373092 0.338478 0.782775 0.221988
H3    H     H_    0.109075 0.418913 0.441525 0.207378
H4    H     H_    0.890812 0.580721 0.558735 0.200063
H5    H     H_    0.119507 0.616881 0.584534 0.208972
H6    H     H_    0.880554 0.383257 0.415387 0.202156
N1    N     N_2   0.842700 0.448880 0.462930 -0.172147
N2    N     N_2   0.157300 0.551120 0.537070 -0.176660
O1    O     O_R   0.431060 0.692470 0.507460 -0.580396
O2    O     O_R   0.568940 0.307530 0.492540 -0.571320
O3    O     O_R   0.651120 0.659650 0.483670 -0.577826
O4    O     O_R   0.348880 0.340350 0.516330 -0.580947
O5    O     O_R   0.389960 0.516440 0.644050 -0.601987
O6    O     O_R   0.610040 0.483560 0.355950 -0.611098
O7    O     O_R   0.610030 0.483620 0.620260 -0.569566
O8    O     O_R   0.389970 0.516380 0.379740 -0.583832
Zn1   Zn    Zn3+2 0.353060 0.521920 0.515880 1.051865
Zn2   Zn    Zn3+2 0.646940 0.478080 0.484120 1.058434
Cl1   Cl    Cl    0.311121 0.289194 0.266311 -0.597926
Cl2   Cl    Cl    0.688029 0.711903 0.731196 -0.610490
Cl3   Cl    Cl    0.735720 0.822771 0.096536 -0.673396
Cl4   Cl    Cl    0.295907 0.160450 0.900267 -0.655908
C27   C     C_R   0.694934 0.833891 0.905400 0.195045
C28   C     C_R   0.605861 0.928128 0.895126 -0.067240
C29   C     C_R   0.654464 0.050287 0.861145 -0.051465
C30   C     C_R   0.791757 0.078948 0.836996 -0.068524
C31   C     C_R   0.881002 0.985809 0.847453 -0.084696
C32   C     C_R   0.833069 0.863825 0.882138 -0.010011
H7    H     H_    0.499372 0.907429 0.914544 0.173455
H8    H     H_    0.585895 0.123076 0.853853 0.200869
H9    H     H_    0.828989 0.173573 0.810588 0.170272
H10   H     H_    0.987353 0.008449 0.829303 0.190053
H11   H     H_    0.903003 0.792816 0.891152 0.157659
C33   C     C_R   0.333333 0.154604 0.093820 0.194818
C34   C     C_R   0.197335 0.111057 0.110155 -0.002695
C35   C     C_R   0.158364 0.989473 0.148771 -0.071142
C36   C     C_R   0.254571 0.910617 0.171087 -0.083533
C37   C     C_R   0.389928 0.953037 0.154670 -0.080068
C38   C     C_R   0.429541 0.074403 0.115824 -0.097399
H12   H     H_    0.122037 0.171416 0.093085 0.156652
H13   H     H_    0.053583 0.956364 0.161352 0.186846
H14   H     H_    0.224273 0.816560 0.201027 0.157193
H15   H     H_    0.463984 0.891710 0.172086 0.187502
H16   H     H_    0.534792 0.105891 0.102753 0.159699
Cl5   Cl    Cl    0.603056 0.160289 0.649081 -0.580549
Cl6   Cl    Cl    0.398489 0.847588 0.669810 -0.526718
Cl7   Cl    Cl    0.301808 0.037271 0.473486 -0.508094
Cl8   Cl    Cl    0.699192 0.960522 0.434899 -0.525027

loop_
_geom_bond_atom_site_label_1
_geom_bond_atom_site_label_2
_ccdc_geom_bond_type
C12   O6    A    
C4    C26   A    
C31   H10   S    
C15   C17   A    
C35   C36   A    
C29   C30   A    
C1    O3    A    
O1    Zn1   S    
C11   C16   S    
C25   Cl3   S    
C14   C24   A    
C28   H7    S    
C12   C15   S    
C26   Cl4   S    
H6    N1    S    
C4    C33   S    
O3    Zn2   S    
C13   C15   A    
C28   C29   A    
C3    C27   S    
H5    N2    S    
C7    C8    S    
C10   N2    D    
C31   C32   A    
C37   C38   A    
C13   Cl1   S    
C38   H16   S    
C10   H3    S    
C1    O1    A    
C3    C24   A    
C2    C6    S    
C20   C26   A    
C35   H13   S    
C9    N1    D    
C1    C5    S    
C9    H4    S    
C22   C24   A    
C21   C22   A    
C17   C19   A    
C20   C22   A    
C33   C38   A    
C11   O7    A    
C18   C20   A    
C32   H11   S    
C21   C23   A    
C6    C8    D    
C34   C35   A    
C19   C25   A    
O7    Zn2   S    
C14   C16   A    
O2    Zn2   S    
C30   H9    S    
N2    Zn1   S    
C12   O8    A    
C27   C32   A    
C17   H1    S    
C11   O5    A    
O6    Zn2   S    
C3    C25   A    
C18   H2    S    
C30   C31   A    
C13   C23   A    
C6    Cl7   S    
C16   C18   A    
C27   C28   A    
C9    C10   S    
C2    O2    A    
C7    Cl6   S    
C5    C7    D    
C4    C23   A    
C2    O4    A    
C5    Cl8   S    
C8    Cl5   S    
O5    Zn1   S    
C19   C21   A    
C36   H14   S    
C37   H15   S    
N1    Zn2   S    
C34   H12   S    
O4    Zn1   S    
C36   C37   A    
O8    Zn1   S    
C33   C34   A    
C14   Cl2   S    
C29   H8    S    
