data_mof_unit_24104.cif
_audit_creation_date              2013-03-05T15:41:45-0500
_audit_creation_method            fapswitch 2.2
_symmetry_space_group_name_H-M    P1
_symmetry_Int_Tables_number       1
_space_group_crystal_system       triclinic
_cell_length_a                    11.149574
_cell_length_b                    12.707948
_cell_length_c                    23.60385
_cell_angle_alpha                 90.329639
_cell_angle_beta                  96.634886
_cell_angle_gamma                 68.641778
_cell_volume                      3091.45337639

loop_
_atom_site_label
_atom_site_type_symbol
_atom_site_description
_atom_site_fract_x
_atom_site_fract_y
_atom_site_fract_z
_atom_type_partial_charge
O1    O     O_R   0.196340 0.303200 0.448500 -0.485723
O2    O     O_R   0.199310 0.519670 0.454880 -0.499535
C1    C     C_R   0.149674 0.616992 0.429022 0.555904
O3    O     O_R   0.045660 0.691380 0.441680 -0.452129
O4    O     O_R   0.811930 0.659460 0.430950 -0.429422
C2    C     C_R   0.748243 0.605056 0.404207 0.569517
O5    O     O_R   0.757900 0.507620 0.421760 -0.528051
O6    O     O_R   0.988630 0.322990 0.439840 -0.484982
C3    C     C_R   0.101126 0.282722 0.423271 0.562547
O7    O     O_R   0.196380 0.301720 0.573850 -0.509509
O8    O     O_R   0.199350 0.518300 0.571080 -0.492148
C4    C     C_R   0.147574 0.615973 0.591253 0.536562
O9    O     O_R   0.045700 0.689900 0.567030 -0.505660
O10   O     O_R   0.811960 0.658090 0.547150 -0.480871
C5    C     C_R   0.749687 0.601936 0.565686 0.543005
O11   O     O_R   0.757930 0.506140 0.547110 -0.501081
O12   O     O_R   0.988670 0.321620 0.556040 -0.452198
C6    C     C_R   0.100917 0.275836 0.584482 0.567198
Cr1   Cr    Cr6+3 0.189770 0.415650 0.511620 1.091245
Cr2   Cr    Cr6+3 0.930400 0.667320 0.496770 1.158325
Cr3   Cr    Cr6+3 0.879870 0.417010 0.491650 1.111052
O13   O     O_3   0.000020 0.499990 0.500010 -0.293968
C7    C     C_R   0.666579 0.755400 0.139288 0.010559
C8    C     C_R   0.691777 0.639703 0.344947 -0.031603
C9    C     C_R   0.658218 0.562629 0.252732 0.255632
C10   C     C_R   0.660669 0.559301 0.311665 -0.151016
C11   C     C_R   0.699042 0.736389 0.318478 0.204259
C12   C     C_R   0.692937 0.742567 0.258684 0.027914
C13   C     C_R   0.679491 0.652015 0.226601 0.089910
C14   C     C_R   0.678398 0.655647 0.167888 -0.015262
C15   C     C_R   0.682507 0.844561 0.170350 -0.123423
C16   C     C_R   0.698211 0.837306 0.229788 -0.077323
H1    H     H_    0.670413 0.585279 0.143679 0.201441
H2    H     H_    0.673606 0.922687 0.148950 0.143686
H3    H     H_    0.705738 0.909299 0.252398 0.176438
H4    H     H_    0.649129 0.487692 0.331748 0.145607
C17   C     C_1   0.235395 0.162898 0.122705 0.001682
C18   C     C_2   0.181201 0.237536 0.225872 0.260167
C19   C     C_2   0.155762 0.169701 0.262503 -0.036790
C20   C     C_1   0.132534 0.201973 0.320352 0.048095
C21   C     C_1   0.210197 0.199092 0.169100 -0.046102
C22   C     C_1   0.116051 0.233857 0.368177 0.050078
H5    H     H_    0.155253 0.087651 0.249554 0.095910
C23   C     C_1   0.167354 0.747564 0.122937 0.024698
C24   C     C_2   0.143932 0.675862 0.225368 0.254160
C25   C     C_2   0.226331 0.684815 0.270981 0.226649
C26   C     C_1   0.213580 0.656037 0.329134 0.025720
C27   C     C_1   0.155906 0.714412 0.169155 0.054862
C28   C     C_1   0.193157 0.636016 0.376330 0.048089
C29   C     C_1   0.610598 0.766809 0.862324 0.057359
C30   C     C_2   0.631994 0.758854 0.752186 0.264932
C31   C     C_2   0.680613 0.656247 0.729524 0.229224
C32   C     C_1   0.688061 0.644149 0.669109 0.005159
C33   C     C_1   0.625197 0.762812 0.812713 0.064012
C34   C     C_1   0.706454 0.628941 0.620161 0.033128
C35   C     C_R   0.202408 0.179040 0.852958 -0.017403
C36   C     C_R   0.114511 0.215152 0.639108 -0.010779
C37   C     C_R   0.017541 0.159775 0.715009 -0.091163
C38   C     C_R   0.016633 0.180793 0.656571 0.198629
C39   C     C_R   0.217356 0.214966 0.679059 -0.092679
C40   C     C_R   0.210904 0.206593 0.737027 -0.003681
C41   C     C_R   0.110892 0.176860 0.755296 -0.043888
C42   C     C_R   0.110031 0.159235 0.813416 -0.157991
C43   C     C_R   0.285822 0.229982 0.834946 0.201464
C44   C     C_R   0.299346 0.232519 0.776891 0.219990
H6    H     H_    0.043593 0.123091 0.827481 0.164980
H7    H     H_    0.943849 0.132691 0.729126 0.173845
H8    H     H_    0.296665 0.233497 0.665035 0.219161
C45   C     C_R   0.127965 0.741472 0.853753 0.040446
C46   C     C_R   0.178443 0.634952 0.650733 -0.031981
C47   C     C_R   0.321972 0.594535 0.739161 0.289534
C48   C     C_R   0.302169 0.584869 0.679848 -0.085995
C49   C     C_R   0.074813 0.699618 0.679491 -0.085001
C50   C     C_R   0.090780 0.710433 0.737753 -0.033445
C51   C     C_R   0.213585 0.651659 0.768716 0.015602
C52   C     C_R   0.225743 0.657273 0.828202 0.201077
C53   C     C_R   0.004033 0.795252 0.823808 0.189822
C54   C     C_R   0.985375 0.780710 0.764744 0.211646
H9    H     H_    0.382300 0.538028 0.656640 0.136480
H10   H     H_    0.978693 0.738958 0.656359 0.224314
O14   O     O_R   0.113660 0.883270 0.047820 -0.503682
O15   O     O_R   0.186930 0.068530 0.043990 -0.494105
C55   C     C_R   0.265830 0.109788 0.069478 0.560621
O16   O     O_R   0.377770 0.089040 0.054220 -0.490525
O17   O     O_R   0.562800 0.872960 0.056970 -0.503913
C56   C     C_R   0.600387 0.774765 0.081082 0.535860
O18   O     O_R   0.555390 0.700940 0.062700 -0.513179
O19   O     O_R   0.295020 0.731920 0.049950 -0.486987
C57   C     C_R   0.189780 0.787681 0.069766 0.544383
O20   O     O_R   0.094290 0.884230 0.921550 -0.459701
O21   O     O_R   0.168980 0.069410 0.926940 -0.507522
C58   C     C_R   0.241015 0.115901 0.907729 0.580642
O22   O     O_R   0.358400 0.089990 0.927950 -0.451565
O23   O     O_R   0.544850 0.873850 0.939920 -0.494194
C59   C     C_R   0.573495 0.777096 0.918347 0.552872
O24   O     O_R   0.536020 0.701900 0.936430 -0.454585
O25   O     O_R   0.277070 0.732810 0.932890 -0.443645
C60   C     C_R   0.163851 0.785411 0.907717 0.601282
Cr4   Cr    Cr6+3 0.149500 0.973980 0.985330 1.086835
Cr5   Cr    Cr6+3 0.457000 0.976510 0.994660 1.104223
Cr6   Cr    Cr6+3 0.411170 0.724270 0.995270 1.128783
O26   O     O_3   0.339220 0.891590 0.991750 -0.293248
N1    N     N_R   0.044002 0.629654 0.229551 0.064530
O27   O     O_R   0.984862 0.606268 0.183171 -0.343444
O28   O     O_R   0.008046 0.613438 0.278218 -0.326024
O29   O     O_3   0.729018 0.560489 0.765465 -0.683803
H11   H     H_    0.762083 0.493100 0.742093 0.335110
N2    N     N_R   0.577252 0.863945 0.718504 0.070268
O30   O     O_R   0.502637 0.954606 0.740846 -0.309556
O31   O     O_R   0.607922 0.872860 0.667686 -0.278723
N3    N     N_R   0.356966 0.276707 0.876081 0.089924
O32   O     O_R   0.302128 0.329805 0.919078 -0.318944
O33   O     O_R   0.476520 0.264791 0.871968 -0.241051
N4    N     N_R   0.402997 0.260056 0.758735 0.105340
O34   O     O_R   0.520083 0.184515 0.764189 -0.217161
O35   O     O_R   0.377684 0.353063 0.729209 -0.365684
N5    N     N_R   0.918447 0.165144 0.616032 0.093255
O36   O     O_R   0.946857 0.124356 0.566520 -0.296682
O37   O     O_R   0.805863 0.176696 0.631177 -0.286703
O38   O     O_3   0.331924 0.583098 0.862095 -0.584113
H12   H     H_    0.352887 0.507240 0.845861 0.400017
O39   O     O_3   0.904423 0.860905 0.853303 -0.664350
H13   H     H_    0.820867 0.861755 0.833476 0.341716
O40   O     O_3   0.445950 0.552703 0.768113 -0.615787
H14   H     H_    0.508468 0.514342 0.741058 0.357576
O41   O     O_3   0.869699 0.840914 0.731744 -0.668283
H15   H     H_    0.828704 0.914870 0.748864 0.373084
O42   O     O_3   0.635890 0.479341 0.220039 -0.686617
H16   H     H_    0.621744 0.423721 0.245155 0.336483
N6    N     N_R   0.715130 0.825915 0.352139 0.078894
O43   O     O_R   0.818221 0.850881 0.351248 -0.302522
O44   O     O_R   0.633343 0.874571 0.388020 -0.315875
O45   O     O_3   0.182284 0.341487 0.242887 -0.631128
H17   H     H_    0.203682 0.378256 0.210572 0.351708
O46   O     O_3   0.321241 0.726819 0.261850 -0.719005
H18   H     H_    0.371544 0.728505 0.299153 0.327985

loop_
_geom_bond_atom_site_label_1
_geom_bond_atom_site_label_2
_geom_bond_distance
_ccdc_geom_bond_type
C37   C41   1.402924 A    
O41   H15   0.990407 S    
O15   Cr4   1.935859 S    
C45   C53   1.402848 A    
C59   O24   1.267536 A    
C8    C11   1.414071 A    
O42   H16   0.991744 S    
N4    O34   1.300801 A    
C1    C28   1.438240 S    
O46   H18   0.992327 S    
C26   C28   1.208994 T    
O4    Cr2   1.946414 S    
C53   C54   1.406806 A    
C31   C32   1.442087 S    
O8    Cr1   1.930961 S    
C3    C22   1.438715 S    
C41   C42   1.393001 A    
C12   C13   1.417572 A    
C9    O42   1.384146 S    
C8    C10   1.402619 A    
C48   H9    1.083787 S    
N5    O37   1.301496 A    
C18   C19   1.347034 D    
C29   C59   1.421919 S    
C36   C38   1.415842 A    
O29   H11   0.992589 S    
C5    O11   1.266634 A    
N2    O30   1.301460 A    
C45   C52   1.411363 A    
C49   C50   1.378701 A    
C18   O45   1.382348 S    
C53   O39   1.382488 S    
C24   N1    1.448663 S    
C25   O46   1.384424 S    
O18   Cr6   2.067249 S    
C15   C16   1.392993 A    
C30   N2    1.447230 S    
C7    C56   1.459485 S    
C35   C43   1.413455 A    
O7    Cr1   2.044727 S    
C14   H1    1.083725 S    
O14   C57   1.272377 A    
C45   C60   1.459841 S    
C20   C22   1.208589 T    
C42   H6    1.084575 S    
C31   O29   1.385460 S    
C38   N5    1.438030 S    
O24   Cr6   2.025198 S    
O23   C59   1.271781 A    
Cr6   O26   1.978827 S    
O25   C60   1.268854 A    
C32   C34   1.199000 T    
C9    C13   1.401822 A    
O1    Cr1   2.047347 S    
C50   C51   1.413117 A    
C30   C31   1.350671 D    
O16   Cr5   2.036033 S    
C16   H3    1.081122 S    
O10   Cr2   1.910245 S    
C47   O40   1.382385 S    
C12   C16   1.410107 A    
Cr1   O13   1.979265 S    
O1    C3    1.265966 A    
C18   C21   1.454803 S    
N1    O28   1.300781 A    
C19   C20   1.448322 S    
C56   O18   1.268056 A    
O6    C3    1.277329 A    
C43   N3    1.443251 S    
C19   H5    1.086693 S    
O14   Cr4   2.038486 S    
C37   C38   1.404674 A    
O17   C56   1.276250 A    
O12   Cr3   1.942938 S    
C39   C40   1.385151 A    
C5    C34   1.421647 S    
N6    O44   1.301110 A    
C51   C52   1.398883 A    
C7    C14   1.395577 A    
C13   C14   1.385389 A    
C40   C44   1.408891 A    
C6    C36   1.470142 S    
C55   O16   1.272800 A    
C44   N4    1.432631 S    
O23   Cr5   1.916538 S    
N3    O32   1.301610 A    
C2    C8    1.465764 S    
C46   C49   1.397969 A    
Cr5   O26   1.975937 S    
O12   C6    1.278846 A    
C35   C42   1.399734 A    
N3    O33   1.300723 A    
C52   O38   1.380958 S    
O19   C57   1.270864 A    
O22   Cr5   2.058872 S    
C10   H4    1.083378 S    
Cr2   O13   1.978866 S    
O45   H17   0.992160 S    
C1    O3    1.267325 A    
C54   O41   1.382549 S    
O20   Cr4   2.055146 S    
C11   C12   1.406381 A    
C15   H2    1.083110 S    
O38   H12   0.991498 S    
C24   C27   1.454094 S    
C4    C46   1.446595 S    
C25   C26   1.458356 S    
O9    Cr2   2.062965 S    
O2    Cr1   1.925633 S    
O19   Cr6   1.909301 S    
C36   C39   1.397249 A    
O6    Cr3   1.914175 S    
N4    O35   1.297450 A    
O8    C4    1.278836 A    
O11   Cr3   2.029179 S    
C2    O5    1.270782 A    
C30   C33   1.439028 S    
C43   C44   1.397624 A    
N6    O43   1.301372 A    
C9    C10   1.388750 A    
C47   C48   1.403637 A    
C29   C33   1.199034 T    
O17   Cr5   1.943431 S    
O5    Cr3   2.063859 S    
N5    O36   1.301448 A    
C47   C51   1.422690 A    
O4    C2    1.276574 A    
O7    C6    1.273475 A    
C58   O22   1.262030 A    
C49   H10   1.083635 S    
N2    O31   1.301225 A    
O2    C1    1.280811 A    
C17   C21   1.208682 T    
C40   C41   1.411397 A    
C23   C57   1.438826 S    
O3    Cr2   2.027998 S    
C24   C25   1.364671 D    
C37   H7    1.084040 S    
C35   C58   1.460218 S    
Cr4   O26   1.976922 S    
C4    O9    1.256378 A    
C39   H8    1.080351 S    
O15   C55   1.273092 A    
C50   C54   1.409470 A    
N1    O27   1.301452 A    
C11   N6    1.436361 S    
O10   C5    1.271785 A    
C17   C55   1.439102 S    
C46   C48   1.388097 A    
O21   Cr4   1.922923 S    
O39   H13   0.989449 S    
Cr3   O13   1.977620 S    
O20   C60   1.276517 A    
O25   Cr6   1.946839 S    
O21   C58   1.277735 A    
C23   C27   1.208526 T    
C7    C15   1.399948 A    
O40   H14   0.991514 S    
