data_mof_unit_67843.cif
_audit_creation_date              2013-03-05T15:41:50-0500
_audit_creation_method            fapswitch 2.2
_symmetry_space_group_name_H-M    P1
_symmetry_Int_Tables_number       1
_space_group_crystal_system       triclinic
_cell_length_a                    7.832335
_cell_length_b                    8.799815
_cell_length_c                    10.608176
_cell_angle_alpha                 92.670332
_cell_angle_beta                  84.603577
_cell_angle_gamma                 93.527168
_cell_volume                      725.916172344

loop_
_atom_site_label
_atom_site_type_symbol
_atom_site_description
_atom_site_fract_x
_atom_site_fract_y
_atom_site_fract_z
_atom_type_partial_charge
O1    O     O_R   0.389250 0.738570 0.508410 -0.583123
O2    O     O_R   0.610750 0.261430 0.491590 -0.597359
O3    O     O_R   0.678390 0.711620 0.486450 -0.601237
O4    O     O_R   0.321610 0.288380 0.513550 -0.599856
C1    C     C_R   0.545261 0.794332 0.495709 0.855571
C2    C     C_R   0.454791 0.206224 0.507444 0.831831
O5    O     O_R   0.355460 0.513510 0.697030 -0.675812
O6    O     O_R   0.644540 0.486490 0.302970 -0.668349
O7    O     O_R   0.644600 0.486560 0.675070 -0.595299
O8    O     O_R   0.355400 0.513440 0.324930 -0.589011
C3    C     C_R   0.500035 0.498707 0.742696 0.812498
C4    C     C_R   0.499468 0.497607 0.257683 0.836838
Zn1   Zn    Zn3+2 0.306940 0.517990 0.514670 1.021909
Zn2   Zn    Zn3+2 0.693060 0.482010 0.485330 1.016345
N1    N     N_2   0.950320 0.457950 0.465730 0.187487
N2    N     N_2   0.049680 0.542050 0.534270 0.191041
C5    C     C_3   0.352312 0.551943 0.971938 -0.221436
C6    C     C_3   0.647283 0.440652 0.029781 -0.219271
C7    C     C_3   0.487986 0.636703 0.049550 0.062793
C8    C     C_3   0.512072 0.355486 0.952206 0.060122
H1    H     H_    0.231894 0.598340 0.947021 0.118474
H2    H     H_    0.767084 0.393583 0.055186 0.119277
C9    C     C_3   0.499128 0.494139 0.122822 -0.006588
C10   C     C_3   0.500544 0.498240 0.878242 -0.005748
C11   C     C_3   0.364023 0.407194 0.047384 -0.227306
C12   C     C_3   0.635795 0.585045 0.954207 -0.221159
H3    H     H_    0.253686 0.335590 0.088700 0.131137
H4    H     H_    0.746914 0.656463 0.913847 0.129765
C13   C     C_2   0.567373 0.957316 0.484544 0.228759
C14   C     C_2   0.433067 0.044556 0.527127 0.265070
C15   C     C_R   0.472366 0.791317 0.112570 0.084397
C16   C     C_R   0.613955 0.897274 0.108866 -0.113241
C17   C     C_R   0.593607 0.045552 0.157595 -0.022789
C18   C     C_R   0.433783 0.087080 0.213621 -0.113400
C19   C     C_R   0.294405 0.980470 0.221713 -0.166078
C20   C     C_R   0.313216 0.832585 0.171662 -0.151405
H5    H     H_    0.738296 0.867341 0.064792 0.107420
H6    H     H_    0.700901 0.128577 0.149372 0.102698
H7    H     H_    0.417181 0.201632 0.250633 0.129019
H8    H     H_    0.171304 0.013338 0.264452 0.135914
H9    H     H_    0.203139 0.751569 0.176256 0.133899
C21   C     C_R   0.533950 0.198916 0.894960 0.086986
C22   C     C_R   0.400898 0.085172 0.909161 -0.167127
C23   C     C_R   0.424911 0.938786 0.856745 -0.067327
C24   C     C_R   0.583140 0.904353 0.794212 -0.123518
C25   C     C_R   0.716597 0.016105 0.782891 -0.193534
C26   C     C_R   0.692023 0.163781 0.830871 -0.149777
H10   H     H_    0.277865 0.109556 0.958647 0.113430
H11   H     H_    0.321574 0.851911 0.866463 0.106407
H12   H     H_    0.603331 0.791465 0.754492 0.134673
H13   H     H_    0.839035 0.987802 0.737448 0.127135
H14   H     H_    0.797005 0.249644 0.820383 0.133116
O9    O     O_3   0.036460 0.352652 0.393756 -0.534841
C27   C     C_3   0.953757 0.324347 0.283250 -0.205647
H15   H     H_    0.955140 0.429795 0.229240 0.149591
H16   H     H_    0.822677 0.273840 0.305173 0.229270
H17   H     H_    0.024201 0.238975 0.222324 0.108938
O10   O     O_3   0.965048 0.649717 0.604505 -0.527890
C28   C     C_3   0.045008 0.675981 0.716498 -0.172797
H18   H     H_    0.175857 0.728603 0.697280 0.226712
H19   H     H_    0.044401 0.569208 0.768731 0.137255
H20   H     H_    0.971314 0.758088 0.778478 0.101325
O11   O     O_3   0.706792 0.018972 0.407358 -0.656580
C29   C     C_3   0.866856 0.969886 0.435017 -0.205968
H21   H     H_    0.907403 0.876783 0.366457 0.183915
H22   H     H_    0.868506 0.933844 0.533359 0.186968
H23   H     H_    0.963511 0.066015 0.423782 0.203868
O12   O     O_3   0.280648 0.978191 0.586845 -0.623802
C30   C     C_3   0.184574 0.076951 0.671031 -0.291739
H24   H     H_    0.083331 0.126123 0.621902 0.196548
H25   H     H_    0.263469 0.169656 0.715776 0.165047
H26   H     H_    0.121254 0.009883 0.749617 0.145569

loop_
_geom_bond_atom_site_label_1
_geom_bond_atom_site_label_2
_geom_bond_distance
_ccdc_geom_bond_type
C23   H11   1.079656 S    
C30   H26   1.105126 S    
C7    C9    1.517478 S    
O7    Zn2   2.011883 S    
C13   O11   1.399124 S    
C27   H16   1.101919 S    
C26   H14   1.083309 S    
C14   O12   1.404978 S    
C11   H3    1.106095 S    
C22   H10   1.081670 S    
C15   C20   1.402194 A    
C8    C21   1.492633 S    
C17   H6    1.078982 S    
C6    C12   1.545282 S    
O6    C4    1.285365 A    
C5    C11   1.547452 S    
C29   H21   1.110900 S    
O2    C2    1.285440 A    
C17   C18   1.396386 A    
C25   C26   1.391251 A    
C7    C15   1.494454 S    
C28   H18   1.103366 S    
N2    O10   1.345647 S    
O9    C27   1.396992 S    
C16   C17   1.393705 A    
O5    C3    1.288833 A    
O7    C3    1.289611 A    
C4    C9    1.429780 S    
C20   H9    1.083361 S    
C13   C14   1.370268 D    
O3    Zn2   2.030256 S    
O8    C4    1.288503 A    
C24   H12   1.075721 S    
C25   H13   1.070190 S    
O1    C1    1.285873 A    
N1    N2    1.291279 D    
N1    O9    1.345673 S    
C2    C14   1.444887 S    
C10   C12   1.535805 S    
C19   H8    1.076428 S    
C1    C13   1.443068 S    
C21   C26   1.399942 A    
C9    C11   1.532374 S    
C22   C23   1.395465 A    
Zn2   N1    2.029201 S    
O2    Zn2   2.009411 S    
C30   H24   1.108432 S    
C28   H19   1.112349 S    
C5    C10   1.538137 S    
O1    Zn1   2.009411 S    
C21   C22   1.402403 A    
C6    C9    1.533213 S    
C29   H23   1.102956 S    
C24   C25   1.391044 A    
C3    C10   1.438479 S    
O5    Zn1   2.008861 S    
C23   C24   1.393046 A    
C6    C8    1.539221 S    
O4    C2    1.300262 A    
C18   C19   1.393938 A    
C8    C11   1.540437 S    
Zn1   N2    2.029201 S    
O4    Zn1   2.030256 S    
C30   H25   1.108926 S    
C7    C12   1.539977 S    
C8    C10   1.523471 S    
C27   H15   1.112013 S    
O12   C30   1.414507 S    
C28   H20   1.105968 S    
O6    Zn2   2.008859 S    
C16   H5    1.082066 S    
C5    C7    1.540521 S    
O10   C28   1.397728 S    
C6    H2    1.109242 S    
C12   H4    1.106083 S    
C18   H7    1.075573 S    
C27   H17   1.106898 S    
C15   C16   1.403116 A    
C5    H1    1.109255 S    
C19   C20   1.393425 A    
O11   C29   1.411381 S    
O3    C1    1.301583 A    
O8    Zn1   2.011883 S    
C29   H22   1.105878 S    
