data_mof_unit_6385.cif
_audit_creation_date              2012-12-10T18:30:30-0500
_audit_creation_method            fapswitch 2.2
_symmetry_space_group_name_H-M    P1
_symmetry_Int_Tables_number       1
_space_group_crystal_system       triclinic
_cell_length_a                    15.020474
_cell_length_b                    14.165571
_cell_length_c                    15.66392
_cell_angle_alpha                 89.674887
_cell_angle_beta                  82.670149
_cell_angle_gamma                 104.133601
_cell_volume                      3203.21704326

loop_
_atom_site_label
_atom_site_type_symbol
_atom_type_description
_atom_site_fract_x
_atom_site_fract_y
_atom_site_fract_z
_atom_type_partial_charge
C1    C     C_R   0.557974 0.512962 0.338457 0.890200
C2    C     C_R   0.398698 0.522692 0.070481 -0.357326
C3    C     C_R   0.671136 0.496899 0.982511 0.463288
C4    C     C_R   0.328872 0.503129 0.017489 0.463295
C5    C     C_R   0.160298 0.361090 0.358653 0.374230
C6    C     C_R   0.839703 0.638911 0.641345 0.374228
C7    C     C_R   0.249806 0.387811 0.382730 -0.147864
C8    C     C_R   0.750195 0.612189 0.617270 -0.147859
C9    C     C_R   0.204958 0.489995 0.490704 -0.076532
C10   C     C_R   0.795042 0.510005 0.509295 -0.076534
C11   C     C_R   0.114412 0.469651 0.469336 -0.069661
C12   C     C_R   0.442027 0.487039 0.661543 0.890200
C13   C     C_R   0.885588 0.530350 0.530663 -0.069663
C14   C     C_R   0.092743 0.403707 0.402438 0.082052
C15   C     C_R   0.907258 0.596294 0.597560 0.082053
C16   C     C_R   0.498652 0.329190 0.499779 0.886115
C17   C     C_R   0.501348 0.670810 0.500220 0.886114
C18   C     C_R   0.045382 0.512277 0.512142 0.117380
C19   C     C_R   0.954618 0.487723 0.487857 0.117381
C20   C     C_R   0.935629 0.421010 0.421889 -0.265196
C21   C     C_R   0.064372 0.578991 0.578110 -0.265195
C22   C     C_R   0.003144 0.380262 0.380349 -0.170929
C23   C     C_R   0.555425 0.516187 0.100538 -0.007460
C24   C     C_R   0.996857 0.619739 0.619650 -0.170926
C25   C     C_1   0.496354 0.227009 0.499198 -0.206926
C26   C     C_1   0.503646 0.772991 0.500801 -0.206927
C27   C     C_1   0.496769 0.141804 0.499264 -0.010075
C28   C     C_1   0.503232 0.858196 0.500734 -0.010076
C29   C     C_1   0.498891 0.042354 0.499744 0.007078
C30   C     C_1   0.501110 0.957646 0.500255 0.007078
C31   C     C_R   0.592801 0.520854 0.246709 -0.107809
C32   C     C_R   0.407200 0.479153 0.753291 -0.107813
C33   C     C_R   0.716179 0.531796 0.127451 0.522692
C34   C     C_R   0.444581 0.483835 0.899461 -0.007461
C35   C     C_R   0.283825 0.468220 0.872550 0.522690
C36   C     C_R   0.686315 0.531233 0.216471 -0.350291
C37   C     C_R   0.313687 0.468775 0.783531 -0.350288
C38   C     C_R   0.529296 0.515381 0.189013 -0.239942
C39   C     C_R   0.470707 0.484635 0.810987 -0.239938
C40   C     C_3   0.804386 0.555244 0.890584 0.165979
C41   C     C_3   0.900276 0.540399 0.860937 -0.758701
C42   C     C_3   0.195624 0.444794 0.109423 0.165979
C43   C     C_3   0.099735 0.459642 0.139068 -0.758729
C44   C     C_3   0.867725 0.618211 0.134089 0.073959
C45   C     C_R   0.648798 0.516180 0.069573 -0.042481
C46   C     C_3   0.957369 0.654972 0.073444 -0.799403
C47   C     C_3   0.132282 0.381792 0.865926 0.073962
C48   C     C_3   0.042637 0.345041 0.926572 -0.799398
C49   C     C_3   0.197844 0.240850 0.266669 0.073579
C50   C     C_3   0.154058 0.163638 0.207220 -0.817310
C51   C     C_3   0.802173 0.759175 0.733305 0.073569
C52   C     C_3   0.845969 0.836396 0.792743 -0.817321
C53   C     C_R   0.351208 0.483842 0.930427 -0.042484
C54   C     C_R   0.488347 0.509720 0.043348 0.045000
C55   C     C_R   0.511661 0.490307 0.956650 0.045001
C56   C     C_R   0.601310 0.477337 0.929518 -0.357319
H1    H     H_    0.868866 0.397645 0.400272 0.143215
H2    H     H_    0.940400 0.601219 0.816149 0.229304
H3    H     H_    0.937997 0.538589 0.917060 0.261976
H4    H     H_    0.232408 0.447191 0.166996 0.133606
H5    H     H_    0.187538 0.371663 0.081161 0.137987
H6    H     H_    0.062010 0.461437 0.082945 0.261977
H7    H     H_    0.059615 0.398830 0.183867 0.229302
H8    H     H_    0.105570 0.529333 0.172603 0.242143
H9    H     H_    0.542537 0.496454 0.785103 0.167431
H10   H     H_    0.457466 0.503562 0.214895 0.167428
H11   H     H_    0.885271 0.591934 0.195310 0.150729
H12   H     H_    0.131134 0.602356 0.599727 0.143215
H13   H     H_    0.835966 0.681114 0.146717 0.128737
H14   H     H_    0.942867 0.685818 0.012889 0.244166
H15   H     H_    0.005483 0.712816 0.104374 0.212038
H16   H     H_    0.991016 0.594482 0.058119 0.265503
H17   H     H_    0.164043 0.318888 0.853314 0.128735
H18   H     H_    0.114737 0.408051 0.804697 0.150726
H19   H     H_    0.008989 0.405533 0.941883 0.265504
H20   H     H_    0.994525 0.287188 0.895651 0.212038
H21   H     H_    0.057138 0.314211 0.987134 0.244165
H22   H     H_    0.983987 0.329330 0.330573 0.192771
H23   H     H_    0.264624 0.464462 0.737892 0.159742
H24   H     H_    0.016013 0.670671 0.669426 0.192768
H25   H     H_    0.771635 0.462909 0.458935 0.140018
H26   H     H_    0.228365 0.537092 0.541064 0.140018
H27   H     H_    0.693995 0.639682 0.648819 0.131519
H28   H     H_    0.306005 0.360317 0.351182 0.131518
H29   H     H_    0.213374 0.202891 0.323380 0.151634
H30   H     H_    0.262677 0.286333 0.230150 0.129764
H31   H     H_    0.137721 0.198751 0.149590 0.243822
H32   H     H_    0.202791 0.118101 0.186025 0.210001
H33   H     H_    0.089194 0.116166 0.241612 0.260173
H34   H     H_    0.735376 0.535540 0.262111 0.159740
H35   H     H_    0.737330 0.713716 0.769826 0.129778
H36   H     H_    0.786660 0.797127 0.676581 0.151634
H37   H     H_    0.910846 0.883843 0.758351 0.260174
H38   H     H_    0.797253 0.881957 0.813916 0.210005
H39   H     H_    0.862285 0.801289 0.850386 0.243823
H40   H     H_    0.619084 0.448905 0.867699 0.162689
H41   H     H_    0.380927 0.551127 0.132299 0.162688
H42   H     H_    0.812473 0.628371 0.918855 0.137986
H43   H     H_    0.767604 0.552858 0.833011 0.133631
H44   H     H_    0.894441 0.470716 0.827390 0.242141
N1    N     N_R   0.268300 0.449640 0.447270 -0.107321
N2    N     N_R   0.731700 0.550360 0.552730 -0.107321
O1    O     O_R   0.616880 0.525390 0.394380 -0.613291
O2    O     O_3   0.243082 0.518866 0.047565 -0.565034
O3    O     O_3   0.809006 0.540480 0.096359 -0.568667
O4    O     O_3   0.190999 0.459536 0.903643 -0.568665
O5    O     O_3   0.135394 0.298706 0.291988 -0.641828
O6    O     O_3   0.864604 0.701293 0.708012 -0.641840
O7    O     O_R   0.383120 0.474610 0.605620 -0.613289
O8    O     O_R   0.468100 0.493070 0.360490 -0.622340
O9    O     O_R   0.531900 0.506930 0.639510 -0.622338
O10   O     O_R   0.574410 0.389880 0.516950 -0.590678
O11   O     O_R   0.425590 0.610120 0.483050 -0.590680
O12   O     O_R   0.425630 0.357560 0.483060 -0.596812
O13   O     O_R   0.574370 0.642440 0.516940 -0.596814
O14   O     O_3   0.756926 0.481164 0.952433 -0.565039
Zn1   Zn    Zn3+2 0.599340 0.521580 0.522630 0.933364
Zn2   Zn    Zn3+2 0.400660 0.478420 0.477370 0.933364

loop_
_geom_bond_atom_site_label_1
_geom_bond_atom_site_label_2
_ccdc_geom_bond_type
C55   C56   A    
C11   C18   A    
C23   C45   A    
C4    C53   A    
C35   C53   A    
C18   C21   A    
C33   C45   A    
C48   H20   S    
C19   C20   A    
O8    Zn2   S    
C40   H43   S    
C43   H7    S    
C49   O5    S    
C44   O3    S    
C37   H23   S    
C16   O10   A    
N1    Zn2   S    
C35   C37   A    
C41   H2    S    
C3    O14   S    
C40   H42   S    
O10   Zn1   S    
C1    O8    A    
C11   C14   A    
C27   C29   S    
C8    H27   S    
C1    C31   S    
C33   C36   A    
C52   H39   S    
C18   C19   A    
C32   C39   A    
C51   H35   S    
C6    C15   A    
C24   H24   S    
C38   H10   S    
C2    H41   S    
C51   O6    S    
O13   Zn1   S    
C43   H8    S    
C52   H38   S    
C1    O1    A    
C46   H16   S    
C50   H32   S    
C9    H26   S    
C7    H28   S    
C34   C55   A    
C12   C32   S    
C39   H9    S    
C48   H19   S    
O1    Zn1   S    
C12   O7    A    
C44   C46   S    
O7    Zn2   S    
C13   C19   A    
C17   O11   A    
C51   C52   S    
C49   H29   S    
C52   H37   S    
C33   O3    S    
C41   H3    S    
C2    C54   A    
C42   H4    S    
C5    C7    A    
C6    C8    A    
C3    C45   A    
C34   C39   A    
C16   O12   A    
C48   H21   S    
C2    C4    A    
C29   C30   T    
C51   H36   S    
C3    C56   A    
C50   H33   S    
C47   C48   S    
C10   N2    A    
C47   O4    S    
C46   H15   S    
C41   H44   S    
C44   H13   S    
C32   C37   A    
C9    C11   A    
C42   H5    S    
C47   H17   S    
C5    C14   A    
O12   Zn2   S    
N2    Zn1   S    
C50   H31   S    
C40   C41   S    
C20   C22   A    
C13   C15   A    
C21   H12   S    
C42   C43   S    
C17   C26   S    
C17   O13   A    
C23   C54   A    
C5    O5    S    
C36   H34   S    
C16   C25   S    
C56   H40   S    
C54   C55   A    
C15   C24   A    
C49   H30   S    
C47   H18   S    
C10   C13   A    
C42   O2    S    
C25   C27   T    
C23   C38   A    
C10   H25   S    
C26   C28   T    
C31   C38   A    
O9    Zn1   S    
C14   C22   A    
C28   C30   S    
C35   O4    S    
C40   O14   S    
C22   H22   S    
C4    O2    S    
C46   H14   S    
O11   Zn2   S    
C34   C53   A    
C9    N1    A    
C49   C50   S    
C7    N1    A    
C21   C24   A    
C6    O6    S    
C31   C36   A    
C44   H11   S    
C20   H1    S    
C8    N2    A    
C12   O9    A    
C43   H6    S    
