data_mof_unit_32936.cif
_audit_creation_date              2013-03-05T15:43:08-0500
_audit_creation_method            fapswitch 2.2
_symmetry_space_group_name_H-M    P1
_symmetry_Int_Tables_number       1
_space_group_crystal_system       triclinic
_cell_length_a                    6.964899
_cell_length_b                    13.83372
_cell_length_c                    18.172372
_cell_angle_alpha                 112.578869
_cell_angle_beta                  95.158524
_cell_angle_gamma                 90.07161
_cell_volume                      1608.94526199

loop_
_atom_site_label
_atom_site_type_symbol
_atom_site_description
_atom_site_fract_x
_atom_site_fract_y
_atom_site_fract_z
_atom_type_partial_charge
O1    O     O_R   0.484560 0.544530 0.414330 -0.568955
O2    O     O_R   0.197040 0.638810 0.585080 -0.554403
O3    O     O_R   0.026800 0.455470 0.585670 -0.486082
C1    C     C_R   0.373422 0.676490 0.612183 0.960351
O4    O     O_R   0.155000 0.556150 0.414940 -0.571310
O5    O     O_R   0.984450 0.372220 0.414320 -0.566282
C2    C     C_R   0.317966 0.565155 0.386881 0.864614
O6    O     O_R   0.526900 0.627780 0.585680 -0.556165
O7    O     O_3   0.339170 0.439750 0.499990 -0.189380
V1    V     V_3+5 0.064350 0.511180 0.500000 1.228888
O8    O     O_R   0.654880 0.361190 0.414920 -0.556375
C3    C     C_R   0.817482 0.324884 0.386460 0.878903
O9    O     O_R   0.696930 0.443850 0.585060 -0.523121
C4    C     C_R   0.873085 0.432138 0.611112 0.913143
V2    V     V_3+5 0.564340 0.488820 0.500000 1.243677
O10   O     O_3   0.839390 0.560250 0.500010 -0.304893
C5    C     C_R   0.041552 0.861366 0.824741 -0.091840
C6    C     C_R   0.905809 0.391020 0.675160 -0.142052
C7    C     C_R   0.913210 0.819008 0.687779 -0.045137
C8    C     C_R   0.971939 0.787554 0.749822 -0.106848
C9    C     C_R   0.051101 0.968399 0.837463 -0.103900
C10   C     C_R   0.992259 0.002778 0.774527 0.026018
C11   C     C_R   0.921486 0.925145 0.699609 0.042786
C12   C     C_R   0.998758 0.110609 0.782958 0.024377
C13   C     C_R   0.942796 0.137861 0.715239 0.034147
C14   C     C_R   0.864097 0.056635 0.644344 -0.025147
C15   C     C_R   0.854375 0.953528 0.636868 -0.029992
C16   C     C_R   0.053898 0.191972 0.857277 -0.082498
C17   C     C_R   0.055575 0.295761 0.865843 -0.082026
C18   C     C_R   0.007576 0.323599 0.800624 0.018041
C19   C     C_R   0.955055 0.245888 0.722819 -0.028493
C20   C     C_R   0.012903 0.430131 0.813959 -0.063197
C21   C     C_R   0.959646 0.463313 0.752475 -0.137678
C22   C     C_R   0.915742 0.281897 0.658056 0.287043
H1    H     H_    0.795970 0.894664 0.580176 0.153525
H2    H     H_    0.963345 0.546455 0.765179 0.076821
H3    H     H_    0.096588 0.355491 0.924787 0.063740
H4    H     H_    0.858059 0.760095 0.630418 0.122559
H5    H     H_    0.959340 0.705344 0.739731 0.054481
H6    H     H_    0.102790 0.022055 0.896849 0.104039
H7    H     H_    0.793584 0.069764 0.594401 0.140492
H8    H     H_    0.093795 0.178310 0.910978 0.096666
H9    H     H_    0.056138 0.488737 0.873072 0.113161
H10   H     H_    0.113699 0.223849 0.307228 0.110512
H11   H     H_    0.833904 0.036258 0.193550 0.127445
C23   C     C_2   0.134238 0.037316 0.183178 -0.193189
C24   C     C_2   0.972023 0.078638 0.216430 -0.056101
H12   H     H_    0.676234 0.179108 0.295319 0.073371
C25   C     C_2   0.813855 0.221927 0.318453 -0.168497
C26   C     C_2   0.975745 0.181214 0.284595 -0.070222
H13   H     H_    0.271998 0.079921 0.206518 0.076648
C27   C     C_R   0.407487 0.780202 0.679591 -0.168852
C28   C     C_R   0.550853 0.468362 0.851096 -0.125930
C29   C     C_R   0.522000 0.874765 0.818276 -0.024954
C30   C     C_R   0.471512 0.781310 0.754456 -0.174248
C31   C     C_R   0.403197 0.875211 0.667091 0.294537
C32   C     C_R   0.452969 0.975339 0.733855 -0.058633
C33   C     C_R   0.506335 0.971843 0.810626 -0.071916
C34   C     C_R   0.457962 0.077837 0.729106 0.009638
C35   C     C_R   0.499665 0.172387 0.800019 -0.004072
C36   C     C_R   0.544731 0.162113 0.873203 -0.136966
C37   C     C_R   0.549958 0.064875 0.879135 0.324914
C38   C     C_R   0.437785 0.089611 0.655650 -0.060400
C39   C     C_R   0.445293 0.185923 0.650439 -0.038757
C40   C     C_R   0.463233 0.278849 0.718154 -0.048905
C41   C     C_R   0.501169 0.274525 0.795066 0.046885
C42   C     C_R   0.456871 0.376737 0.710514 0.292285
C43   C     C_R   0.516378 0.466887 0.775632 -0.106561
C44   C     C_R   0.540317 0.372889 0.862673 -0.142380
H14   H     H_    0.563655 0.377943 0.923470 0.046095
H15   H     H_    0.527609 0.540958 0.768674 0.107326
H16   H     H_    0.452749 0.184223 0.591101 0.192208
H17   H     H_    0.575156 0.869815 0.874298 0.174643
H18   H     H_    0.484959 0.708649 0.763505 0.096131
H19   H     H_    0.578679 0.229409 0.927988 0.108024
H20   H     H_    0.439969 0.026645 0.599055 0.167674
H21   H     H_    0.348057 0.681451 0.204182 0.097257
H22   H     H_    0.597910 0.563678 0.295758 0.103908
C45   C     C_2   0.316349 0.605851 0.321667 -0.177172
C46   C     C_2   0.472409 0.601470 0.281281 -0.086641
C47   C     C_2   0.636898 0.646275 0.178613 -0.097795
C48   C     C_2   0.478328 0.646082 0.218033 -0.077160
H23   H     H_    0.186776 0.640978 0.307303 0.071991
O11   O     O_R   0.421600 0.630430 0.917010 -0.560229
O12   O     O_R   0.793840 0.702190 0.087630 -0.578207
O13   O     O_R   0.964010 0.886170 0.088190 -0.552470
C49   C     C_R   0.631230 0.691726 0.115313 0.793940
O14   O     O_R   0.751460 0.619510 0.917500 -0.567894
O15   O     O_R   0.921330 0.802900 0.916840 -0.562957
C50   C     C_R   0.579040 0.575676 0.913302 0.792117
O16   O     O_R   0.464290 0.713700 0.088350 -0.580159
O17   O     O_3   0.609200 0.818520 0.002630 -0.241138
V3    V     V_3+5 0.884140 0.747190 0.002530 1.131724
O18   O     O_R   0.251150 0.814630 0.917340 -0.545219
C51   C     C_R   0.075141 0.826385 0.891540 0.856136
O19   O     O_R   0.293530 0.897310 0.087470 -0.532540
C52   C     C_R   0.130820 0.933876 0.115668 0.875501
V4    V     V_3+5 0.384070 0.769710 0.002370 1.167540
O20   O     O_3   0.109180 0.698190 0.002460 -0.303567
N1    N     N_R   0.597413 0.062589 0.957000 0.065799
O21   O     O_R   0.747804 0.116149 0.002011 -0.399630
O22   O     O_R   0.472066 0.024379 0.988565 -0.375247
N2    N     N_R   0.908295 0.212228 0.575279 0.063162
O23   O     O_R   0.048812 0.150016 0.549436 -0.323282
O24   O     O_R   0.766308 0.214575 0.524385 -0.393343
N3    N     N_R   0.355930 0.864722 0.585825 0.036819
O25   O     O_R   0.186403 0.888070 0.563237 -0.373232
O26   O     O_R   0.466924 0.812807 0.531136 -0.416722
N4    N     N_R   0.379148 0.391883 0.640335 0.086830
O27   O     O_R   0.363341 0.487793 0.645425 -0.382659
O28   O     O_R   0.293552 0.316951 0.578131 -0.319918
C53   C     C_3   0.822157 0.596323 0.194735 -0.216973
C54   C     C_3   0.808466 0.477275 0.147433 -0.201629
C55   C     C_3   0.990072 0.425290 0.165201 -0.411112
H24   H     H_    0.119242 0.458645 0.150249 0.128910
H25   H     H_    0.008127 0.436978 0.229481 0.122071
H26   H     H_    0.977588 0.339815 0.128471 0.164500
H27   H     H_    0.682050 0.442202 0.162777 0.130499
H28   H     H_    0.788867 0.460533 0.082186 0.112346
H29   H     H_    0.947845 0.629165 0.177225 0.126784
H30   H     H_    0.855126 0.615827 0.259805 0.119603

loop_
_geom_bond_atom_site_label_1
_geom_bond_atom_site_label_2
_geom_bond_distance
_ccdc_geom_bond_type
C33   C37   1.413927 A    
C18   C20   1.398568 A    
C13   C19   1.448807 A    
C49   O16   1.302773 A    
C4    C6    1.480264 S    
O2    C1    1.309930 A    
C7    C8    1.386391 A    
C1    O6    1.293777 A    
C28   C44   1.417726 A    
C21   H2    1.082495 S    
C55   H24   1.111459 S    
O17   V4    1.705334 S    
C36   H19   1.076637 S    
C14   C15   1.380873 A    
C1    C27   1.487465 S    
C16   C17   1.383424 A    
O13   V3    1.993094 S    
N4    O28   1.298148 A    
O5    C3    1.294271 A    
C18   C19   1.423870 A    
H22   C46   1.082591 S    
C32   C34   1.453803 A    
C41   C44   1.445830 A    
N3    O25   1.297130 A    
O18   V4    2.027903 S    
V2    O10   2.154387 S    
V4    O20   2.154435 S    
C5    C8    1.394206 A    
C31   C32   1.464058 A    
C23   C24   1.351858 D    
C28   C43   1.363082 A    
O13   C52   1.294370 A    
O17   V3    2.155139 S    
C54   H28   1.112686 S    
C30   H18   1.081932 S    
O8    V2    1.996823 S    
C42   N4    1.429931 S    
C40   C42   1.413639 A    
O19   V4    1.996748 S    
O1    V2    2.023182 S    
C11   C15   1.386008 A    
O7    V1    2.155188 S    
V3    O20   1.708368 S    
C36   C37   1.390384 A    
C27   C30   1.387395 A    
H11   C24   1.086962 S    
C35   C41   1.449978 A    
C34   C35   1.446794 A    
O9    C4    1.307908 A    
C44   H14   1.077156 S    
O11   C50   1.325473 A    
C53   C54   1.535572 S    
C3    C25   1.482965 S    
C24   C26   1.480885 S    
O4    C2    1.310097 A    
O12   C49   1.309465 A    
C42   C43   1.380092 A    
C12   C13   1.441806 A    
C46   C48   1.502254 S    
C53   H29   1.110902 S    
C8    H5    1.082333 S    
C15   H1    1.081448 S    
C13   C14   1.408077 A    
C23   H13   1.086887 S    
C47   C48   1.369913 D    
C54   H27   1.111473 S    
C35   C36   1.399150 A    
O15   C51   1.291114 A    
C7    C11   1.400193 A    
C17   C18   1.394386 A    
C7    H4    1.083123 S    
C29   H17   1.078892 S    
O12   V3    2.021840 S    
C47   C53   1.522487 S    
O19   C52   1.307498 A    
N1    O22   1.300906 A    
C19   C22   1.449411 A    
N2    O24   1.301180 A    
C6    C22   1.422687 A    
C31   N3    1.434677 S    
C47   C49   1.505784 S    
O3    C4    1.291078 A    
C37   N1    1.436217 S    
H12   C25   1.086853 S    
C23   C52   1.483195 S    
O14   C50   1.327347 A    
C25   C26   1.351799 D    
O6    V2    1.990848 S    
O9    V2    2.027884 S    
C10   C12   1.440061 A    
O2    V1    2.001152 S    
C28   C50   1.480195 S    
C2    C45   1.493804 S    
C54   C55   1.525935 S    
C29   C33   1.405611 A    
H10   C26   1.086955 S    
C29   C30   1.383562 A    
O14   V3    2.001173 S    
O1    C2    1.297147 A    
C5    C51   1.470619 S    
C12   C16   1.405949 A    
C38   C39   1.372745 A    
O5    V1    1.993094 S    
C55   H25   1.111281 S    
O8    C3    1.307506 A    
C34   C38   1.400527 A    
C22   N2    1.437678 S    
O11   V4    1.991480 S    
C20   C21   1.384357 A    
O7    V2    1.708072 S    
O4    V1    2.021855 S    
O3    V1    2.019928 S    
V1    O10   1.708318 S    
N4    O27   1.299613 A    
C39   C40   1.392700 A    
C45   H23   1.083902 S    
C32   C33   1.430186 A    
C9    H6    1.076825 S    
N3    O26   1.300979 A    
H21   C48   1.086557 S    
C43   H15   1.083114 S    
C16   H8    1.076239 S    
N1    O21   1.301466 A    
C20   H9    1.083676 S    
C39   H16   1.075456 S    
O16   V4    2.031643 S    
O15   V3    2.019769 S    
O18   C51   1.305663 A    
C6    C21   1.392867 A    
C5    C9    1.408665 A    
C55   H26   1.111066 S    
C45   C46   1.353954 D    
C53   H30   1.108958 S    
C40   C41   1.422932 A    
C38   H20   1.063770 S    
C17   H3    1.084632 S    
N2    O23   1.301325 A    
C10   C11   1.416002 A    
C9    C10   1.426916 A    
C27   C31   1.417063 A    
C14   H7    1.069826 S    
