data_mof_unit_58572.cif
_audit_creation_date              2013-03-05T15:55:18-0500
_audit_creation_method            fapswitch 2.2
_symmetry_space_group_name_H-M    P1
_symmetry_Int_Tables_number       1
_space_group_crystal_system       triclinic
_cell_length_a                    6.934082
_cell_length_b                    16.766167
_cell_length_c                    17.110248
_cell_angle_alpha                 100.372783
_cell_angle_beta                  90.114622
_cell_angle_gamma                 90.116153
_cell_volume                      1956.68381581

loop_
_atom_site_label
_atom_site_type_symbol
_atom_site_description
_atom_site_fract_x
_atom_site_fract_y
_atom_site_fract_z
_atom_type_partial_charge
O1    O     O_R   0.494370 0.415690 0.413450 -0.599972
O2    O     O_R   0.819420 0.429360 0.578420 -0.591616
O3    O     O_R   0.994280 0.584310 0.586550 -0.592374
C1    C     C_R   0.651220 0.411858 0.603715 0.991047
O4    O     O_R   0.823790 0.406230 0.413570 -0.594222
O5    O     O_R   0.998670 0.561000 0.420530 -0.576912
C2    C     C_R   0.654722 0.383072 0.384915 0.954621
O6    O     O_R   0.489970 0.439000 0.579470 -0.580510
O7    O     O_3   0.662300 0.550810 0.502470 -0.250221
V1    V     V_3+5 0.935380 0.490570 0.499540 1.227163
O8    O     O_R   0.328650 0.570640 0.421580 -0.577036
C3    C     C_R   0.159233 0.586693 0.395402 1.024685
O9    O     O_R   0.324290 0.593770 0.586430 -0.581952
C4    C     C_R   0.156099 0.617852 0.614358 0.967785
V2    V     V_3+5 0.435930 0.509430 0.500460 1.237539
O10   O     O_3   0.159140 0.449190 0.497530 -0.266027
C5    C     C_R   0.299946 0.744551 0.701095 0.232874
C6    C     C_R   0.285194 0.807134 0.767165 -0.162197
H1    H     H_    0.402151 0.850531 0.779621 0.147388
C7    C     C_R   0.121007 0.815636 0.815780 -0.161067
C8    C     C_R   0.970154 0.759495 0.797402 -0.111008
H2    H     H_    0.841823 0.764164 0.833910 0.130823
C9    C     C_R   0.984703 0.695641 0.732478 -0.106140
H3    H     H_    0.867185 0.652413 0.721344 0.141640
C10   C     C_R   0.148248 0.687000 0.682897 -0.203940
C11   C     C_R   0.146446 0.637940 0.333005 -0.298986
C12   C     C_R   0.119356 0.864156 0.168290 -0.157465
C13   C     C_R   0.235724 0.852625 0.300938 0.370839
C14   C     C_R   0.204915 0.898310 0.240713 -0.251142
C15   C     C_R   0.069613 0.781724 0.154790 -0.207066
C16   C     C_R   0.100131 0.734335 0.214099 0.117707
C17   C     C_R   0.172660 0.770405 0.290014 -0.049784
C18   C     C_R   0.176984 0.722883 0.351551 0.171447
C19   C     C_R   0.089855 0.602604 0.255379 0.181237
C20   C     C_R   0.060796 0.650929 0.197771 -0.172819
H4    H     H_    0.010320 0.622686 0.139321 0.161507
H5    H     H_    0.256021 0.960433 0.249154 0.158404
H6    H     H_    0.012293 0.754000 0.097262 0.120803
C21   C     C_R   0.652258 0.358490 0.664795 -0.259333
C22   C     C_R   0.611318 0.133445 0.830016 -0.196959
C23   C     C_R   0.457038 0.160663 0.709378 0.378307
C24   C     C_R   0.476146 0.113979 0.768967 -0.213894
C25   C     C_R   0.732698 0.200050 0.830596 -0.135969
C26   C     C_R   0.706852 0.252433 0.775040 -0.002546
C27   C     C_R   0.560603 0.235039 0.715194 -0.053540
C28   C     C_R   0.523239 0.292631 0.664395 0.200332
C29   C     C_R   0.801921 0.370843 0.720934 -0.251431
C30   C     C_R   0.825644 0.321399 0.777663 0.378823
H7    H     H_    0.899019 0.421893 0.722465 0.173619
H8    H     H_    0.390856 0.059146 0.765426 0.161620
H9    H     H_    0.842116 0.211793 0.876353 0.172847
C31   C     C_R   0.811476 0.275610 0.283092 -0.078501
H10   H     H_    0.952043 0.294252 0.307510 0.131402
C32   C     C_R   0.800532 0.211874 0.217923 -0.095863
H11   H     H_    0.933147 0.183263 0.194311 0.124079
C33   C     C_R   0.621216 0.185358 0.183940 -0.137947
C34   C     C_R   0.453160 0.224455 0.216958 -0.103387
H12   H     H_    0.312593 0.205825 0.192538 0.125442
C35   C     C_R   0.464128 0.288259 0.282079 -0.083877
H13   H     H_    0.331541 0.316948 0.305642 0.135066
C36   C     C_R   0.643448 0.314701 0.316105 -0.131193
O11   O     O_R   0.774880 0.061150 0.920630 -0.588090
O12   O     O_R   0.440980 0.093710 0.086500 -0.599670
O13   O     O_R   0.266190 0.938890 0.079390 -0.591993
C37   C     C_R   0.610022 0.116919 0.115152 0.941380
O14   O     O_R   0.445420 0.070740 0.921670 -0.590861
O15   O     O_R   0.270660 0.915760 0.913380 -0.601956
C38   C     C_R   0.612882 0.085644 0.894671 0.978767
O16   O     O_R   0.770400 0.084270 0.086640 -0.598117
O17   O     O_3   0.602590 0.949210 0.997500 -0.275586
V3    V     V_3+5 0.329470 0.009420 0.000470 1.183950
O18   O     O_R   0.940650 0.906250 0.913470 -0.599611
C39   C     C_R   0.109529 0.883278 0.884907 0.942236
O19   O     O_R   0.936210 0.929220 0.078300 -0.588557
C40   C     C_R   0.105585 0.912991 0.104303 0.953155
V4    V     V_3+5 0.828930 0.990510 0.999490 1.183445
O20   O     O_3   0.105680 0.050790 0.002500 -0.269268
I1    I     I_    0.554331 0.747921 0.632188 -0.276558
I2    I     I_    0.259561 0.290295 0.597308 -0.214821
N1    N     N_R   0.353224 0.125241 0.639136 0.247793
O21   O     O_R   0.188169 0.089723 0.645130 -0.343452
O22   O     O_R   0.441845 0.112728 0.571042 -0.300988
N2    N     N_R   0.972955 0.342148 0.837040 0.228321
O23   O     O_R   0.143449 0.363603 0.816601 -0.391348
O24   O     O_R   0.926973 0.355203 0.911953 -0.381378
I3    I     I_    0.166132 0.778085 0.474555 -0.160330
I4    I     I_    0.038196 0.476052 0.222048 -0.372235
N3    N     N_R   0.355739 0.887469 0.366669 0.250091
O25   O     O_R   0.333851 0.963092 0.399757 -0.302040
O26   O     O_R   0.510478 0.849372 0.382340 -0.344431

loop_
_geom_bond_atom_site_label_1
_geom_bond_atom_site_label_2
_geom_bond_distance
_ccdc_geom_bond_type
O14   C38   1.291035 A    
O12   C37   1.301093 A    
C12   C14   1.398420 A    
C23   C24   1.398922 A    
C20   H4    1.083649 S    
C1    O6    1.302909 A    
C23   N1    1.432880 S    
C29   H7    1.084497 S    
C27   C28   1.434341 A    
C31   H10   1.082777 S    
O19   V4    1.981348 S    
N2    O23   1.301761 A    
C13   C14   1.406488 A    
C6    H1    1.083333 S    
C31   C36   1.406606 A    
O5    C3    1.294852 A    
C28   I2    2.153411 S    
C34   C35   1.400634 A    
C33   C37   1.490270 S    
C33   C34   1.406840 A    
C15   H6    1.084376 S    
O16   V4    2.005076 S    
C19   C20   1.398614 A    
O13   V3    1.997394 S    
C2    C36   1.489825 S    
O8    V2    1.981415 S    
C11   C19   1.408079 A    
C22   C25   1.395600 A    
C16   C17   1.420970 A    
C13   N3    1.434007 S    
C9    H3    1.082989 S    
O17   V3    2.144279 S    
O15   C39   1.296948 A    
O7    V1    2.144310 S    
C6    C7    1.403614 A    
O18   V4    2.005593 S    
C22   C24   1.395783 A    
C35   H13   1.082859 S    
O9    C4    1.298525 A    
C12   C15   1.401859 A    
O11   V4    1.984710 S    
C12   C40   1.483539 S    
C31   C32   1.400464 A    
C32   C33   1.408384 A    
C35   C36   1.408372 A    
O19   C40   1.301594 A    
C29   C30   1.395022 A    
C13   C17   1.425109 A    
V4    O20   2.163257 S    
N1    O22   1.301716 A    
O4    C2    1.301081 A    
N1    O21   1.301815 A    
C3    C11   1.488703 S    
O2    C1    1.296180 A    
C18   I3    2.142710 S    
C11   C18   1.417590 A    
O14   V3    2.005355 S    
C1    C21   1.493194 S    
C5    C6    1.401126 A    
C7    C8    1.402554 A    
O3    C4    1.304079 A    
C24   H8    1.084545 S    
C21   C28   1.418768 A    
O1    V2    2.003287 S    
N2    O24   1.301312 A    
N3    O26   1.301715 A    
O6    V2    1.984185 S    
O9    V2    2.005627 S    
C25   C26   1.416922 A    
O17   V4    1.711939 S    
C16   C20   1.401930 A    
O2    V1    2.005267 S    
V3    O20   1.698891 S    
C26   C27   1.431462 A    
C21   C29   1.402148 A    
C32   H11   1.082772 S    
O1    C2    1.297018 A    
O12   V3    2.000935 S    
O18   C39   1.301849 A    
O5    V1    1.997421 S    
O8    C3    1.302183 A    
C30   N2    1.436570 S    
O11   C38   1.301272 A    
C5    C10   1.421562 A    
C17   C18   1.430529 A    
C8    C9    1.401058 A    
O7    V2    1.712645 S    
O4    V1    2.001004 S    
O3    V1    2.001428 S    
V1    O10   1.698786 S    
C25   H9    1.081139 S    
C34   H12   1.082747 S    
C15   C16   1.412813 A    
C37   O16   1.297238 A    
V2    O10   2.163278 S    
C5    I1    2.129930 S    
O13   C40   1.295021 A    
C7    C39   1.486340 S    
O15   V3    2.001256 S    
C19   I4    2.125075 S    
C9    C10   1.409606 A    
C4    C10   1.494406 S    
N3    O25   1.301455 A    
C22   C38   1.478347 S    
C14   H5    1.084166 S    
C23   C27   1.425492 A    
C8    H2    1.083085 S    
C26   C30   1.412384 A    
