data_mof_unit_8895.cif
_audit_creation_date              2012-12-10T20:02:19-0500
_audit_creation_method            fapswitch 2.2
_symmetry_space_group_name_H-M    P1
_symmetry_Int_Tables_number       1
_space_group_crystal_system       triclinic
_cell_length_a                    10.688722
_cell_length_b                    14.975575
_cell_length_c                    14.148041
_cell_angle_alpha                 90.158937
_cell_angle_beta                  90.23805
_cell_angle_gamma                 89.640199
_cell_volume                      2264.6007489

loop_
_atom_site_label
_atom_site_type_symbol
_atom_type_description
_atom_site_fract_x
_atom_site_fract_y
_atom_site_fract_z
_atom_type_partial_charge
C1    C     C_R   0.497131 0.327521 0.499857 0.864535
C2    C     C_R   0.499634 0.672145 0.500127 0.861169
C3    C     C_R   0.872435 0.496331 0.500539 -0.074413
C4    C     C_R   0.127665 0.505177 0.500214 -0.078234
C5    C     C_R   0.939917 0.449677 0.570367 -0.009548
C6    C     C_R   0.060259 0.553544 0.431610 0.009795
C7    C     C_R   0.480806 0.092711 0.583881 -0.167043
C8    C     C_R   0.538864 0.907406 0.427046 -0.173089
C9    C     C_R   0.489705 0.184613 0.584649 -0.204763
C10   C     C_R   0.549860 0.815548 0.428523 -0.198178
C11   C     C_R   0.484489 0.231649 0.499386 -0.036883
C12   C     C_R   0.491468 0.767569 0.500168 -0.037258
C13   C     C_R   0.463322 0.186780 0.413853 -0.174868
C14   C     C_R   0.420287 0.810690 0.569448 -0.185853
C15   C     C_R   0.451784 0.094998 0.413336 -0.173062
C16   C     C_R   0.407198 0.902460 0.566935 -0.158429
C17   C     C_R   0.463507 0.047654 0.498052 0.113840
C18   C     C_R   0.467543 0.951059 0.496283 0.097488
C19   C     C_R   0.392316 0.471244 0.104695 0.419965
C20   C     C_R   0.490435 0.582398 0.894897 0.409353
C21   C     C_R   0.396567 0.471554 0.204565 -0.106104
C22   C     C_R   0.490800 0.579130 0.795118 -0.089447
C23   C     C_R   0.260075 0.502888 0.499867 0.875303
C24   C     C_R   0.739974 0.497320 0.500242 0.880720
C25   C     C_R   0.602356 0.528222 0.204062 -0.007442
C26   C     C_R   0.510283 0.422029 0.796529 0.010264
C27   C     C_R   0.603496 0.528161 0.104700 -0.302443
C28   C     C_R   0.511013 0.421652 0.895875 -0.266194
C29   C     C_R   0.498074 0.499972 0.053243 0.022332
C30   C     C_R   0.500023 0.501944 0.946882 0.055276
C31   C     C_R   0.240225 0.748442 0.331431 -0.131573
C32   C     C_R   0.774865 0.255954 0.685717 -0.138805
C33   C     C_R   0.190068 0.687881 0.395805 -0.114366
C34   C     C_R   0.824863 0.311694 0.616540 -0.129722
C35   C     C_R   0.119402 0.615084 0.363392 0.109556
C36   C     C_R   0.880765 0.392703 0.642599 0.129934
C37   C     C_R   0.099586 0.603919 0.265883 -0.154471
C38   C     C_R   0.884889 0.417681 0.738311 -0.117507
C39   C     C_R   0.150971 0.664122 0.201728 -0.069717
C40   C     C_R   0.832761 0.362471 0.807047 -0.120258
C41   C     C_R   0.220839 0.736534 0.234535 -0.120108
C42   C     C_R   0.778144 0.281507 0.780792 -0.128148
C43   C     C_R   0.931818 0.547264 0.431784 -0.236507
C44   C     C_R   0.068225 0.454728 0.569316 -0.229212
H1    H     H_    0.259230 0.783838 0.184967 0.172488
H2    H     H_    0.738548 0.238525 0.834111 0.140122
H3    H     H_    0.436004 0.060846 0.346780 0.140926
H4    H     H_    0.350656 0.935472 0.620099 0.149148
H5    H     H_    0.316613 0.449239 0.244366 0.184004
H6    H     H_    0.483462 0.640373 0.755357 0.179242
H7    H     H_    0.683885 0.550991 0.242423 0.147170
H8    H     H_    0.518410 0.359464 0.758854 0.147023
H9    H     H_    0.686304 0.550470 0.068029 0.193271
H10   H     H_    0.520033 0.358718 0.932869 0.180449
H11   H     H_    0.293024 0.805153 0.356632 0.153868
H12   H     H_    0.734421 0.192612 0.665726 0.142210
H13   H     H_    0.204492 0.698447 0.470815 0.108937
H14   H     H_    0.821942 0.291183 0.543091 0.120045
H15   H     H_    0.044117 0.548789 0.239778 0.175873
H16   H     H_    0.928188 0.479848 0.759474 0.138430
H17   H     H_    0.135654 0.655047 0.126655 0.209234
H18   H     H_    0.835274 0.382212 0.880684 0.148902
H19   H     H_    0.877611 0.585267 0.380594 0.150601
H20   H     H_    0.122093 0.417073 0.621006 0.169572
H21   H     H_    0.491477 0.056828 0.649824 0.145833
H22   H     H_    0.588163 0.944350 0.373211 0.145118
H23   H     H_    0.503343 0.218434 0.651606 0.153755
H24   H     H_    0.605021 0.782080 0.374792 0.157363
H25   H     H_    0.456003 0.222338 0.347465 0.168761
H26   H     H_    0.373054 0.773301 0.624062 0.165118
N1    N     N_R   0.500000 0.499980 0.252470 -0.117605
N2    N     N_R   0.500000 0.500020 0.747530 -0.118539
O1    O     O_R   0.500010 0.369070 0.579480 -0.629760
O2    O     O_R   0.499990 0.630930 0.420520 -0.612345
O3    O     O_R   0.500010 0.369060 0.420520 -0.617796
O4    O     O_R   0.499990 0.630940 0.579480 -0.628629
O5    O     O_R   0.316760 0.500010 0.579480 -0.614580
O6    O     O_R   0.683240 0.499990 0.420520 -0.632779
O7    O     O_R   0.316760 0.500000 0.420520 -0.615547
O8    O     O_R   0.683240 0.500000 0.579480 -0.601817
Zn1   Zn    Zn3+2 0.500000 0.500010 0.606140 0.967651
Zn2   Zn    Zn3+2 0.500000 0.499990 0.393860 0.960256
S1    S     S_3+6 0.253722 0.436777 0.046691 0.001053
O9    O     O_2   0.276386 0.347522 0.000861 -0.311453
O10   O     O_2   0.148229 0.428742 0.115989 -0.336884
O11   O     O_3   0.214321 0.511668 0.963180 -0.533123
H27   H     H_    0.143708 0.484262 0.928305 0.375915
S2    S     S_3+6 0.477459 0.687448 0.951556 0.031071
O12   O     O_2   0.604172 0.714241 0.987982 -0.329944
O13   O     O_2   0.431765 0.757178 0.883208 -0.273765
O14   O     O_3   0.376345 0.681455 0.042058 -0.535945
H28   H     H_    0.427923 0.686959 0.100078 0.361218

loop_
_geom_bond_atom_site_label_1
_geom_bond_atom_site_label_2
_ccdc_geom_bond_type
C8    H22   S    
C27   C29   A    
C26   N2    A    
C1    C11   S    
C15   H3    S    
C2    C12   S    
C16   H4    S    
C21   H5    S    
C43   H19   S    
C39   C41   A    
C20   C30   A    
C44   H20   S    
C3    C43   A    
C21   N1    A    
C19   C21   A    
C5    C36   S    
C40   H18   S    
C6    C35   S    
C15   C17   A    
C42   H2    S    
O1    Zn1   S    
C24   O8    A    
C7    C17   A    
C31   C33   A    
C25   N1    A    
N2    Zn1   S    
C2    O2    A    
C22   H6    S    
N1    Zn2   S    
C40   C42   A    
C14   H26   S    
C3    C24   S    
O2    Zn2   S    
C19   S1    S    
C22   N2    A    
C32   C42   A    
C39   H17   S    
C1    O3    A    
C4    C6    A    
O14   H28   S    
C4    C23   S    
C28   H10   S    
O11   H27   S    
C4    C44   A    
C8    C18   A    
C32   C34   A    
C9    H23   S    
C29   C30   S    
C26   H8    S    
C7    H21   S    
O6    Zn2   S    
S1    O9    D    
S2    O14   S    
O5    Zn1   S    
C17   C18   S    
C16   C18   A    
C23   O5    A    
C9    C11   A    
C37   H15   S    
C10   C12   A    
C38   H16   S    
C24   O6    A    
S1    O10   D    
C5    C44   A    
C12   C14   A    
C6    C43   A    
C13   C15   A    
C14   C16   A    
C20   C22   A    
C19   C29   A    
C2    O4    A    
C7    C9    A    
C33   H13   S    
C31   C41   A    
C35   C37   A    
S2    O13   D    
O8    Zn1   S    
C3    C5    A    
O4    Zn1   S    
O7    Zn2   S    
C27   H9    S    
O3    Zn2   S    
C10   H24   S    
C25   C27   A    
C26   C28   A    
C25   H7    S    
C1    O1    A    
C31   H11   S    
C28   C30   A    
C37   C39   A    
C38   C40   A    
C11   C13   A    
C13   H25   S    
C20   S2    S    
C36   C38   A    
C33   C35   A    
C34   C36   A    
S1    O11   S    
S2    O12   D    
C8    C10   A    
C34   H14   S    
C41   H1    S    
C23   O7    A    
C32   H12   S    
