data_mof_unit_8945.cif
_audit_creation_date              2012-12-11T15:48:36-0500
_audit_creation_method            fapswitch 2.2
_symmetry_space_group_name_H-M    P1
_symmetry_Int_Tables_number       1
_space_group_crystal_system       triclinic
_cell_length_a                    10.973251
_cell_length_b                    10.993142
_cell_length_c                    18.808194
_cell_angle_alpha                 90.453343
_cell_angle_beta                  90.315897
_cell_angle_gamma                 60.068922
_cell_volume                      1966.17321595

loop_
_atom_site_label
_atom_site_type_symbol
_atom_type_description
_atom_site_fract_x
_atom_site_fract_y
_atom_site_fract_z
_atom_type_partial_charge
C1    C     C_R   0.238928 0.645842 0.610043 0.538494
C2    C     C_3   0.630058 0.584541 0.799625 -0.242726
C3    C     C_3   0.697470 0.676481 0.811411 0.059188
C4    C     C_3   0.671623 0.648862 0.675173 0.046032
C5    C     C_3   0.828727 0.583881 0.694461 -0.250312
C6    C     C_3   0.605903 0.576696 0.719569 -0.212100
C7    C     C_R   0.679185 0.160173 0.823950 0.008771
C8    C     C_R   0.773313 0.186826 0.786881 -0.012112
C9    C     C_R   0.767577 0.195965 0.712809 0.013670
C10   C     C_R   0.577041 0.147613 0.711229 -0.182488
C11   C     C_R   0.571738 0.156992 0.784220 -0.170251
C12   C     C_R   0.655152 0.623384 0.599995 0.536665
C13   C     C_3   0.928840 0.113653 0.788834 -0.261028
C14   C     C_3   0.924307 0.121228 0.708210 -0.269786
C15   C     C_R   0.672632 0.170664 0.673713 0.010004
C16   C     C_R   0.174318 0.670826 0.833783 0.010879
C17   C     C_R   0.151667 0.577069 0.793098 0.011201
C18   C     C_R   0.160438 0.574444 0.719336 -0.009946
C19   C     C_R   0.204063 0.768023 0.724451 -0.170983
C20   C     C_R   0.199671 0.766740 0.798108 -0.167611
C21   C     C_3   0.227430 0.421350 0.797365 -0.267948
C22   C     C_3   0.234774 0.418597 0.716840 -0.262404
C23   C     C_R   0.629917 0.227039 0.602338 0.535917
C24   C     C_R   0.190821 0.667206 0.683683 0.007356
C25   C     C_R   0.675571 0.681753 0.174674 0.019547
C26   C     C_R   0.791406 0.583377 0.213480 0.048499
C27   C     C_R   0.789401 0.576696 0.286082 0.027808
C28   C     C_R   0.558927 0.781712 0.287369 -0.167616
C29   C     C_R   0.561388 0.787261 0.212652 -0.168461
C30   C     C_3   0.875151 0.428025 0.204219 -0.274278
C31   C     C_3   0.875945 0.419517 0.284340 -0.271752
C32   C     C_R   0.667838 0.667511 0.323987 0.017860
C33   C     C_R   0.647176 0.179414 0.171380 0.016466
C34   C     C_R   0.218345 0.651205 0.402689 0.550633
C35   C     C_R   0.518265 0.229691 0.205621 0.016283
C36   C     C_R   0.512506 0.237488 0.278591 0.047538
C37   C     C_R   0.757982 0.166849 0.285271 -0.170371
C38   C     C_R   0.763294 0.163083 0.211445 -0.162590
C39   C     C_3   0.410785 0.184093 0.201941 -0.270684
C40   C     C_3   0.407861 0.188761 0.282329 -0.268335
C41   C     C_R   0.633541 0.196639 0.319582 0.024748
C42   C     C_R   0.106474 0.696394 0.190921 0.021632
C43   C     C_R   0.089866 0.812152 0.229798 0.041946
C44   C     C_R   0.102068 0.808102 0.302151 0.020419
C45   C     C_R   0.643782 0.624413 0.393215 0.546816
C46   C     C_R   0.122672 0.579000 0.301869 -0.152022
C47   C     C_R   0.109694 0.584265 0.227693 -0.154091
C48   C     C_3   0.162175 0.895268 0.220307 -0.271324
C49   C     C_3   0.174596 0.893529 0.300004 -0.271040
C50   C     C_R   0.136003 0.684104 0.338151 0.017042
C51   C     C_R   0.701131 0.102089 0.895902 0.537387
C52   C     C_R   0.722645 0.688362 0.888058 0.554561
C53   C     C_R   0.117315 0.706375 0.905563 0.541952
C54   C     C_R   0.674509 0.109421 0.103128 0.548733
C55   C     C_R   0.698914 0.692357 0.099300 0.545680
C56   C     C_R   0.614896 0.232109 0.394068 0.546410
C57   C     C_R   0.084449 0.714355 0.115167 0.547991
C58   C     C_3   0.604812 0.823760 0.775438 -0.028285
C59   C     C_3   0.595890 0.806651 0.694272 -0.225704
C60   C     C_3   0.842622 0.606775 0.773435 -0.245208
Cr1   Cr    Cr6+3 0.392960 0.397920 0.502240 1.006599
Cr2   Cr    Cr6+3 0.398340 0.708480 0.501250 1.002377
Cr3   Cr    Cr6+3 0.708670 0.393570 0.496460 1.005278
Cr4   Cr    Cr6+3 0.937650 0.938540 0.007610 1.017155
Cr5   Cr    Cr6+3 0.625330 0.937370 0.994520 1.043603
Cr6   Cr    Cr6+3 0.937940 0.625230 0.001190 1.014063
H1    H     H_    0.657459 0.886232 0.784824 0.145022
H2    H     H_    0.651854 0.465438 0.703371 0.138417
H3    H     H_    0.916655 0.503313 0.797243 0.145319
H4    H     H_    0.886669 0.468947 0.683297 0.142992
H5    H     H_    0.497858 0.132783 0.684196 0.149487
H6    H     H_    0.489483 0.146533 0.809151 0.185941
H7    H     H_    0.971971 0.006502 0.809909 0.173004
H8    H     H_    0.968880 0.178607 0.814180 0.148112
H9    H     H_    0.963012 0.189824 0.686908 0.139790
H10   H     H_    0.967542 0.017419 0.681456 0.144192
H11   H     H_    0.226950 0.843355 0.700125 0.163894
H12   H     H_    0.207900 0.846631 0.827477 0.182665
H13   H     H_    0.160784 0.380371 0.818624 0.150442
H14   H     H_    0.330191 0.381684 0.824485 0.145537
H15   H     H_    0.342158 0.376095 0.695803 0.179184
H16   H     H_    0.170490 0.378169 0.691094 0.133416
H17   H     H_    0.468433 0.860444 0.315823 0.113829
H18   H     H_    0.472648 0.869287 0.184673 0.114618
H19   H     H_    0.980789 0.391283 0.181197 0.134763
H20   H     H_    0.813619 0.385262 0.177742 0.140043
H21   H     H_    0.817705 0.368606 0.303814 0.172103
H22   H     H_    0.484317 0.858705 0.676724 0.165603
H23   H     H_    0.982014 0.379955 0.308059 0.122964
H24   H     H_    0.851136 0.144494 0.315401 0.120535
H25   H     H_    0.862473 0.133258 0.186344 0.135145
H26   H     H_    0.452423 0.077072 0.180388 0.164681
H27   H     H_    0.311003 0.264752 0.177205 0.126846
H28   H     H_    0.305411 0.269088 0.304244 0.133709
H29   H     H_    0.452381 0.083822 0.307183 0.136320
H30   H     H_    0.136650 0.487324 0.329647 0.120815
H31   H     H_    0.110015 0.498536 0.199249 0.121500
H32   H     H_    0.093477 0.001688 0.198740 0.134428
H33   H     H_    0.646151 0.858501 0.665753 0.099879
H34   H     H_    0.265113 0.834191 0.192921 0.140177
H35   H     H_    0.285462 0.834119 0.317088 0.171628
H36   H     H_    0.111313 0.998769 0.325012 0.124971
H37   H     H_    0.887197 0.677297 0.779624 0.128552
H38   H     H_    0.878148 0.632266 0.662297 0.120927
H39   H     H_    0.700585 0.477186 0.820495 0.123790
H40   H     H_    0.528605 0.628275 0.828621 0.152017
H41   H     H_    0.491246 0.627806 0.708897 0.146441
O1    O     O_R   0.507380 0.255700 0.581440 -0.534869
O2    O     O_R   0.524480 0.695810 0.424040 -0.509596
O3    O     O_R   0.736390 0.504290 0.414790 -0.524799
O4    O     O_R   0.691300 0.277290 0.422170 -0.511634
O5    O     O_3   0.499990 0.499990 0.499980 -0.247878
O6    O     O_R   0.089400 0.825690 0.930570 -0.521080
O7    O     O_R   0.818460 0.054440 0.929850 -0.503004
O8    O     O_R   0.606060 0.077150 0.915510 -0.512720
O9    O     O_R   0.646550 0.806680 0.917570 -0.466605
O10   O     O_R   0.837170 0.593410 0.915250 -0.533278
O11   O     O_R   0.065200 0.635530 0.931570 -0.500799
O12   O     O_R   0.280320 0.527350 0.578930 -0.504692
O13   O     O_R   0.068260 0.828890 0.091840 -0.518826
O14   O     O_R   0.798870 0.057410 0.079340 -0.512590
O15   O     O_R   0.584930 0.080350 0.076780 -0.521139
O16   O     O_R   0.626960 0.809650 0.067060 -0.501046
O17   O     O_R   0.816040 0.596610 0.076510 -0.520470
O18   O     O_R   0.045610 0.638500 0.081060 -0.508913
O19   O     O_3   0.833640 0.833710 0.001100 -0.259649
O20   O     O_R   0.260510 0.739590 0.584590 -0.531685
O21   O     O_R   0.532300 0.695080 0.573820 -0.511073
O22   O     O_R   0.744840 0.503500 0.576370 -0.527136
O23   O     O_R   0.699120 0.276560 0.571960 -0.499540
O24   O     O_R   0.498940 0.256500 0.419860 -0.518373
O25   O     O_R   0.272500 0.528080 0.429150 -0.505005
O26   O     O_R   0.252060 0.740380 0.423010 -0.526266
I1    I     I_    0.394497 0.948720 0.817678 -0.526781

loop_
_geom_bond_atom_site_label_1
_geom_bond_atom_site_label_2
_ccdc_geom_bond_type
C44   C49   S    
C8    C13   S    
Cr1   O12   S    
C59   H33   S    
C32   C45   S    
C19   C20   A    
C9    C14   S    
C7    C8    A    
C58   I1    S    
C7    C11   A    
C26   C27   A    
C5    H4    S    
C37   H24   S    
C18   C24   A    
C22   H16   S    
Cr2   O26   S    
C28   C29   A    
C10   C15   A    
C57   O18   A    
C30   C31   S    
C45   O2    A    
Cr4   O14   S    
C4    C59   S    
C1    O12   A    
Cr3   O23   S    
Cr3   O5    S    
C19   H11   S    
Cr1   O1    S    
C16   C53   S    
C39   H27   S    
Cr1   O25   S    
C59   H22   S    
C35   C36   A    
C8    C9    A    
C31   H23   S    
Cr6   O10   S    
C6    H41   S    
C30   H20   S    
C60   H37   S    
C43   C48   S    
C56   O4    A    
C3    C60   S    
C15   C23   S    
C54   O15   A    
C5    H38   S    
C34   O25   A    
C21   C22   S    
C28   H17   S    
C37   C41   A    
Cr5   O8    S    
C36   C41   A    
C2    C6    S    
C42   C57   S    
C53   O6    A    
C52   O9    A    
C25   C29   A    
C48   H34   S    
C55   O16   A    
C34   C50   S    
C51   O7    A    
Cr4   O7    S    
C12   O22   A    
C27   C31   S    
C22   H15   S    
C1    O20   A    
C28   C32   A    
C31   H21   S    
C29   H18   S    
C4    C6    S    
C49   H36   S    
C11   H6    S    
C16   C17   A    
C34   O26   A    
C25   C26   A    
C38   H25   S    
C2    H40   S    
C51   O8    A    
Cr6   O19   S    
C23   O23   A    
C14   H10   S    
C35   C39   S    
C43   C44   A    
C41   C56   S    
C37   C38   A    
C36   C40   S    
C16   C20   A    
C21   H13   S    
C17   C18   A    
Cr2   O5    S    
Cr5   O15   S    
C30   H19   S    
C57   O13   A    
C53   O11   A    
C48   C49   S    
C54   O14   A    
C13   H7    S    
C26   C30   S    
Cr4   O19   S    
Cr6   O11   S    
Cr5   O9    S    
Cr6   O17   S    
C4    C12   S    
C42   C43   A    
C40   H29   S    
C39   H26   S    
C39   C40   S    
C49   H35   S    
C45   O3    A    
C44   C50   A    
C33   C54   S    
C46   C47   A    
Cr4   O6    S    
C5    C60   S    
C27   C32   A    
C18   C22   S    
Cr5   O16   S    
C25   C55   S    
C40   H28   S    
C4    C5    S    
C47   H31   S    
C3    C52   S    
C12   O21   A    
C48   H32   S    
C46   C50   A    
C2    H39   S    
C33   C38   A    
Cr4   O13   S    
Cr6   O18   S    
C20   H12   S    
C14   H9    S    
Cr3   O3    S    
C19   C24   A    
C58   C59   S    
C7    C51   S    
Cr5   O19   S    
Cr2   O21   S    
Cr2   O20   S    
Cr2   O2    S    
C60   H3    S    
C23   O1    A    
C21   H14   S    
C6    H2    S    
C33   C35   A    
C2    C3    S    
C42   C47   A    
Cr3   O22   S    
Cr3   O4    S    
C17   C21   S    
C56   O24   A    
C10   C11   A    
Cr1   O24   S    
C10   H5    S    
C3    C58   S    
C58   H1    S    
C46   H30   S    
C13   H8    S    
C1    C24   S    
C55   O17   A    
C52   O10   A    
C13   C14   S    
Cr1   O5    S    
C9    C15   A    
