data_mof_unit_59786.cif
_audit_creation_date              2012-12-10T18:04:51-0500
_audit_creation_method            fapswitch 2.2
_symmetry_space_group_name_H-M    P1
_symmetry_Int_Tables_number       1
_space_group_crystal_system       triclinic
_cell_length_a                    10.816377
_cell_length_b                    9.504514
_cell_length_c                    17.678114
_cell_angle_alpha                 90.952975
_cell_angle_beta                  90.326649
_cell_angle_gamma                 90.046232
_cell_volume                      1817.10637343

loop_
_atom_site_label
_atom_site_type_symbol
_atom_type_description
_atom_site_fract_x
_atom_site_fract_y
_atom_site_fract_z
_atom_type_partial_charge
C1    C     C_R   0.262030 0.499985 0.499956 0.783501
C2    C     C_R   0.737964 0.500029 0.499739 0.778976
C3    C     C_1   0.475137 0.452504 0.966589 -0.029098
C4    C     C_1   0.475738 0.448051 0.034345 -0.028740
C5    C     C_R   0.063794 0.372198 0.500905 -0.192339
C6    C     C_R   0.936164 0.627757 0.496594 -0.196797
C7    C     C_R   0.935998 0.372227 0.500891 -0.192117
C8    C     C_R   0.063974 0.627735 0.496711 -0.198686
C9    C     C_R   0.500092 0.498615 0.355792 0.837595
C10   C     C_R   0.505638 0.501680 0.645111 0.809199
C11   C     C_R   0.871754 0.500027 0.499037 -0.007678
C12   C     C_R   0.128218 0.499971 0.499173 -0.014732
C13   C     C_R   0.456451 0.600879 0.854347 0.127274
C14   C     C_R   0.595443 0.434100 0.152870 0.122294
C15   C     C_R   0.371390 0.484391 0.156383 0.137960
C16   C     C_R   0.522083 0.354453 0.840851 0.157923
C17   C     C_R   0.471827 0.619442 0.775238 0.085762
C18   C     C_R   0.604204 0.462401 0.231870 0.085736
C19   C     C_R   0.377789 0.499437 0.236142 0.067782
C20   C     C_R   0.558350 0.380061 0.765799 0.098951
C21   C     C_R   0.514329 0.503096 0.729664 -0.196944
C22   C     C_R   0.494630 0.492395 0.272848 -0.139993
C23   C     C_R   0.411739 0.073238 0.460999 -0.023764
C24   C     C_R   0.587962 0.926790 0.539293 -0.036303
C25   C     C_R   0.588018 0.075664 0.539239 -0.030587
C26   C     C_R   0.411451 0.924424 0.461293 -0.023499
C27   C     C_R   0.479891 0.467785 0.885746 0.009481
C28   C     C_R   0.480244 0.451964 0.115790 -0.001643
Cu1   Cu    Cu3+1 0.500000 0.640660 0.500000 0.925776
Cu2   Cu    Cu3+1 0.500000 0.359340 0.500000 0.926107
H1    H     H_    0.341169 0.128329 0.429623 0.114115
H2    H     H_    0.658244 0.871698 0.570900 0.111309
H3    H     H_    0.658680 0.132649 0.570538 0.109311
H4    H     H_    0.339947 0.867647 0.430800 0.112054
H5    H     H_    0.111841 0.272331 0.502601 0.144938
H6    H     H_    0.888091 0.727592 0.494727 0.147238
H7    H     H_    0.887818 0.272377 0.502639 0.144054
H8    H     H_    0.112180 0.727569 0.494936 0.146377
N1    N     N_R   0.500000 0.852070 0.500000 -0.151587
N2    N     N_R   0.500000 0.147930 0.500000 -0.152091
O1    O     O_R   0.319640 0.618740 0.499990 -0.587139
O2    O     O_R   0.680360 0.381260 0.500010 -0.598392
O3    O     O_R   0.680360 0.618740 0.500010 -0.593055
O4    O     O_R   0.319640 0.381260 0.499990 -0.590804
O5    O     O_R   0.500000 0.618830 0.391250 -0.574330
O6    O     O_R   0.500000 0.381170 0.608750 -0.578862
O7    O     O_R   0.500000 0.618830 0.608750 -0.572203
O8    O     O_R   0.500000 0.381170 0.391250 -0.587167
C29   C     C_3   0.411268 0.719974 0.906380 -0.388891
C30   C     C_3   0.519996 0.798023 0.943494 -0.853882
H9    H     H_    0.580202 0.724009 0.974602 0.257867
H10   H     H_    0.576182 0.851755 0.900269 0.243809
H11   H     H_    0.484974 0.877872 0.984565 0.240777
H12   H     H_    0.350004 0.794729 0.876933 0.197486
H13   H     H_    0.350804 0.678215 0.951272 0.194106
C31   C     C_3   0.706361 0.381175 0.107333 -0.380370
C32   C     C_3   0.789341 0.501525 0.082227 -0.826091
H14   H     H_    0.734690 0.579661 0.050189 0.250131
H15   H     H_    0.834017 0.554643 0.131448 0.255994
H16   H     H_    0.863146 0.459258 0.044854 0.232357
H17   H     H_    0.760039 0.301716 0.138798 0.179659
H18   H     H_    0.676021 0.321524 0.055989 0.195210
C33   C     C_3   0.248972 0.499218 0.113600 -0.383216
C34   C     C_3   0.192264 0.355396 0.095235 -0.853541
H19   H     H_    0.254927 0.292136 0.058629 0.255525
H20   H     H_    0.174650 0.297185 0.148041 0.245588
H21   H     H_    0.103111 0.369386 0.064841 0.239410
H22   H     H_    0.180589 0.563616 0.144907 0.205717
H23   H     H_    0.262557 0.557410 0.060400 0.193208
C35   C     C_3   0.521158 0.206111 0.872522 -0.395151
C36   C     C_3   0.388184 0.154378 0.881120 -0.860176
H24   H     H_    0.335565 0.223184 0.920700 0.255914
H25   H     H_    0.340738 0.152126 0.825200 0.254382
H26   H     H_    0.387965 0.046581 0.903742 0.247194
H27   H     H_    0.568619 0.128400 0.835631 0.205849
H28   H     H_    0.569839 0.204049 0.927998 0.195889
C37   C     C_3   0.450383 0.764678 0.741698 -0.359629
C38   C     C_3   0.319502 0.779555 0.709644 -0.790990
H29   H     H_    0.298498 0.695544 0.667203 0.263379
H30   H     H_    0.250517 0.773345 0.755705 0.226775
H31   H     H_    0.310068 0.883197 0.682116 0.234521
H32   H     H_    0.466564 0.850613 0.783561 0.193249
H33   H     H_    0.521212 0.790083 0.699151 0.209944
C39   C     C_3   0.728611 0.460923 0.273806 -0.396933
C40   C     C_3   0.772942 0.609751 0.294144 -0.832890
H34   H     H_    0.712274 0.660437 0.336765 0.267885
H35   H     H_    0.867810 0.604984 0.318369 0.239518
H36   H     H_    0.774827 0.676185 0.243135 0.250297
H37   H     H_    0.721732 0.398117 0.326009 0.198872
H38   H     H_    0.803330 0.409947 0.241236 0.208537
C41   C     C_3   0.260448 0.519001 0.282836 -0.381779
C42   C     C_3   0.230235 0.674600 0.295001 -0.843341
H39   H     H_    0.309544 0.730046 0.321875 0.262061
H40   H     H_    0.209293 0.725862 0.240521 0.238921
H41   H     H_    0.148527 0.685407 0.332385 0.238077
H42   H     H_    0.180242 0.463957 0.256562 0.204169
H43   H     H_    0.269438 0.468511 0.338654 0.187114
C43   C     C_3   0.654325 0.284870 0.727567 -0.379802
C44   C     C_3   0.775304 0.280038 0.772885 -0.884613
H44   H     H_    0.813320 0.388018 0.780507 0.258715
H45   H     H_    0.762431 0.233346 0.829307 0.249606
H46   H     H_    0.844013 0.215132 0.741559 0.241096
H47   H     H_    0.616735 0.177365 0.717795 0.192142
H48   H     H_    0.682432 0.324704 0.671747 0.215181

loop_
_geom_bond_atom_site_label_1
_geom_bond_atom_site_label_2
_ccdc_geom_bond_type
C14   C31   S    
C9    O5    A    
C14   C18   A    
C15   C28   A    
C37   C38   S    
C15   C19   A    
C8    H8    S    
Cu1   O7    S    
Cu2   O8    S    
C25   N2    A    
C40   H34   S    
C38   H30   S    
C9    C22   S    
C32   H15   S    
C37   H33   S    
C43   H47   S    
C24   N1    A    
C31   C32   S    
C23   C26   A    
C41   H42   S    
C39   C40   S    
C26   H4    S    
C33   H23   S    
C23   N2    A    
C10   O6    A    
C18   C39   S    
C35   C36   S    
C8    C12   A    
C16   C27   A    
Cu1   O3    S    
Cu2   O4    S    
C1    C12   S    
C39   H38   S    
C2    C11   S    
C42   H40   S    
C4    C28   S    
C40   H35   S    
C10   C21   S    
C30   H11   S    
C34   H21   S    
C19   C22   A    
C16   C35   S    
C24   C25   A    
C5    C12   A    
C41   C42   S    
C5    C7    A    
C38   H29   S    
C32   H16   S    
C6    C8    A    
C29   H13   S    
C42   H41   S    
C17   C21   A    
Cu1   O5    S    
C23   H1    S    
C7    C11   A    
C24   H2    S    
Cu1   Cu2   S    
C1    O4    A    
C30   H10   S    
C44   H44   S    
C2    O3    A    
C16   C20   A    
Cu1   N1    S    
C17   C37   S    
C30   H9    S    
C7    H7    S    
Cu2   N2    S    
C41   H43   S    
C34   H20   S    
C13   C29   S    
C1    O1    A    
C44   H45   S    
C43   C44   S    
C35   H28   S    
C31   H18   S    
C39   H37   S    
C3    C4    T    
C6    C11   A    
C36   H25   S    
C40   H36   S    
C33   H22   S    
Cu1   O1    S    
C18   C22   A    
Cu2   O6    S    
C13   C27   A    
C36   H26   S    
C13   C17   A    
C34   H19   S    
C3    C27   S    
C36   H24   S    
C38   H31   S    
C32   H14   S    
C37   H32   S    
C2    O2    A    
C43   H48   S    
C5    H5    S    
C42   H39   S    
C6    H6    S    
C26   N1    A    
C19   C41   S    
C33   C34   S    
C44   H46   S    
C20   C43   S    
C20   C21   A    
C35   H27   S    
C9    O8    A    
C29   C30   S    
C10   O7    A    
C15   C33   S    
C31   H17   S    
Cu2   O2    S    
C14   C28   A    
C29   H12   S    
C25   H3    S    
