data_mof_unit_66867.cif
_audit_creation_date              2013-03-05T15:57:22-0500
_audit_creation_method            fapswitch 2.2
_symmetry_space_group_name_H-M    P1
_symmetry_Int_Tables_number       1
_space_group_crystal_system       triclinic
_cell_length_a                    18.139529
_cell_length_b                    19.12817
_cell_length_c                    9.005218
_cell_angle_alpha                 89.725269
_cell_angle_beta                  103.736029
_cell_angle_gamma                 90.188664
_cell_volume                      3035.18870705

loop_
_atom_site_label
_atom_site_type_symbol
_atom_site_description
_atom_site_fract_x
_atom_site_fract_y
_atom_site_fract_z
_atom_type_partial_charge
P1    P     P_3+3 0.834140 0.419320 0.003900 0.621614
P2    P     P_3+3 0.834140 0.580680 0.503900 0.626062
P3    P     P_3+3 0.334140 0.919320 0.003900 0.621028
P4    P     P_3+3 0.334140 0.080680 0.503900 0.617039
O1    O     O_2   0.841960 0.394640 0.833410 -0.395989
O2    O     O_2   0.841960 0.605360 0.333410 -0.397551
O3    O     O_2   0.341960 0.894640 0.833410 -0.386015
O4    O     O_2   0.341960 0.105360 0.333410 -0.397573
O5    O     O_3   0.907950 0.463080 0.102990 -0.281212
O6    O     O_3   0.907950 0.536920 0.602990 -0.280913
O7    O     O_3   0.407950 0.963080 0.102990 -0.286647
O8    O     O_3   0.407950 0.036920 0.602990 -0.278714
O9    O     O_3   0.972780 0.329600 0.629720 -0.255550
O10   O     O_3   0.972780 0.670400 0.129720 -0.244163
O11   O     O_3   0.472780 0.829600 0.629720 -0.245972
O12   O     O_3   0.472780 0.170400 0.129720 -0.258372
O13   O     O_2   0.845552 0.289528 0.672092 -0.404784
O14   O     O_2   0.840955 0.709537 0.152653 -0.414891
O15   O     O_2   0.333189 0.802812 0.643146 -0.410340
O16   O     O_2   0.341610 0.209044 0.155432 -0.408723
O17   O     O_3   0.754415 0.474601 0.948707 -0.488689
O18   O     O_3   0.755983 0.524503 0.449218 -0.471892
O19   O     O_3   0.257544 0.976891 0.950833 -0.478428
O20   O     O_3   0.254145 0.025430 0.447419 -0.494854
O21   O     O_3   0.945525 0.193633 0.657035 -0.585785
O22   O     O_3   0.940803 0.807199 0.144111 -0.605904
O23   O     O_3   0.418578 0.696584 0.652995 -0.601451
O24   O     O_3   0.438392 0.307833 0.128873 -0.620466
C1    C     C_3   0.029739 0.104671 0.613333 -1.001987
C2    C     C_3   0.023190 0.898253 0.104368 -0.922566
C3    C     C_3   0.510087 0.605692 0.725312 -0.903898
C4    C     C_3   0.530210 0.393538 0.099148 -0.956847
H1    H     H_    0.571963 0.600853 0.747366 0.305964
H2    H     H_    0.569659 0.402743 0.024532 0.290853
H3    H     H_    0.047536 0.082810 0.729865 0.290862
H4    H     H_    0.039637 0.922304 0.219013 0.288636
H5    H     H_    0.979860 0.075393 0.557281 0.250190
H6    H     H_    0.969672 0.922333 0.053101 0.223203
H7    H     H_    0.498957 0.616141 0.837045 0.252798
H8    H     H_    0.556679 0.409440 0.216733 0.288804
P5    P     P_3+3 0.165830 0.418670 0.685610 0.512734
P6    P     P_3+3 0.165830 0.581330 0.185610 0.507281
P7    P     P_3+3 0.665830 0.918670 0.685610 0.518563
P8    P     P_3+3 0.665830 0.081330 0.185610 0.519177
P9    P     P_3+3 0.107146 0.274010 0.132260 0.537953
P10   P     P_3+3 0.107461 0.726363 0.627103 0.555776
P11   P     P_3+3 0.605547 0.771643 0.125613 0.535886
P12   P     P_3+3 0.608329 0.226373 0.639049 0.567479
O25   O     O_2   0.157990 0.394030 0.856030 -0.340354
O26   O     O_2   0.157990 0.605970 0.356030 -0.343114
O27   O     O_2   0.657990 0.894030 0.856030 -0.345242
O28   O     O_2   0.657990 0.105970 0.356030 -0.394647
O29   O     O_3   0.027110 0.329490 0.059550 -0.316389
O30   O     O_3   0.027110 0.670510 0.559550 -0.289408
O31   O     O_3   0.527110 0.829490 0.059550 -0.289243
O32   O     O_3   0.527110 0.170510 0.559550 -0.293137
O33   O     O_2   0.166873 0.295814 0.045445 -0.347189
O34   O     O_2   0.166059 0.710765 0.532527 -0.333967
O35   O     O_2   0.661976 0.784314 0.023838 -0.357209
O36   O     O_2   0.669700 0.206158 0.554825 -0.369296
O37   O     O_3   0.243822 0.473544 0.736057 -0.609892
O38   O     O_3   0.244242 0.527569 0.235278 -0.614535
O39   O     O_3   0.748178 0.968436 0.737626 -0.630174
O40   O     O_3   0.741767 0.022983 0.220419 -0.579237
O41   O     O_3   0.086631 0.190740 0.059856 -0.528894
O42   O     O_3   0.074886 0.809041 0.561986 -0.509026
O43   O     O_3   0.569114 0.688752 0.068152 -0.528674
O44   O     O_3   0.592906 0.313633 0.582417 -0.534450
C5    C     C_3   0.008631 0.180280 0.031871 0.400981
C6    C     C_3   0.033829 0.832596 0.664784 0.318587
C7    C     C_3   0.524210 0.669561 0.168888 0.323808
C8    C     C_3   0.515625 0.327513 0.536023 0.415042
H9    H     H_    0.979979 0.210447 0.929494 0.153928
H10   H     H_    0.988031 0.795033 0.672640 0.099407
H11   H     H_    0.478979 0.708779 0.167985 0.094564
H12   H     H_    0.504356 0.333167 0.411508 0.089074
H13   H     H_    0.984925 0.199455 0.127522 0.061503
H14   H     H_    0.072066 0.839719 0.779876 0.095254
H15   H     H_    0.560526 0.664816 0.285900 0.149509
H16   H     H_    0.478917 0.286829 0.568697 0.098876
C9    C     C_3   0.993674 0.102062 0.004123 -0.476137
C10   C     C_3   0.998295 0.903074 0.617043 -0.370286
C11   C     C_3   0.486422 0.598843 0.128178 -0.508985
C12   C     C_3   0.496062 0.398548 0.590120 -0.483225
H17   H     H_    0.444760 0.598286 0.019764 0.154521
H18   H     H_    0.442739 0.416751 0.515733 0.140419
H19   H     H_    0.962772 0.094688 0.884517 0.181164
H20   H     H_    0.950446 0.900941 0.518609 0.152450
H21   H     H_    0.045173 0.071629 0.015854 0.244541
H22   H     H_    0.037242 0.938557 0.577871 0.201962
H23   H     H_    0.526748 0.558946 0.110212 0.261713
H24   H     H_    0.538785 0.436365 0.575272 0.225203
C13   C     C_3   0.222617 0.459551 0.264437 0.282921
C14   C     C_3   0.223948 0.541481 0.772194 0.236719
C15   C     C_3   0.725906 0.958516 0.284478 0.299423
C16   C     C_3   0.737538 0.040328 0.716354 0.167302
H25   H     H_    0.194203 0.459769 0.360710 0.074273
H26   H     H_    0.194733 0.539486 0.867112 0.080201
H27   H     H_    0.704561 0.967284 0.388598 0.053356
H28   H     H_    0.709187 0.060637 0.803450 0.101555
H29   H     H_    0.184806 0.436210 0.160952 0.127105
H30   H     H_    0.186970 0.567330 0.670747 0.123752
H31   H     H_    0.682937 0.928974 0.199399 0.104713
H32   H     H_    0.703140 0.052696 0.601208 0.142006
C17   C     C_3   0.295678 0.417260 0.312414 -0.126676
C18   C     C_3   0.299134 0.582234 0.825543 -0.118935
C19   C     C_3   0.801914 0.916783 0.328243 -0.160755
C20   C     C_3   0.818565 0.071149 0.743186 -0.051230
H33   H     H_    0.316127 0.427227 0.435271 0.126830
H34   H     H_    0.318607 0.571031 0.949064 0.120012
H35   H     H_    0.828778 0.930910 0.444279 0.129464
H36   H     H_    0.849503 0.049952 0.853667 0.137324
Ba1   Ba    Ba6+2 0.000000 0.447380 0.844850 1.770652
Ba2   Ba    Ba6+2 1.000000 0.552620 0.344850 1.777920
Ba3   Ba    Ba6+2 0.500000 0.947380 0.844850 1.791020
Ba4   Ba    Ba6+2 0.500000 0.052620 0.344850 1.776504
C21   C     C_3   0.759170 0.538761 0.027515 0.451939
C22   C     C_3   0.761383 0.461380 0.531879 0.438311
C23   C     C_3   0.266411 0.040364 0.031736 0.464740
C24   C     C_3   0.257796 0.961258 0.526595 0.454803
H37   H     H_    0.757689 0.583117 0.948277 0.042662
H38   H     H_    0.762238 0.416429 0.456259 0.065469
H39   H     H_    0.270225 0.084852 0.956606 0.058077
H40   H     H_    0.257757 0.917212 0.448287 0.086036
H41   H     H_    0.811360 0.544872 0.115321 0.137429
H42   H     H_    0.813081 0.456559 0.620402 0.133786
H43   H     H_    0.317332 0.043743 0.122050 0.137227
H44   H     H_    0.309146 0.954819 0.615698 0.138002
C25   C     C_3   0.687671 0.552812 0.081698 -0.048737
C26   C     C_3   0.689408 0.447310 0.583873 -0.020627
C27   C     C_3   0.194732 0.058651 0.077743 -0.038691
C28   C     C_3   0.184680 0.947292 0.575469 -0.080727
H45   H     H_    0.638285 0.561834 0.985199 0.142551
H46   H     H_    0.642519 0.434879 0.484302 0.147397
H47   H     H_    0.151240 0.069213 0.972321 0.167076
H48   H     H_    0.136610 0.946167 0.473748 0.170093
H49   H     H_    0.695883 0.601928 0.146509 0.089853
H50   H     H_    0.698780 0.400336 0.655866 0.107334
H51   H     H_    0.204181 0.107691 0.142026 0.104136
H52   H     H_    0.188321 0.894924 0.628423 0.110572
O45   O     O_3   0.092100 0.536880 0.086720 -0.311059
O46   O     O_3   0.092100 0.463120 0.586720 -0.302855
O47   O     O_3   0.592100 0.036880 0.086720 -0.284723
O48   O     O_3   0.592100 0.963120 0.586720 -0.305986
P13   P     P_3+3 0.899729 0.728897 0.061211 0.492907
P14   P     P_3+3 0.900146 0.270453 0.571419 0.477430
P15   P     P_3+3 0.398332 0.227097 0.059231 0.479368
P16   P     P_3+3 0.393124 0.776197 0.561715 0.508853
C29   C     C_3   0.016931 0.182920 0.620566 0.785594
C30   C     C_3   0.013932 0.819622 0.116457 0.790062
C31   C     C_3   0.482979 0.666733 0.616738 0.820820
C32   C     C_3   0.512167 0.315895 0.100667 0.743199
H53   H     H_    0.017953 0.205422 0.507157 -0.000007
H54   H     H_    0.019593 0.796142 0.007200 -0.018110
H55   H     H_    0.466475 0.649437 0.496938 -0.012155
H56   H     H_    0.514519 0.294515 0.987560 0.051761
H57   H     H_    0.484999 0.555433 0.682943 0.215215
H58   H     H_    0.481090 0.427472 0.060990 0.222493
H59   H     H_    0.073157 0.095486 0.548685 0.286080
H60   H     H_    0.062800 0.910618 0.031734 0.291834
C33   C     C_R   0.140749 0.679135 0.934905 0.021993
C34   C     C_R   0.138589 0.319304 0.438418 0.005353
C35   C     C_R   0.636617 0.182760 0.945167 -0.014836
C36   C     C_R   0.642252 0.821964 0.432503 0.069883
C37   C     C_R   0.848138 0.335828 0.273063 0.147582
C38   C     C_R   0.846869 0.664888 0.767273 0.123620
C39   C     C_R   0.345123 0.836191 0.267409 0.120419
C40   C     C_R   0.345514 0.162077 0.768714 0.117706
C41   C     C_R   0.785799 0.225113 0.305717 -0.232426
C42   C     C_R   0.789014 0.777988 0.795884 -0.281485
C43   C     C_R   0.289394 0.721294 0.295747 -0.246511
C44   C     C_R   0.285024 0.274122 0.800064 -0.200268
C45   C     C_R   0.842914 0.275954 0.364323 0.041404
C46   C     C_R   0.843819 0.725343 0.855422 0.067615
C47   C     C_R   0.341862 0.775727 0.355447 0.063219
C48   C     C_R   0.340163 0.221432 0.857945 0.070462
C49   C     C_R   0.810916 0.337375 0.115247 0.104989
C50   C     C_R   0.810238 0.663211 0.610118 0.069405
C51   C     C_R   0.308383 0.837972 0.110996 0.093309
C52   C     C_R   0.307691 0.160957 0.612588 0.096650
C53   C     C_R   0.752842 0.284053 0.058444 -0.031658
C54   C     C_R   0.754378 0.718058 0.549963 0.019138
C55   C     C_R   0.251649 0.783730 0.052077 -0.021655
C56   C     C_R   0.248663 0.213901 0.556313 -0.022976
C57   C     C_R   0.241670 0.723797 0.146260 0.020313
C58   C     C_R   0.239133 0.273725 0.649606 0.021022
C59   C     C_R   0.741172 0.225176 0.153613 0.051417
C60   C     C_R   0.742893 0.776768 0.644978 0.045090
C61   C     C_R   0.185095 0.668825 0.085520 0.119335
C62   C     C_R   0.183436 0.329720 0.588465 0.103319
C63   C     C_R   0.682427 0.171141 0.093623 0.091055
C64   C     C_R   0.685396 0.831278 0.584929 0.122266
C65   C     C_R   0.157302 0.730659 0.837869 0.042818
C66   C     C_R   0.153194 0.266604 0.343579 0.128578
C67   C     C_R   0.653929 0.233532 0.848619 0.128585
C68   C     C_R   0.658564 0.770280 0.335339 0.047547
C69   C     C_R   0.209122 0.784460 0.898381 -0.251212
C70   C     C_R   0.202821 0.211680 0.405611 -0.249718
C71   C     C_R   0.707897 0.286029 0.906887 -0.216684
C72   C     C_R   0.712114 0.717744 0.395805 -0.152683
H61   H     H_    0.282847 0.678629 0.369288 0.175095
H62   H     H_    0.276330 0.314985 0.874287 0.178592
H63   H     H_    0.769624 0.190182 0.384530 0.184848
H64   H     H_    0.780375 0.819179 0.869777 0.194656
H65   H     H_    0.718895 0.325338 0.830494 0.188737
H66   H     H_    0.722183 0.677625 0.320931 0.160755
H67   H     H_    0.218578 0.825387 0.823213 0.183292
H68   H     H_    0.210159 0.169723 0.333020 0.186162
N1    N     N_R   0.080705 0.211611 0.738174 0.225257
O49   O     O_R   0.141751 0.175318 0.792650 -0.397411
O50   O     O_R   0.082067 0.276301 0.777800 -0.306437
N2    N     N_R   0.075822 0.793159 0.240838 0.250022
O51   O     O_R   0.131229 0.833636 0.309234 -0.390702
O52   O     O_R   0.086749 0.726755 0.258282 -0.314712
N3    N     N_R   0.547336 0.713773 0.635363 0.228837
O53   O     O_R   0.572359 0.744394 0.765990 -0.287100
O54   O     O_R   0.596048 0.698499 0.556752 -0.481929
N4    N     N_R   0.572746 0.283280 0.219226 0.209715
O55   O     O_R   0.640568 0.310076 0.252591 -0.411008
O56   O     O_R   0.557881 0.236315 0.311223 -0.299072
N5    N     N_2   0.283028 0.343186 0.291653 -0.117797
H69   H     H_    0.278735 0.328632 0.181080 0.268804
C73   C     C_3   0.340705 0.302005 0.389300 -0.917127
H70   H     H_    0.328497 0.246450 0.380831 0.292067
H71   H     H_    0.347024 0.316294 0.508222 0.226954
H72   H     H_    0.392092 0.307097 0.350492 0.278979
N6    N     N_2   0.291740 0.657212 0.808343 -0.116191
H73   H     H_    0.282242 0.673966 0.696945 0.259461
C74   C     C_3   0.351202 0.696645 0.910770 -0.763824
H74   H     H_    0.344379 0.753078 0.890091 0.274115
H75   H     H_    0.407295 0.685876 0.892806 0.285333
H76   H     H_    0.352276 0.684351 0.031291 0.185407
N7    N     N_2   0.793679 0.841328 0.324306 -0.138835
H77   H     H_    0.772998 0.821497 0.216753 0.238141
C75   C     C_3   0.858951 0.802238 0.409216 -0.785754
H78   H     H_    0.851478 0.745820 0.393397 0.273841
H79   H     H_    0.866416 0.809003 0.531838 0.191074
H80   H     H_    0.911201 0.815819 0.375088 0.293009
N8    N     N_2   0.822409 0.145791 0.751055 -0.051804
H81   H     H_    0.790006 0.171321 0.658824 0.258813
C76   C     C_3   0.821989 0.174795 0.896090 -0.919688
H82   H     H_    0.834524 0.231034 0.896569 0.281750
H83   H     H_    0.863869 0.152849 0.989318 0.244621
H84   H     H_    0.769408 0.159330 0.922272 0.206956
N9    N     N_2   0.352690 0.440755 0.233669 -0.084203
H85   H     H_    0.404863 0.418254 0.273173 0.201977
C77   C     C_3   0.331859 0.440811 0.069278 -0.785719
H86   H     H_    0.372362 0.473131 0.026297 0.207148
H87   H     H_    0.274527 0.461419 0.023906 0.266463
H88   H     H_    0.334162 0.387758 0.028142 0.244647
N10   N     N_2   0.355485 0.557688 0.747797 -0.077904
H89   H     H_    0.384754 0.514310 0.797843 0.187680
C78   C     C_3   0.334267 0.555115 0.582118 -0.729707
H90   H     H_    0.368840 0.515664 0.545067 0.192184
H91   H     H_    0.344464 0.605027 0.531711 0.239726
H92   H     H_    0.274523 0.540983 0.534462 0.255816
N11   N     N_2   0.851054 0.937961 0.231306 -0.082300
H93   H     H_    0.907976 0.927450 0.269413 0.187121
C79   C     C_3   0.819876 0.928298 0.070735 -0.726383
H94   H     H_    0.818264 0.978804 0.012275 0.237489
H95   H     H_    0.761557 0.909218 0.046809 0.261343
H96   H     H_    0.851445 0.887916 0.028623 0.240853
N12   N     N_2   0.858747 0.047425 0.633163 -0.110241
H97   H     H_    0.855234 0.995475 0.623710 0.219992
C80   C     C_3   0.840564 0.077260 0.483740 -0.968716
H98   H     H_    0.863258 0.044694 0.404550 0.274189
H99   H     H_    0.866296 0.128284 0.482161 0.277809
H100  H     H_    0.780234 0.081645 0.448031 0.293676
N13   N     N_R   0.669456 0.497449 0.176428 0.267668
O57   O     O_R   0.692144 0.433624 0.168160 -0.372884
O58   O     O_R   0.629845 0.512893 0.273412 -0.456608
N14   N     N_R   0.667362 0.504529 0.668956 0.259837
O59   O     O_R   0.672683 0.569126 0.627273 -0.376137
O60   O     O_R   0.627082 0.489731 0.766267 -0.471531
N15   N     N_R   0.168626 0.004502 0.166559 0.268638
O61   O     O_R   0.188223 0.939503 0.160735 -0.372373
O62   O     O_R   0.123462 0.021747 0.252078 -0.447835
N16   N     N_R   0.169440 0.998733 0.681555 0.258728
O63   O     O_R   0.193391 0.062620 0.679501 -0.380574
O64   O     O_R   0.129227 0.980944 0.777365 -0.458060
N17   N     N_2   0.448534 0.579654 0.245432 -0.117367
H101  H     H_    0.391722 0.567709 0.210398 0.226920
C81   C     C_3   0.492651 0.537551 0.365981 -0.814611
H102  H     H_    0.505394 0.487030 0.322265 0.254506
H103  H     H_    0.459434 0.527483 0.448342 0.206915
H104  H     H_    0.545415 0.564801 0.424152 0.322178
N18   N     N_2   0.488145 0.397873 0.745560 -0.053348
H105  H     H_    0.498160 0.446321 0.795596 0.236939
C82   C     C_3   0.416573 0.369629 0.760797 -0.980854
H106  H     H_    0.408691 0.377026 0.875143 0.262961
H107  H     H_    0.415985 0.312826 0.741276 0.253163
H108  H     H_    0.368176 0.397061 0.685140 0.263905
N19   N     N_2   0.951528 0.072289 0.105988 -0.106826
H109  H     H_    0.931438 0.023208 0.077655 0.198955
C83   C     C_3   0.979553 0.083411 0.266977 -0.794657
H110  H     H_    0.984204 0.032516 0.328156 0.238638
H111  H     H_    0.939790 0.118878 0.305060 0.221723
H112  H     H_    0.035850 0.109411 0.293703 0.283789
N20   N     N_2   0.974802 0.931796 0.745253 -0.084837
H113  H     H_    0.978722 0.985111 0.756876 0.223945
C84   C     C_3   0.909237 0.898913 0.780354 -1.024196
H114  H     H_    0.885092 0.935798 0.847204 0.268592
H115  H     H_    0.924479 0.848924 0.840125 0.262947
H116  H     H_    0.863367 0.889093 0.679505 0.260989
N21   N     N_R   0.070081 0.644826 0.882917 0.255818
O65   O     O_R   0.011164 0.685436 0.849591 -0.482403
O66   O     O_R   0.067700 0.586559 0.808372 -0.356263
N22   N     N_R   0.068722 0.354505 0.384550 0.256170
O67   O     O_R   0.009338 0.314307 0.347229 -0.479068
O68   O     O_R   0.068130 0.413071 0.310632 -0.356692
N23   N     N_R   0.569230 0.144449 0.886562 0.260010
O69   O     O_R   0.508479 0.182128 0.841121 -0.473538
O70   O     O_R   0.574058 0.086404 0.814842 -0.346939
N24   N     N_R   0.571198 0.855256 0.381590 0.252794
O71   O     O_R   0.512491 0.814001 0.351381 -0.456929
O72   O     O_R   0.567857 0.914063 0.307505 -0.365966
N25   N     N_R   0.873886 0.401976 0.344817 0.216203
O73   O     O_R   0.833879 0.457161 0.302170 -0.422153
O74   O     O_R   0.941083 0.412782 0.428458 -0.258505
N26   N     N_R   0.871255 0.598942 0.841386 0.215065
O75   O     O_R   0.830114 0.544294 0.799220 -0.444810
O76   O     O_R   0.938430 0.587761 0.925153 -0.258744
N27   N     N_R   0.371936 0.901582 0.341239 0.215678
O77   O     O_R   0.332268 0.957135 0.301955 -0.431200
O78   O     O_R   0.440002 0.911398 0.421891 -0.261697
N28   N     N_R   0.374178 0.096229 0.840159 0.218973
O79   O     O_R   0.335970 0.039868 0.799522 -0.414117
O80   O     O_R   0.439943 0.087524 0.931166 -0.268154

loop_
_geom_bond_atom_site_label_1
_geom_bond_atom_site_label_2
_geom_bond_distance
_ccdc_geom_bond_type
O25   Ba1   3.024229 S    
C73   H70   1.084120 S    
P5    O37   1.731814 S    
C53   C59   1.457048 A    
C73   H72   1.074357 S    
P7    O39   1.737682 S    
C84   H114  1.087806 S    
P8    O40   1.744422 S    
P9    O33   1.534618 D    
C55   C69   1.415551 A    
O5    Ba2   2.958898 S    
C12   H18   1.094455 S    
N7    C75   1.454649 S    
C15   H27   1.109735 S    
C84   H116  1.092758 S    
C71   H65   1.066600 S    
Ba1   O46   3.181087 S    
C2    H6    1.075089 S    
O18   C22   1.406805 S    
C29   H53   1.110557 S    
O17   C21   1.412748 S    
N15   O61   1.298966 A    
C15   H31   1.109726 S    
N14   O59   1.299597 A    
C6    H10   1.111263 S    
N18   C82   1.440669 S    
N28   O79   1.286438 A    
C31   H55   1.101068 S    
P4    O8    1.649952 S    
C7    C11   1.520977 S    
O8    Ba3   2.953166 S    
C16   C20   1.546996 S    
C31   N3    1.449863 S    
N9    H85   1.024105 S    
P7    O48   1.655081 S    
C26   H46   1.105667 S    
P1    Ba1   3.663296 S    
P5    O25   1.641293 D    
O29   Ba1   2.928997 S    
O20   C24   1.410398 S    
C43   C57   1.417778 A    
N27   O77   1.285544 A    
N12   H97   0.998288 S    
C41   C59   1.415941 A    
C13   H29   1.112043 S    
P15   C48   1.871769 S    
N24   O71   1.299891 A    
O10   Ba2   2.929802 S    
O39   C16   1.395243 S    
O26   Ba2   3.018179 S    
C4    H2    1.104965 S    
C58   C62   1.486072 A    
N3    O53   1.297735 A    
C74   H74   1.096924 S    
N6    H73   1.026607 S    
O44   C8    1.390476 S    
O32   Ba4   2.940755 S    
C8    C12   1.516948 S    
O6    Ba1   2.953166 S    
C25   H45   1.103340 S    
C56   C70   1.414001 A    
C16   H32   1.100842 S    
O11   Ba3   2.941565 S    
C26   H50   1.095288 S    
C34   C62   1.416597 A    
C11   H23   1.097597 S    
C42   C46   1.427615 A    
C77   H88   1.086287 S    
P9    C66   1.892724 S    
N12   C80   1.424139 S    
O24   P15   1.758342 S    
O1    Ba1   3.014699 S    
P5    Ba1   3.670611 S    
C79   H95   1.090276 S    
C23   H39   1.096810 S    
C50   C54   1.470262 A    
C28   N16   1.446890 S    
C1    H3    1.102775 S    
O15   P16   1.537770 D    
C2    H4    1.106289 S    
O13   P14   1.538713 D    
P2    Ba2   3.668208 S    
O42   C6    1.395791 S    
O30   Ba2   2.940755 S    
C6    C10   1.512043 S    
P3    O7    1.649820 S    
O4    Ba4   3.020680 S    
C1    C29   1.519512 S    
C25   H49   1.099322 S    
N2    O51   1.301706 A    
P8    Ba4   3.665587 S    
O38   C13   1.399227 S    
C18   N6    1.445053 S    
P3    Ba3   3.663296 S    
C76   H83   1.074241 S    
C52   C56   1.474262 A    
C42   H64   1.069360 S    
C37   C49   1.421451 A    
C5    H13   1.114158 S    
C7    H15   1.105600 S    
C83   H111  1.105005 S    
N5    H69   1.020178 S    
C74   H76   1.105054 S    
O19   C23   1.407935 S    
C78   H90   1.085825 S    
Ba3   Ba4   4.923304 S    
O21   C29   1.425480 S    
C76   H82   1.098598 S    
C22   H38   1.101813 S    
O2    Ba2   3.020680 S    
Ba4   O48   2.953133 S    
P6    Ba2   3.665587 S    
N21   O66   1.299140 A    
C23   C27   1.498265 S    
C21   C25   1.515404 S    
N7    H77   1.026031 S    
P6    O38   1.727357 S    
P8    O28   1.645783 D    
P9    O29   1.792978 S    
P10   O34   1.542288 D    
C81   H104  1.106079 S    
C40   N28   1.452042 S    
N22   O68   1.299121 A    
C82   H106  1.082694 S    
C67   C71   1.413025 A    
Ba2   O45   3.184237 S    
C32   H56   1.109617 S    
P11   O35   1.545387 D    
N27   O78   1.288852 A    
N26   O76   1.289660 A    
P2    O18   1.752316 S    
N19   H109  1.017450 S    
C3    C31   1.524984 S    
N4    O56   1.289754 A    
C4    C32   1.520455 S    
C20   N8    1.430518 S    
C28   H48   1.104813 S    
P6    O45   1.654944 S    
N1    O49   1.301007 A    
C33   C65   1.392639 A    
N8    C76   1.423155 S    
C54   C60   1.460169 A    
C44   H62   1.066983 S    
C80   H99   1.081976 S    
C17   N9    1.454817 S    
P6    O26   1.645783 D    
N6    C74   1.453260 S    
P7    C64   1.978306 S    
N23   O70   1.300739 A    
P12   C67   1.877489 S    
P9    O41   1.729586 S    
C75   H80   1.093711 S    
C53   C71   1.414245 A    
C13   H25   1.108852 S    
C39   C47   1.408083 A    
C40   C48   1.410911 A    
C17   H33   1.097559 S    
Ba3   O48   3.181087 S    
C19   H35   1.078141 S    
C78   H92   1.100002 S    
C36   C68   1.401317 A    
C57   C61   1.479825 A    
N17   C81   1.432057 S    
C60   C64   1.483660 A    
C76   H84   1.075690 S    
P5    O46   1.655081 S    
C8    H16   1.105890 S    
C66   C70   1.409955 A    
P8    O47   1.654944 S    
C49   C53   1.467545 A    
C16   H28   1.107404 S    
Ba1   O45   2.958858 S    
C19   N7    1.450259 S    
C27   H51   1.096090 S    
C17   N5    1.440563 S    
C4    H58   1.090682 S    
P13   C46   1.890933 S    
N14   O60   1.297002 A    
C42   C60   1.416845 A    
C81   H102  1.091158 S    
C41   C45   1.426977 A    
N16   O63   1.297143 A    
C35   C63   1.413485 A    
C12   H24   1.089181 S    
C36   C64   1.421132 A    
C21   H41   1.086191 S    
C44   C48   1.428946 A    
C23   H43   1.078044 S    
C84   H115  1.098449 S    
C39   C51   1.408251 A    
N8    H81   1.019787 S    
O14   P13   1.537289 D    
N10   H89   1.029137 S    
O10   P13   1.733050 S    
O12   P15   1.731697 S    
P1    O1    1.646496 D    
C29   N1    1.476696 S    
P10   O42   1.739775 S    
P3    O3    1.646496 D    
P4    O20   1.767974 S    
C2    C30   1.519126 S    
C6    H14   1.110486 S    
C14   H26   1.107960 S    
N24   O72   1.299281 A    
C82   H108  1.107148 S    
N25   O74   1.288260 A    
C34   N22   1.416125 S    
O23   P16   1.737900 S    
C75   H78   1.092978 S    
C5    H9    1.105617 S    
O21   P14   1.768323 S    
C38   C50   1.413897 A    
P4    O4    1.642001 D    
C9    H21   1.085718 S    
O28   Ba4   3.018179 S    
N13   O57   1.297746 A    
P4    C52   1.946366 S    
O12   Ba4   2.929802 S    
C36   N24   1.413840 S    
C77   H87   1.096921 S    
C38   C46   1.414399 A    
C33   N21   1.416149 S    
P11   C68   1.905151 S    
O22   C30   1.425627 S    
P1    O5    1.649820 S    
C83   H110  1.109829 S    
C10   N20   1.434484 S    
O27   Ba3   3.024229 S    
C20   H36   1.096208 S    
C18   N10   1.449704 S    
N20   H113  1.026176 S    
C22   C26   1.510970 S    
N18   H105  1.028997 S    
C35   C67   1.384666 A    
P10   O30   1.791863 S    
C73   H71   1.085829 S    
C54   C72   1.417600 A    
P12   O44   1.746855 S    
O7    Ba4   2.958898 S    
C9    H19   1.099283 S    
C15   C19   1.561949 S    
C11   H17   1.083534 S    
C12   N18   1.440634 S    
N2    O52   1.289305 A    
N9    C77   1.438281 S    
C69   H67   1.072212 S    
C35   N23   1.414639 S    
Ba1   Ba2   4.923304 S    
O23   C31   1.408783 S    
O37   C14   1.409771 S    
P4    Ba4   3.668208 S    
C24   H44   1.082360 S    
C9    N19   1.440642 S    
C28   H52   1.102762 S    
C10   H22   1.094130 S    
C19   N11   1.443768 S    
N3    O54   1.291518 A    
C74   H75   1.088016 S    
C40   C52   1.410661 A    
P6    C61   1.966415 S    
P7    O27   1.641293 D    
O11   P16   1.755659 S    
O31   Ba3   2.928997 S    
O41   C5    1.390936 S    
C56   C58   1.457620 A    
O43   C7    1.402455 S    
C5    C9    1.530776 S    
N5    C73   1.431861 S    
N21   O65   1.298685 A    
C1    H5    1.081461 S    
C82   H107  1.101116 S    
C30   N2    1.473863 S    
C37   N25   1.448173 S    
N23   O69   1.299820 A    
P1    O17   1.766427 S    
C81   H103  1.077179 S    
P3    O19   1.749640 S    
C68   C72   1.414190 A    
C79   H96   1.085017 S    
C1    H59   1.099858 S    
C2    H60   1.104800 S    
P5    C62   1.978064 S    
Ba2   O46   2.953133 S    
N15   O62   1.294962 A    
N11   H93   1.027995 S    
C27   H47   1.099090 S    
C55   C57   1.458958 A    
P8    C63   1.956903 S    
C10   H20   1.084210 S    
N10   C78   1.450665 S    
C37   C45   1.422422 A    
P14   C45   1.909511 S    
C20   N12   1.438158 S    
O3    Ba3   3.014699 S    
P3    C51   1.940224 S    
C21   H37   1.102271 S    
C13   C17   1.526182 S    
P1    C49   1.954740 S    
C44   C58   1.411816 A    
C32   N4    1.475663 S    
C3    H1    1.096551 S    
C80   H98   1.100637 S    
C59   C63   1.490094 A    
P7    Ba3   3.670611 S    
C75   H79   1.088425 S    
P2    O2    1.642001 D    
O9    P14   1.720162 S    
P11   O43   1.748436 S    
P12   O36   1.539702 D    
C83   H112  1.108691 S    
C51   C55   1.468352 A    
Ba3   O47   2.958858 S    
P16   C47   1.869457 S    
C70   H68   1.065923 S    
C33   C61   1.416311 A    
C78   H91   1.089182 S    
N17   H101  1.028838 S    
C43   C47   1.426461 A    
N11   C79   1.434705 S    
C43   H61   1.072481 S    
O22   P13   1.759247 S    
C27   N15   1.451019 S    
C11   N17   1.435702 S    
C41   H63   1.062688 S    
Ba4   O47   3.184237 S    
C26   N14   1.449584 S    
C34   C66   1.390402 A    
O16   P15   1.531817 D    
C8    H12   1.095852 S    
C3    H57   1.093203 S    
N20   C84   1.442823 S    
O24   C32   1.427892 S    
C38   N26   1.444885 S    
N16   O64   1.298726 A    
C79   H94   1.095135 S    
P2    O6    1.649952 S    
N22   O67   1.299857 A    
P10   C65   1.900686 S    
P11   O31   1.790183 S    
C18   H34   1.104359 S    
P12   O32   1.822351 S    
C14   C18   1.544002 S    
C72   H66   1.068294 S    
C24   C28   1.515875 S    
O40   C15   1.416274 S    
N28   O80   1.287717 A    
C77   H86   1.096161 S    
P2    C50   1.952197 S    
N26   O75   1.287585 A    
N13   O58   1.291587 A    
N19   C83   1.434461 S    
C7    H11   1.112125 S    
N4    O55   1.299334 A    
C65   C69   1.412578 A    
N1    O50   1.288012 A    
C3    H7    1.091683 S    
C4    H8    1.097704 S    
N25   O73   1.287333 A    
C80   H100  1.068308 S    
C25   N13   1.442663 S    
C30   H54   1.110315 S    
C22   H42   1.080858 S    
C39   N27   1.446905 S    
O9    Ba1   2.941565 S    
C24   H40   1.101178 S    
C14   H30   1.111669 S    
