data_mof_unit_44862.cif
_audit_creation_date              2012-12-11T14:08:19-0500
_audit_creation_method            fapswitch 2.2
_symmetry_space_group_name_H-M    P1
_symmetry_Int_Tables_number       1
_space_group_crystal_system       triclinic
_cell_length_a                    28.074309
_cell_length_b                    7.223944
_cell_length_c                    17.390471
_cell_angle_alpha                 89.999069
_cell_angle_beta                  102.429914
_cell_angle_gamma                 89.998865
_cell_volume                      3444.24262089

loop_
_atom_site_label
_atom_site_type_symbol
_atom_type_description
_atom_site_fract_x
_atom_site_fract_y
_atom_site_fract_z
_atom_type_partial_charge
O1    O     O_R   0.000700 0.436510 0.857920 -0.538523
O2    O     O_R   0.999300 0.563490 0.142080 -0.529424
O3    O     O_R   0.999300 0.936510 0.642080 -0.538519
O4    O     O_R   0.000700 0.063490 0.357920 -0.529432
O5    O     O_R   0.930080 0.766380 0.721890 -0.538853
O6    O     O_R   0.069920 0.233620 0.278110 -0.535271
O7    O     O_R   0.069920 0.266380 0.778110 -0.538847
O8    O     O_R   0.930080 0.733620 0.221890 -0.535256
C1    C     C_R   0.910442 0.597095 0.715917 0.712789
C2    C     C_R   0.089247 0.402522 0.292190 0.678366
C3    C     C_R   0.089556 0.097092 0.784065 0.712896
C4    C     C_R   0.910753 0.902524 0.207821 0.678399
O9    O     O_R   0.996180 0.766230 0.862310 -0.545245
O10   O     O_R   0.003820 0.233770 0.137690 -0.552711
O11   O     O_R   0.003820 0.266230 0.637690 -0.545295
O12   O     O_R   0.996180 0.733770 0.362310 -0.552708
O13   O     O_R   0.065870 0.936460 0.783500 -0.537558
O14   O     O_R   0.934130 0.063540 0.216500 -0.535829
O15   O     O_R   0.934130 0.436460 0.716500 -0.537562
O16   O     O_R   0.065870 0.563540 0.283500 -0.535831
C5    C     C_R   0.002706 0.596962 0.895613 0.697347
C6    C     C_R   0.004543 0.404052 0.106697 0.712689
C7    C     C_R   0.997296 0.096965 0.604387 0.697472
C8    C     C_R   0.995455 0.904053 0.393303 0.712648
O17   O     O_3   0.022790 0.603020 0.723980 -0.383659
O18   O     O_3   0.977210 0.396980 0.276020 -0.378483
O19   O     O_3   0.977210 0.103020 0.776020 -0.383659
O20   O     O_3   0.022790 0.896980 0.223980 -0.378481
V1    V     V_3+5 0.995770 0.877900 0.754830 1.340416
V2    V     V_3+5 0.004230 0.122100 0.245170 1.365892
V3    V     V_3+5 0.004230 0.377900 0.745170 1.340329
V4    V     V_3+5 0.995770 0.622100 0.254830 1.365911
C9    C     C_2   0.987946 0.084621 0.515439 -0.102661
C10   C     C_2   0.987305 0.917071 0.476389 -0.110340
C11   C     C_2   0.012057 0.584611 0.984560 -0.102707
C12   C     C_2   0.012692 0.417062 0.023610 -0.110327
C13   C     C_R   0.685030 0.815889 0.002610 0.605504
C14   C     C_R   0.325738 0.184103 0.894660 0.596004
C15   C     C_R   0.314958 0.315943 0.497470 0.605494
C16   C     C_R   0.674256 0.684005 0.605339 0.596002
O21   O     O_2   0.709227 0.661322 0.990048 -0.510210
O22   O     O_2   0.301532 0.330467 0.915805 -0.528907
O23   O     O_2   0.290760 0.161394 0.510047 -0.510235
O24   O     O_2   0.698459 0.830368 0.584196 -0.528910
N1    N     N_R   0.709550 0.956603 0.047109 -0.558191
N2    N     N_R   0.300216 0.040827 0.853124 -0.550806
N3    N     N_R   0.290440 0.456660 0.452964 -0.558180
N4    N     N_R   0.699780 0.540721 0.646861 -0.550792
C17   C     C_R   0.686254 0.118131 0.057769 0.603765
C18   C     C_R   0.324319 0.887459 0.834505 0.598236
C19   C     C_R   0.313737 0.618181 0.442295 0.603755
C20   C     C_R   0.675678 0.387355 0.665472 0.598240
C21   C     C_R   0.771727 0.850319 0.160359 -0.100330
C22   C     C_R   0.224549 0.200139 0.786459 -0.096532
C23   C     C_R   0.228271 0.350146 0.339757 -0.100364
C24   C     C_R   0.775442 0.700076 0.713509 -0.096558
C25   C     C_R   0.820207 0.845800 0.204285 0.057814
C26   C     C_R   0.173379 0.219991 0.768546 0.029412
C27   C     C_R   0.179797 0.345605 0.295811 0.057795
C28   C     C_R   0.826609 0.719988 0.731402 0.029376
C29   C     C_R   0.845795 0.996237 0.094718 -0.227143
C30   C     C_R   0.167669 0.930147 0.837908 -0.254571
C31   C     C_R   0.154198 0.496485 0.405264 -0.227163
C32   C     C_R   0.832336 0.430102 0.662092 -0.254566
C33   C     C_R   0.797275 0.006918 0.053428 -0.083813
C34   C     C_R   0.218470 0.914878 0.855768 -0.104448
C35   C     C_R   0.202715 0.507192 0.446568 -0.083801
C36   C     C_R   0.781535 0.414793 0.644235 -0.104498
C37   C     C_R   0.759998 0.933080 0.085944 0.343981
C38   C     C_R   0.247437 0.050730 0.831051 0.335914
C39   C     C_R   0.239994 0.433134 0.414122 0.343905
C40   C     C_R   0.752560 0.550635 0.668939 0.335920
C41   C     C_R   0.609252 0.989664 0.986261 -0.041291
C42   C     C_R   0.402479 0.025190 0.896566 -0.028159
C43   C     C_R   0.390739 0.489692 0.513803 -0.041289
C44   C     C_R   0.597516 0.525122 0.603444 -0.028152
C45   C     C_R   0.634571 0.831510 0.970246 -0.088534
C46   C     C_R   0.377056 0.178551 0.917024 -0.079288
C47   C     C_R   0.365420 0.331545 0.529824 -0.088528
C48   C     C_R   0.622938 0.678473 0.582986 -0.079278
C49   C     C_R   0.609581 0.698117 0.918867 -0.173428
C50   C     C_R   0.402844 0.316565 0.964640 -0.157350
C51   C     C_R   0.390412 0.198133 0.581196 -0.173426
C52   C     C_R   0.597147 0.816502 0.535381 -0.157353
C53   C     C_R   0.635835 0.137839 0.027235 -0.024123
C54   C     C_R   0.375629 0.875764 0.857008 -0.017234
C55   C     C_R   0.364156 0.637877 0.472830 -0.024115
C56   C     C_R   0.624367 0.375681 0.642985 -0.017241
C57   C     C_R   0.858162 0.913594 0.169665 -0.062176
C58   C     C_R   0.144066 0.084825 0.796886 -0.073380
C59   C     C_R   0.141836 0.413601 0.330366 -0.062205
C60   C     C_R   0.855931 0.584815 0.703089 -0.073336
H1    H     H_    0.874026 0.053888 0.068248 0.127751
H2    H     H_    0.146813 0.822781 0.859102 0.140752
H3    H     H_    0.125966 0.554305 0.431688 0.127791
H4    H     H_    0.853197 0.322736 0.640910 0.140723
H5    H     H_    0.788641 0.073925 0.996419 0.134509
H6    H     H_    0.235342 0.798263 0.890320 0.156024
H7    H     H_    0.211344 0.574385 0.503534 0.134584
H8    H     H_    0.764671 0.298154 0.609696 0.156034
H9    H     H_    0.629486 0.585472 0.899152 0.199931
H10   H     H_    0.383338 0.427584 0.986340 0.199713
H11   H     H_    0.370508 0.085489 0.600913 0.199934
H12   H     H_    0.616652 0.927518 0.513681 0.199713
C61   C     C_R   0.479411 0.859506 0.897977 0.108543
C62   C     C_R   0.532819 0.161873 0.978326 0.087237
C63   C     C_R   0.520583 0.359470 0.602051 0.108533
C64   C     C_R   0.467173 0.661875 0.521727 0.087246
C65   C     C_R   0.480809 0.166667 0.961725 -0.012702
C66   C     C_R   0.531522 0.854591 0.915345 -0.003289
C67   C     C_R   0.519184 0.666652 0.538314 -0.012687
C68   C     C_R   0.468473 0.354576 0.584698 -0.003288
C69   C     C_R   0.454510 0.018557 0.917807 0.072366
C70   C     C_R   0.557557 0.001009 0.960494 0.049100
C71   C     C_R   0.545484 0.518515 0.582219 0.072384
C72   C     C_R   0.442436 0.501015 0.539561 0.049103
C73   C     C_R   0.450895 0.704206 0.867760 -0.084157
C74   C     C_R   0.561516 0.317495 0.007252 -0.097945
C75   C     C_R   0.549100 0.204153 0.632250 -0.084160
C76   C     C_R   0.438476 0.817512 0.492811 -0.097914
C77   C     C_R   0.400328 0.714368 0.844558 -0.108398
C78   C     C_R   0.611755 0.303968 0.034405 -0.116400
C79   C     C_R   0.599668 0.214294 0.655435 -0.108421
C80   C     C_R   0.388237 0.804002 0.465660 -0.116404
O25   O     O_2   0.298907 0.746990 0.793889 -0.523666
O26   O     O_2   0.711617 0.258188 0.098808 -0.510902
O27   O     O_2   0.701092 0.246864 0.706069 -0.523689
O28   O     O_2   0.288376 0.758237 0.401246 -0.510934
C81   C     C_R   0.559586 0.714546 0.887278 0.239469
C82   C     C_R   0.453292 0.306431 0.991177 0.220974
C83   C     C_R   0.440409 0.214530 0.612768 0.239443
C84   C     C_R   0.546698 0.806399 0.508858 0.220964
H13   H     H_    0.247175 0.301726 0.765511 0.151940
H14   H     H_    0.742425 0.797793 0.185829 0.136355
H15   H     H_    0.752810 0.801669 0.734441 0.151960
H16   H     H_    0.257577 0.297462 0.314334 0.136399
H17   H     H_    0.380517 0.592127 0.819549 0.172511
H18   H     H_    0.631747 0.425588 0.059674 0.176719
H19   H     H_    0.619479 0.092042 0.680431 0.172518
H20   H     H_    0.368246 0.925631 0.440394 0.176701
H21   H     H_    0.466695 0.569266 0.865586 0.170207
H22   H     H_    0.546037 0.453803 0.006388 0.163564
H23   H     H_    0.533299 0.069215 0.634419 0.170215
H24   H     H_    0.453956 0.953816 0.493679 0.163560
C85   C     C_3   0.965368 0.255283 0.469228 -0.333284
C86   C     C_3   0.913156 0.214083 0.420904 -0.301336
C87   C     C_3   0.893118 0.352503 0.355530 -0.688683
H25   H     H_    0.910935 0.489224 0.365498 0.224544
H26   H     H_    0.897465 0.298990 0.297830 0.249060
H27   H     H_    0.853307 0.368555 0.350988 0.180275
H28   H     H_    0.911498 0.078277 0.391097 0.179638
H29   H     H_    0.888098 0.208236 0.462439 0.164580
H30   H     H_    0.961649 0.365088 0.511278 0.160039
H31   H     H_    0.989574 0.314716 0.433073 0.205826
C88   C     C_3   0.964112 0.747263 0.506298 -0.350039
C89   C     C_3   0.912903 0.790698 0.521134 -0.288440
C90   C     C_3   0.881836 0.619602 0.523435 -0.798727
H32   H     H_    0.869229 0.563501 0.463680 0.239342
H33   H     H_    0.902346 0.511983 0.562198 0.230321
H34   H     H_    0.848728 0.659501 0.544558 0.230830
H35   H     H_    0.915340 0.868972 0.576491 0.212681
H36   H     H_    0.892556 0.877162 0.473325 0.174868
H37   H     H_    0.959164 0.639162 0.461182 0.175792
H38   H     H_    0.988252 0.683740 0.558403 0.198530
C91   C     C_3   0.034643 0.755250 0.030772 -0.333301
C92   C     C_3   0.086851 0.714005 0.079105 -0.301284
C93   C     C_3   0.106888 0.852435 0.144471 -0.688792
H39   H     H_    0.089065 0.989146 0.134495 0.224548
H40   H     H_    0.102545 0.798933 0.202176 0.249055
H41   H     H_    0.146698 0.868501 0.149003 0.180320
H42   H     H_    0.088503 0.578206 0.108919 0.179627
H43   H     H_    0.111913 0.708119 0.037575 0.164590
H44   H     H_    0.038371 0.865049 0.988723 0.160068
H45   H     H_    0.010437 0.814706 0.066923 0.205802
C94   C     C_3   0.035881 0.247242 0.993702 -0.350038
C95   C     C_3   0.087093 0.290657 0.978877 -0.288389
C96   C     C_3   0.118146 0.119538 0.976537 -0.798777
H46   H     H_    0.130740 0.063332 0.036276 0.239351
H47   H     H_    0.097629 0.011994 0.937744 0.230334
H48   H     H_    0.151261 0.159438 0.955436 0.230856
H49   H     H_    0.084663 0.369000 0.923538 0.212687
H50   H     H_    0.107446 0.377040 0.026710 0.174854
H51   H     H_    0.040824 0.139129 0.038814 0.175761
H52   H     H_    0.011743 0.183736 0.941594 0.198594
C97   C     C_3   0.152378 0.382619 0.716873 -0.343035
C98   C     C_3   0.126474 0.318083 0.634340 -0.278964
C99   C     C_3   0.100888 0.478696 0.585235 -0.751215
H53   H     H_    0.073702 0.543284 0.614617 0.246184
H54   H     H_    0.127894 0.585009 0.576880 0.218631
H55   H     H_    0.081505 0.426715 0.526768 0.198270
H56   H     H_    0.153701 0.256856 0.603811 0.199620
H57   H     H_    0.099096 0.209834 0.638091 0.183424
H58   H     H_    0.128119 0.466646 0.745548 0.200070
H59   H     H_    0.181907 0.479595 0.709699 0.181894
C100  C     C_3   0.828780 0.779504 0.288620 -0.365025
C101  C     C_3   0.800634 0.899165 0.338024 -0.322667
C102  C     C_3   0.765231 0.784321 0.373938 -0.695782
H60   H     H_    0.784963 0.672745 0.411681 0.225001
H61   H     H_    0.747042 0.874530 0.410646 0.239376
H62   H     H_    0.736881 0.721433 0.326709 0.234175
H63   H     H_    0.826594 0.968670 0.386220 0.178448
H64   H     H_    0.779795 0.012476 0.302587 0.214613
H65   H     H_    0.816981 0.632707 0.287444 0.194764
H66   H     H_    0.868084 0.782094 0.317399 0.139870
C103  C     C_3   0.847597 0.882771 0.782980 -0.342984
C104  C     C_3   0.873566 0.818516 0.865522 -0.279059
C105  C     C_3   0.899036 0.979461 0.914552 -0.750735
H67   H     H_    0.926079 0.044698 0.885032 0.246101
H68   H     H_    0.871902 0.085211 0.923031 0.218571
H69   H     H_    0.918581 0.927616 0.972965 0.198198
H70   H     H_    0.846393 0.756995 0.896089 0.199472
H71   H     H_    0.901025 0.710568 0.861793 0.183595
H72   H     H_    0.871814 0.966788 0.754216 0.199951
H73   H     H_    0.818054 0.979683 0.790150 0.181975
C106  C     C_3   0.171240 0.279073 0.211514 -0.365070
C107  C     C_3   0.199384 0.398598 0.162060 -0.322609
C108  C     C_3   0.234735 0.283590 0.126100 -0.695906
H74   H     H_    0.214968 0.172015 0.088407 0.224969
H75   H     H_    0.252912 0.373692 0.089337 0.239406
H76   H     H_    0.263097 0.220675 0.173305 0.234214
H77   H     H_    0.173420 0.468195 0.113893 0.178452
H78   H     H_    0.220271 0.511838 0.197473 0.214597
H79   H     H_    0.183054 0.132282 0.212778 0.194816
H80   H     H_    0.131940 0.281588 0.182718 0.139998
Br1   Br    Br    0.537589 0.569227 0.793332 -0.540544
Br2   Br    Br    0.476973 0.460077 0.082266 -0.502933
Br3   Br    Br    0.462416 0.069141 0.706696 -0.540562
Br4   Br    Br    0.523010 0.960083 0.417780 -0.502949

loop_
_geom_bond_atom_site_label_1
_geom_bond_atom_site_label_2
_ccdc_geom_bond_type
O17   V3    S    
C61   C66   A    
O1    C5    A    
C91   C92   S    
C23   C27   A    
O19   V1    S    
O13   V1    S    
C63   C68   A    
C64   C76   A    
O3    C7    A    
C87   H25   S    
C76   H24   S    
C97   H59   S    
C48   C52   A    
C21   C37   A    
C106  H80   S    
C85   C86   S    
O4    V2    S    
C93   H40   S    
C49   H9    S    
C103  C104  S    
C108  H76   S    
C92   H43   S    
C17   O26   S    
C90   H32   S    
C25   C57   A    
C62   C70   A    
C19   O28   S    
C32   C36   A    
O9    V1    S    
C89   C90   S    
C87   H26   S    
O10   V2    S    
C14   O22   S    
N4    C20   A    
C84   Br4   S    
O16   V4    S    
C55   C80   A    
O4    C8    A    
C99   H54   S    
C27   C106  S    
C28   C103  S    
C100  H65   S    
C91   H44   S    
C23   H16   S    
C31   H3    S    
O1    V3    S    
C44   C71   A    
C75   H23   S    
C66   C81   A    
O2    V4    S    
C74   C78   A    
C77   H17   S    
C98   H56   S    
O3    V1    S    
C73   C77   A    
C107  H77   S    
C99   H55   S    
C76   C80   A    
C104  H70   S    
C1    O15   A    
C11   C12   D    
C2    O16   A    
C24   C40   A    
O2    C6    A    
C105  H69   S    
C16   C48   A    
O14   V2    S    
N1    C17   A    
C50   C82   A    
C66   C70   A    
C89   H36   S    
C65   C69   A    
C85   H30   S    
O11   C7    A    
O15   V3    S    
C92   H42   S    
O12   C8    A    
C62   C74   A    
C26   C97   S    
C98   H57   S    
C61   C73   A    
N4    C40   S    
C56   C79   A    
C1    C60   S    
C63   C75   A    
C20   O27   S    
C29   C57   A    
O7    C3    A    
C93   H41   S    
O5    V1    S    
C28   C60   A    
C95   H49   S    
C31   C35   A    
C88   C89   S    
O7    V3    S    
C30   C34   A    
N1    C37   S    
C105  H67   S    
O8    V4    S    
C17   C53   A    
C4    C57   S    
C20   C56   A    
C87   H27   S    
C107  C108  S    
C78   H18   S    
C19   C55   A    
C93   H39   S    
C21   C25   A    
C104  C105  S    
C15   O23   S    
C100  H66   S    
C14   C46   A    
C7    C9    S    
C91   H45   S    
C10   C88   S    
C42   C69   A    
C13   C45   A    
C52   C84   A    
C8    C10   S    
C41   C70   A    
C24   C28   A    
C36   C40   A    
C15   C47   A    
C102  H62   S    
C95   H50   S    
C106  C107  S    
C36   H8    S    
O5    C1    A    
C29   C33   A    
C86   H28   S    
C46   C50   A    
C49   C81   A    
C94   C95   S    
C22   C38   A    
C45   C49   A    
O8    C4    A    
C96   H48   S    
N3    C39   S    
C54   C77   A    
C9    C10   D    
C50   H10   S    
O9    C5    A    
C53   C78   A    
C18   O25   S    
C27   C59   A    
C42   C54   A    
C26   C58   A    
C81   Br1   S    
C41   C53   A    
C51   H11   S    
C98   C99   S    
C86   H29   S    
C85   H31   S    
C43   C55   A    
C95   C96   S    
O6    V2    S    
C25   C100  S    
C89   H35   S    
C90   H34   S    
C75   C79   A    
C30   H2    S    
C92   C93   S    
C52   H12   S    
C79   H19   S    
O12   V4    S    
C2    C59   S    
C32   C60   A    
C13   N1    A    
C68   C72   A    
C24   H15   S    
C73   H21   S    
C15   N3    A    
C86   C87   S    
C22   C26   A    
C61   C69   A    
C16   N4    A    
C44   C56   A    
C3    O13   A    
C94   H51   S    
C80   H20   S    
C21   H14   S    
C44   C48   A    
C97   H58   S    
C101  C102  S    
C74   H22   S    
C106  H79   S    
C103  H73   S    
N3    C19   A    
C34   H6    S    
O11   V3    S    
C5    C11   S    
C35   H7    S    
C88   H38   S    
C108  H75   S    
C6    C12   S    
N2    C18   A    
C64   C67   A    
C88   H37   S    
C64   C72   A    
C102  H61   S    
C51   C83   A    
C108  H74   S    
C33   H5    S    
C99   H53   S    
C14   N2    A    
C47   C51   A    
C22   H13   S    
C3    C58   S    
O10   C6    A    
C97   C98   S    
C34   C38   A    
C43   C47   A    
C33   C37   A    
C30   C58   A    
O20   V2    S    
C11   C91   S    
C96   H47   S    
C63   C71   A    
C32   H4    S    
C35   C39   A    
C68   C83   A    
C13   O21   S    
C102  H60   S    
C107  H78   S    
N2    C38   S    
O6    C2    A    
C18   C54   A    
C103  H72   S    
C100  C101  S    
C104  H71   S    
C67   C84   A    
C16   O24   S    
C31   C59   A    
C82   Br2   S    
C12   C94   S    
C90   H33   S    
C96   H46   S    
C42   C46   A    
C4    O14   A    
C65   C82   A    
C105  H68   S    
C41   C45   A    
C67   C71   A    
C43   C72   A    
C83   Br3   S    
C101  H63   S    
C29   H1    S    
C101  H64   S    
O18   V4    S    
C23   C39   A    
C9    C85   S    
C94   H52   S    
C62   C65   A    
