data_mof_unit_57436.cif
_audit_creation_date              2012-12-10T18:16:21-0500
_audit_creation_method            fapswitch 2.2
_symmetry_space_group_name_H-M    P1
_symmetry_Int_Tables_number       1
_space_group_crystal_system       triclinic
_cell_length_a                    12.600911
_cell_length_b                    13.130922
_cell_length_c                    27.723773
_cell_angle_alpha                 90.660671
_cell_angle_beta                  103.079866
_cell_angle_gamma                 82.283184
_cell_volume                      4426.89650501

loop_
_atom_site_label
_atom_site_type_symbol
_atom_type_description
_atom_site_fract_x
_atom_site_fract_y
_atom_site_fract_z
_atom_type_partial_charge
C1    C     C_R   0.438721 0.691334 0.495888 0.851637
C2    C     C_R   0.405965 0.498645 0.713134 0.527150
C3    C     C_R   0.503915 0.509957 0.747366 0.245763
C4    C     C_R   0.502049 0.506336 0.898358 -0.051840
C5    C     C_R   0.478859 0.600014 0.871369 -0.023838
C6    C     C_R   0.453552 0.691577 0.894848 -0.142152
C7    C     C_R   0.528175 0.414257 0.874444 -0.035364
C8    C     C_R   0.502156 0.504318 0.646711 -0.089945
C9    C     C_R   0.496062 0.499551 0.353243 -0.042653
C10   C     C_R   0.459772 0.595175 0.022199 0.044669
C11   C     C_R   0.528359 0.409306 0.027492 0.044808
C12   C     C_R   0.500940 0.500836 0.593864 0.883580
C13   C     C_R   0.492751 0.501494 0.049940 0.071001
C14   C     C_R   0.418409 0.683214 0.045581 -0.214780
C15   C     C_R   0.415084 0.680545 0.095182 -0.138011
C16   C     C_R   0.452143 0.590033 0.123278 -0.021963
C17   C     C_R   0.490439 0.500072 0.100794 -0.051995
C18   C     C_R   0.526846 0.408796 0.129339 -0.019967
C19   C     C_R   0.525229 0.409430 0.179630 0.499095
C20   C     C_R   0.451996 0.587286 0.173689 0.503575
C21   C     C_R   0.392611 0.507187 0.268169 -0.105696
C22   C     C_R   0.395007 0.508295 0.318512 -0.224515
C23   C     C_R   0.561217 0.308804 0.505997 0.870345
C24   C     C_R   0.594615 0.490269 0.337027 -0.220060
C25   C     C_R   0.591977 0.489275 0.286668 -0.103390
C26   C     C_R   0.491053 0.497725 0.252260 0.322097
C27   C     C_R   0.468416 0.597774 0.972163 0.044910
C28   C     C_R   0.498860 0.504696 0.949104 0.073325
C29   C     C_R   0.526027 0.409976 0.976153 0.044583
C30   C     C_R   0.448674 0.690751 0.944299 -0.214348
C31   C     C_R   0.550621 0.321122 0.900797 -0.135413
C32   C     C_R   0.566232 0.319502 0.057512 -0.214956
C33   C     C_R   0.565129 0.319424 0.107394 -0.139856
C34   C     C_R   0.498750 0.499980 0.406153 0.856552
C35   C     C_R   0.549332 0.318750 0.950626 -0.211427
C36   C     C_R   0.702498 0.066935 0.573620 -0.189162
C37   C     C_R   0.597811 0.200502 0.516558 -0.064539
C38   C     C_R   0.300330 0.836583 0.459040 -0.185598
C39   C     C_R   0.272961 0.940607 0.447188 -0.140473
C40   C     C_R   0.346913 0.008653 0.466223 -0.191728
C41   C     C_R   0.447995 0.973728 0.499776 0.087209
C42   C     C_R   0.467092 0.871193 0.517293 0.096441
C43   C     C_R   0.530745 0.036931 0.516655 0.078496
C44   C     C_R   0.622487 0.002524 0.555763 0.179593
C45   C     C_R   0.481701 0.599731 0.821216 0.520278
C46   C     C_R   0.631486 0.905520 0.577229 -0.244417
C47   C     C_R   0.554410 0.840688 0.558384 -0.201991
C48   C     C_R   0.525158 0.133411 0.495365 -0.246748
C49   C     C_R   0.689043 0.166820 0.554655 -0.186950
C50   C     C_R   0.399108 0.801047 0.492701 -0.114723
C51   C     C_R   0.088209 0.341818 0.434230 -0.417743
C52   C     C_R   0.800711 0.629541 0.558817 0.026854
C53   C     C_R   0.905363 0.658589 0.570649 -0.251658
C54   C     C_R   0.986178 0.610317 0.548067 -0.195209
C55   C     C_R   0.962558 0.531643 0.513640 0.041537
C56   C     C_R   0.529733 0.417494 0.824216 0.557944
C57   C     C_R   0.854507 0.504451 0.503165 0.231920
C58   C     C_R   0.041571 0.478247 0.489691 -0.006427
C59   C     C_R   0.011454 0.397713 0.456964 0.137269
C60   C     C_R   0.905236 0.372275 0.447654 -0.258817
C61   C     C_R   0.827997 0.425226 0.470259 -0.215618
C62   C     C_R   0.150204 0.500152 0.497263 -0.158543
C63   C     C_R   0.194723 0.367545 0.442737 0.629653
C64   C     C_R   0.599505 0.521150 0.731610 -0.188989
C65   C     C_R   0.598632 0.518970 0.681425 -0.218071
C66   C     C_R   0.406177 0.493533 0.662784 -0.330745
H1    H     H_    0.331653 0.480556 0.636492 0.172804
H2    H     H_    0.674516 0.530832 0.758377 0.156754
H3    H     H_    0.569075 0.249166 0.882952 0.190312
H4    H     H_    0.599910 0.248020 0.043992 0.143192
H5    H     H_    0.673539 0.483136 0.363158 0.163351
H6    H     H_    0.595063 0.248685 0.128785 0.189716
H7    H     H_    0.668146 0.482303 0.274271 0.138311
H8    H     H_    0.564713 0.243429 0.967723 0.142792
H9    H     H_    0.745765 0.219059 0.571537 0.162551
H10   H     H_    0.698825 0.879216 0.608202 0.143062
H11   H     H_    0.772292 0.041747 0.603696 0.141261
H12   H     H_    0.461370 0.160785 0.463535 0.179781
H13   H     H_    0.246255 0.783550 0.440520 0.158188
H14   H     H_    0.321531 0.088184 0.454984 0.165986
H15   H     H_    0.196319 0.968051 0.421450 0.146638
H16   H     H_    0.562916 0.766674 0.576612 0.153416
H17   H     H_    0.881531 0.310894 0.422689 0.158412
H18   H     H_    0.065976 0.277281 0.411257 0.148462
H19   H     H_    0.180586 0.559713 0.521412 0.148020
H20   H     H_    0.737923 0.666509 0.576410 0.128045
H21   H     H_    0.437255 0.764713 0.875054 0.190212
H22   H     H_    0.066039 0.635466 0.558606 0.134019
H23   H     H_    0.923818 0.718338 0.597267 0.146806
H24   H     H_    0.748228 0.401621 0.461574 0.211495
H25   H     H_    0.318022 0.516927 0.330208 0.155275
H26   H     H_    0.314503 0.513958 0.241478 0.139432
H27   H     H_    0.383342 0.750206 0.111455 0.190118
H28   H     H_    0.385742 0.755422 0.026402 0.143476
H29   H     H_    0.431390 0.765013 0.959799 0.143310
H30   H     H_    0.673602 0.527654 0.669925 0.171385
N1    N     N_R   0.506349 0.509254 0.798927 -0.336622
N2    N     N_R   0.488704 0.497976 0.200624 -0.356443
N3    N     N_R   0.222180 0.444690 0.474320 -0.133288
N4    N     N_R   0.776980 0.554780 0.525420 -0.130025
O1    O     O_R   0.366730 0.627160 0.487740 -0.623866
O2    O     O_2   0.416810 0.673305 0.195851 -0.559952
O3    O     O_2   0.553825 0.329849 0.800643 -0.549206
O4    O     O_2   0.559501 0.322383 0.207395 -0.565894
O5    O     O_R   0.544830 0.662520 0.504140 -0.608308
O6    O     O_R   0.410970 0.482310 0.563040 -0.619707
O7    O     O_R   0.589070 0.517670 0.579450 -0.634135
O8    O     O_R   0.455170 0.337480 0.495860 -0.550407
O9    O     O_R   0.633270 0.372840 0.512260 -0.646345
O10   O     O_R   0.410930 0.482330 0.420550 -0.595659
O11   O     O_R   0.589030 0.517690 0.436960 -0.632497
O12   O     O_2   0.459427 0.688754 0.794764 -0.580171
Zn1   Zn    Zn3+2 0.381080 0.476390 0.489050 0.980204
Zn2   Zn    Zn3+2 0.618920 0.523610 0.510950 0.934153
O13   O     O_3   0.313455 0.484812 0.730016 -0.601730
C67   C     C_3   0.230044 0.568204 0.713635 0.080028
H31   H     H_    0.192840 0.562031 0.673476 0.137189
H32   H     H_    0.262084 0.643529 0.720495 0.165899
C68   C     C_3   0.140122 0.565974 0.741933 -0.774185
H33   H     H_    0.174496 0.573235 0.782228 0.259502
H34   H     H_    0.073652 0.630856 0.729206 0.199580
H35   H     H_    0.104907 0.492548 0.735408 0.260509
O14   O     O_3   0.276332 0.308751 0.424601 -0.603288
C69   C     C_3   0.247379 0.306323 0.372367 0.059396
H36   H     H_    0.222149 0.385311 0.355960 0.136948
H37   H     H_    0.179934 0.259103 0.359387 0.134977
C70   C     C_3   0.346457 0.256852 0.353698 -0.782322
H38   H     H_    0.368627 0.175553 0.366871 0.240142
H39   H     H_    0.326806 0.259030 0.312574 0.220090
H40   H     H_    0.417964 0.298571 0.367591 0.258890

loop_
_geom_bond_atom_site_label_1
_geom_bond_atom_site_label_2
_ccdc_geom_bond_type
C10   C27   A    
C58   C62   A    
C12   O6    A    
C21   C26   A    
C35   H8    S    
C8    C66   A    
C1    O1    A    
O1    Zn1   S    
C41   C42   A    
C46   H10   S    
C45   O12   S    
O14   C69   S    
C53   C54   A    
C52   C53   A    
C7    C56   A    
C28   C29   A    
C36   H11   S    
C5    C6    A    
C60   H17   S    
C9    C22   A    
C20   O2    S    
C38   H13   S    
C15   C16   A    
C67   H31   S    
C18   C19   A    
C19   O4    S    
C47   H16   S    
C48   H12   S    
C63   N3    A    
C33   H6    S    
C54   C55   A    
C65   H30   S    
C16   C17   A    
C22   H25   S    
C40   H14   S    
C43   C48   A    
C16   C20   A    
C66   H1    S    
C59   C60   A    
C21   C22   A    
C27   C30   A    
C34   O11   A    
C41   C43   A    
C56   N1    A    
C4    C7    A    
C4    C28   A    
C19   N2    A    
C44   C46   A    
C68   H34   S    
C23   O9    A    
C62   H19   S    
C7    C31   A    
O6    Zn1   S    
O5    Zn2   S    
C51   C63   A    
C24   C25   A    
C39   H15   S    
C10   C14   A    
C39   C40   A    
C32   H4    S    
C58   C59   A    
C23   C37   S    
C57   N4    A    
C5    C45   A    
C52   N4    A    
C6    H21   S    
C60   C61   A    
O8    Zn1   S    
C43   C44   A    
C70   H39   S    
O7    Zn2   S    
C15   H27   S    
C30   H29   S    
C37   C49   A    
C2    O13   S    
C3    N1    S    
C8    C65   A    
C8    C12   S    
C49   H9    S    
C17   C18   A    
N4    Zn2   S    
C37   C48   A    
O10   Zn1   S    
O9    Zn2   S    
C26   N2    S    
C69   C70   S    
C40   C41   A    
C6    C30   A    
C42   C50   A    
C11   C32   A    
C55   C57   A    
C53   H23   S    
C9    C34   S    
C34   O10   A    
C31   C35   A    
C36   C44   A    
C51   C59   A    
C70   H38   S    
C64   H2    S    
C61   H24   S    
C69   H37   S    
C1    C50   S    
C68   H35   S    
C46   C47   A    
C56   O3    S    
C4    C5    A    
C2    C66   A    
C10   C13   A    
N3    Zn1   S    
C12   O7    A    
C63   O14   S    
C68   H33   S    
C9    C24   A    
C57   C61   A    
C38   C50   A    
C29   C35   A    
C67   C68   S    
C13   C17   A    
C64   C65   A    
C52   H20   S    
C2    C3    A    
C25   C26   A    
C70   H40   S    
C45   N1    A    
C32   C33   A    
C54   H22   S    
C11   C13   A    
C38   C39   A    
C23   O8    A    
C67   H32   S    
O11   Zn2   S    
C25   H7    S    
C42   C47   A    
C3    C64   A    
C18   C33   A    
C62   N3    A    
C31   H3    S    
C20   N2    A    
C11   C29   A    
C55   C58   A    
C27   C28   A    
C14   C15   A    
C51   H18   S    
C14   H28   S    
C36   C49   A    
O13   C67   S    
C24   H5    S    
C1    O5    A    
C69   H36   S    
C21   H26   S    
