data_mof_unit_23346.cif
_audit_creation_date              2012-12-10T20:31:05-0500
_audit_creation_method            fapswitch 2.2
_symmetry_space_group_name_H-M    P1
_symmetry_Int_Tables_number       1
_space_group_crystal_system       triclinic
_cell_length_a                    14.93496
_cell_length_b                    10.667433
_cell_length_c                    9.863663
_cell_angle_alpha                 89.964926
_cell_angle_beta                  89.946391
_cell_angle_gamma                 89.864699
_cell_volume                      1571.45059459

loop_
_atom_site_label
_atom_site_type_symbol
_atom_type_description
_atom_site_fract_x
_atom_site_fract_y
_atom_site_fract_z
_atom_type_partial_charge
C1    C     C_R   0.497254 0.260026 0.500207 0.870146
C2    C     C_R   0.905608 0.585438 0.571411 0.030405
C3    C     C_R   0.958490 0.314485 0.341858 -0.224334
C4    C     C_R   0.051020 0.320342 0.339293 -0.217307
C5    C     C_R   0.095371 0.409475 0.417028 0.133688
C6    C     C_R   0.046876 0.496518 0.496144 0.074609
C7    C     C_R   0.092437 0.584868 0.576862 0.094537
C8    C     C_R   0.045239 0.673978 0.651647 -0.263528
C9    C     C_R   0.952034 0.678297 0.646770 -0.011421
C10   C     C_R   0.187967 0.412621 0.417509 -0.262342
C11   C     C_R   0.231822 0.498634 0.499671 -0.056833
C12   C     C_R   0.327029 0.500114 0.500042 0.885448
C13   C     C_R   0.185222 0.583758 0.580036 -0.247869
C14   C     C_R   0.491684 0.063778 0.623797 0.129456
C15   C     C_R   0.483582 0.128692 0.501978 -0.104847
C16   C     C_R   0.459846 0.065011 0.383065 -0.240004
C17   C     C_R   0.460582 0.935385 0.382716 -0.220562
C18   C     C_R   0.484913 0.871554 0.501398 -0.104633
C19   C     C_R   0.492564 0.936028 0.623347 0.130260
C20   C     C_3   0.563990 0.928948 0.729188 -0.467386
C21   C     C_3   0.562811 0.071004 0.730160 -0.473663
C22   C     C_R   0.424289 0.469446 0.071261 0.233264
C23   C     C_R   0.497844 0.740029 0.500019 0.885467
C24   C     C_R   0.572078 0.541439 0.071816 -0.136235
C25   C     C_R   0.572063 0.541525 0.927880 -0.136406
C26   C     C_R   0.424271 0.469615 0.928767 0.223782
C27   C     C_3   0.375040 0.348475 0.922591 -0.500619
C28   C     C_3   0.375347 0.347901 0.076610 -0.521001
C29   C     C_R   0.672863 0.494478 0.499890 0.885557
C30   C     C_R   0.812950 0.579419 0.571854 -0.262855
C31   C     C_R   0.768413 0.487006 0.499428 -0.098407
C32   C     C_R   0.814114 0.391779 0.428024 0.046830
C33   C     C_R   0.908140 0.399329 0.421018 0.113653
C34   C     C_R   0.953346 0.494263 0.495590 0.017362
H1    H     H_    0.773484 0.645662 0.629670 0.182683
H2    H     H_    0.447794 0.886233 0.288646 0.174723
H3    H     H_    0.539151 0.886879 0.825232 0.205950
H4    H     H_    0.627747 0.888618 0.690082 0.221472
H5    H     H_    0.537220 0.110964 0.826787 0.200353
H6    H     H_    0.625915 0.113453 0.692264 0.209058
H7    H     H_    0.630828 0.573030 0.125770 0.162410
H8    H     H_    0.630781 0.573267 0.873721 0.158638
H9    H     H_    0.306998 0.359927 0.878640 0.210658
H10   H     H_    0.415668 0.271790 0.877192 0.212750
H11   H     H_    0.307426 0.358337 0.121388 0.203853
H12   H     H_    0.416530 0.271143 0.120419 0.207324
H13   H     H_    0.927791 0.242693 0.280591 0.159924
H14   H     H_    0.088017 0.253779 0.277786 0.151032
H15   H     H_    0.226154 0.346631 0.356706 0.139323
H16   H     H_    0.221412 0.650692 0.641993 0.147158
H17   H     H_    0.081444 0.743099 0.710645 0.178852
H18   H     H_    0.446861 0.114243 0.289186 0.165594
N1    N     N_R   0.499390 0.499140 0.142800 -0.112698
N2    N     N_R   0.499390 0.499180 0.857150 -0.111759
O1    O     O_R   0.500010 0.316790 0.614690 -0.615908
O2    O     O_R   0.500000 0.316760 0.385350 -0.632467
O3    O     O_R   0.367850 0.499990 0.614680 -0.621319
O4    O     O_R   0.367840 0.499950 0.385340 -0.618743
O5    O     O_R   0.500000 0.683240 0.614650 -0.617778
O6    O     O_R   0.499990 0.683210 0.385310 -0.618986
O7    O     O_R   0.632160 0.500050 0.614660 -0.625291
O8    O     O_R   0.632150 0.500010 0.385320 -0.628084
Zn1   Zn    Zn3+2 0.500010 0.500020 0.653130 0.944551
Zn2   Zn    Zn3+2 0.499990 0.499980 0.346870 0.940994
C35   C     C_3   0.763851 0.278691 0.370236 -0.449578
C36   C     C_3   0.779741 0.161234 0.457377 -0.342804
C37   C     C_3   0.730388 0.047864 0.400158 -0.837796
H19   H     H_    0.657481 0.067071 0.394206 0.261738
H20   H     H_    0.755995 0.025001 0.297317 0.259727
H21   H     H_    0.741033 0.965572 0.467241 0.283499
H22   H     H_    0.852150 0.138333 0.463323 0.243765
H23   H     H_    0.755516 0.179364 0.562093 0.222314
H24   H     H_    0.690667 0.293498 0.366479 0.226168
H25   H     H_    0.783238 0.262311 0.263062 0.200852
C38   C     C_2   0.907074 0.782339 0.720445 0.889742
O9    O     O_2   0.846173 0.841198 0.667184 -0.672251
O10   O     O_R   0.938007 0.817311 0.848692 -0.806010
H26   H     H_    0.903294 0.890564 0.888042 0.342156

loop_
_geom_bond_atom_site_label_1
_geom_bond_atom_site_label_2
_ccdc_geom_bond_type
C19   C20   S    
C7    C8    A    
O10   H26   S    
C23   O5    A    
C28   H12   S    
C26   C27   S    
C30   H1    S    
C14   C21   S    
C1    O2    A    
C5    C6    A    
N1    Zn2   S    
N2    Zn1   S    
C3    C33   A    
C15   C16   A    
C35   H24   S    
C17   C18   A    
C18   C19   A    
O7    Zn1   S    
O8    Zn2   S    
C27   H10   S    
C36   H23   S    
C31   C32   A    
C8    C9    A    
O1    Zn1   S    
O2    Zn2   S    
C1    C15   S    
C17   H2    S    
C12   O4    A    
C2    C34   A    
C36   C37   S    
C22   C28   S    
C24   H7    S    
C10   H15   S    
C26   N2    A    
O3    Zn1   S    
C22   N1    A    
O4    Zn2   S    
C23   O6    A    
C29   O7    A    
C28   H11   S    
C37   H19   S    
C25   N2    A    
C16   C17   A    
C24   N1    A    
C35   H25   S    
C18   C23   S    
C37   H20   S    
C38   O9    D    
C27   H9    S    
C20   H4    S    
C36   H22   S    
C21   H5    S    
C33   C34   A    
C24   C25   A    
C38   O10   S    
C8    H17   S    
C12   O3    A    
C3    C4    A    
C4    H14   S    
C29   O8    A    
C14   C19   A    
C16   H18   S    
C4    C5    A    
C25   H8    S    
C11   C12   S    
C6    C7    A    
O5    Zn1   S    
C2    C30   A    
O6    Zn2   S    
C37   H21   S    
C32   C33   A    
C1    O1    A    
C5    C10   A    
C29   C31   S    
C20   H3    S    
C11   C13   A    
C30   C31   A    
C21   H6    S    
C3    H13   S    
C10   C11   A    
C13   H16   S    
C6    C34   A    
C7    C13   A    
C20   C21   S    
C35   C36   S    
C22   C26   A    
C27   C28   S    
C14   C15   A    
C9    C38   S    
C2    C9    A    
C32   C35   S    
