data_mof_unit_63956.cif
_audit_creation_date              2012-12-10T19:06:50-0500
_audit_creation_method            fapswitch 2.2
_symmetry_space_group_name_H-M    P1
_symmetry_Int_Tables_number       1
_space_group_crystal_system       triclinic
_cell_length_a                    13.043807
_cell_length_b                    13.631499
_cell_length_c                    16.878149
_cell_angle_alpha                 89.128038
_cell_angle_beta                  93.274466
_cell_angle_gamma                 94.34765
_cell_volume                      2987.34709283

loop_
_atom_site_label
_atom_site_type_symbol
_atom_type_description
_atom_site_fract_x
_atom_site_fract_y
_atom_site_fract_z
_atom_type_partial_charge
C1    C     C_R   0.481261 0.314943 0.501152 0.890830
C2    C     C_2   0.964054 0.472741 0.477633 0.412215
C3    C     C_1   0.853021 0.480267 0.483741 0.218689
C4    C     C_1   0.146978 0.519728 0.516261 0.217766
C5    C     C_R   0.483798 0.498011 0.347721 0.992446
C6    C     C_R   0.516111 0.501262 0.652321 0.987032
C7    C     C_R   0.467642 0.481849 0.263259 -0.394952
C8    C     C_R   0.531312 0.511057 0.737495 -0.400183
C9    C     C_R   0.522178 0.411060 0.226929 0.355991
C10   C     C_R   0.473956 0.576305 0.777518 0.354158
C11   C     C_R   0.511519 0.400880 0.144982 0.613149
C12   C     C_R   0.518759 0.685061 0.498999 0.888889
C13   C     C_R   0.481815 0.577915 0.859937 0.619152
C14   C     C_R   0.444989 0.458957 0.100334 -0.235252
C15   C     C_R   0.548300 0.516872 0.901608 -0.237517
C16   C     C_R   0.383344 0.521750 0.137301 -0.241949
C17   C     C_R   0.612468 0.459634 0.861636 -0.243950
C18   C     C_R   0.394682 0.533577 0.218867 0.597511
C19   C     C_R   0.603924 0.456266 0.779453 0.599539
C20   C     C_2   0.452455 0.467584 0.015297 0.611668
C21   C     C_2   0.541681 0.502860 0.986324 0.604813
C22   C     C_3   0.539130 0.265657 0.291178 -0.150645
C23   C     C_1   0.533732 0.788094 0.497262 -0.138780
C24   C     C_3   0.457429 0.724634 0.717931 -0.146289
C25   C     C_3   0.278776 0.009343 0.527808 -0.208477
C26   C     C_3   0.720955 0.990690 0.471426 -0.208771
C27   C     C_1   0.466275 0.211915 0.502902 -0.142322
C28   C     C_2   0.544806 0.980590 0.494590 0.435123
C29   C     C_2   0.455127 0.019427 0.505342 0.436240
C30   C     C_1   0.457259 0.124561 0.504307 -0.062541
C31   C     C_1   0.542719 0.875452 0.495768 -0.060269
C32   C     C_2   0.035946 0.527249 0.522372 0.412228
F1    F     F_    0.661581 0.394913 0.741403 -0.607183
F2    F     F_    0.339302 0.599785 0.253644 -0.606787
F3    F     F_    0.627827 0.522833 0.034569 -0.616759
F4    F     F_    0.366187 0.448156 0.967083 -0.616603
F5    F     F_    0.422183 0.636178 0.899337 -0.595453
F6    F     F_    0.569435 0.338089 0.108626 -0.596962
F7    F     F_    0.994400 0.408115 0.424665 -0.643220
F8    F     F_    0.005599 0.591874 0.575341 -0.643535
H1    H     H_    0.332016 0.566622 0.102444 0.246909
H2    H     H_    0.290006 0.055646 0.581772 0.170987
H3    H     H_    0.212278 0.955361 0.536600 0.210739
H4    H     H_    0.709181 0.944641 0.417341 0.170616
H5    H     H_    0.740845 0.945260 0.524618 0.170717
H6    H     H_    0.787384 0.044682 0.462429 0.211240
H7    H     H_    0.664118 0.412868 0.894205 0.243886
H8    H     H_    0.517195 0.220612 0.237578 0.190748
H9    H     H_    0.469871 0.276292 0.324810 0.095092
H10   H     H_    0.592026 0.223844 0.330198 0.207404
H11   H     H_    0.523539 0.714808 0.680638 0.096745
H12   H     H_    0.484160 0.765939 0.772587 0.183903
H13   H     H_    0.403308 0.769815 0.683096 0.206218
H14   H     H_    0.259337 0.054520 0.474369 0.170149
N1    N     N_1   0.235630 0.515160 0.512550 -0.076509
N2    N     N_1   0.764370 0.484840 0.487450 -0.075679
O1    O     O_R   0.402910 0.365220 0.504590 -0.626678
O2    O     O_3   0.405090 0.633693 0.736742 -0.529240
O3    O     O_3   0.366351 0.957365 0.516939 -0.626399
O4    O     O_3   0.633577 0.042661 0.483000 -0.627394
O5    O     O_R   0.597090 0.634780 0.495410 -0.626519
O6    O     O_R   0.572660 0.355490 0.496530 -0.576749
O7    O     O_R   0.427340 0.644510 0.503470 -0.579018
O8    O     O_R   0.405090 0.505430 0.388710 -0.574391
O9    O     O_R   0.594910 0.494570 0.611290 -0.571630
O10   O     O_R   0.574840 0.495690 0.380650 -0.571987
O11   O     O_R   0.425160 0.504310 0.619350 -0.572793
O12   O     O_3   0.590789 0.356317 0.270691 -0.530703
Zn1   Zn    Zn3+2 0.386660 0.506500 0.505380 1.069273
Zn2   Zn    Zn3+2 0.613340 0.493500 0.494620 1.072024

loop_
_geom_bond_atom_site_label_1
_geom_bond_atom_site_label_2
_ccdc_geom_bond_type
O5    Zn2   S    
C24   H12   S    
C11   F6    S    
C22   H8    S    
C5    C7    S    
C7    C9    A    
C29   C30   S    
C21   F3    S    
C1    O1    A    
C9    C11   A    
C3    N2    T    
O10   Zn2   S    
C13   F5    S    
C22   H10   S    
C7    C18   A    
O1    Zn1   S    
C1    O6    A    
C25   H3    S    
C24   H11   S    
C28   O4    S    
C2    C3    S    
C9    O12   S    
C26   H4    S    
N1    Zn1   S    
O8    Zn1   S    
C20   C21   D    
C27   C30   T    
C12   O5    A    
C18   F2    S    
C12   C23   S    
C22   O12   S    
C5    O8    A    
C4    C32   S    
C25   H2    S    
C22   H9    S    
C2    F7    S    
C2    C32   D    
C6    O11   A    
C10   O2    S    
N2    Zn2   S    
C13   C15   A    
C4    N1    T    
C8    C10   A    
C11   C14   A    
C14   C16   A    
C8    C19   A    
C26   H6    S    
O9    Zn2   S    
C20   F4    S    
C24   O2    S    
C14   C20   S    
C6    O9    A    
C15   C21   S    
C32   F8    S    
C25   H14   S    
O6    Zn2   S    
C16   C18   A    
C19   F1    S    
C1    C27   S    
C12   O7    A    
C29   O3    S    
C28   C29   D    
C6    C8    S    
C25   O3    S    
C26   H5    S    
C17   C19   A    
C24   H13   S    
C15   C17   A    
C26   O4    S    
C16   H1    S    
C28   C31   S    
O7    Zn1   S    
C17   H7    S    
C5    O10   A    
O11   Zn1   S    
C10   C13   A    
C23   C31   T    
