data_mof_unit_62896.cif
_audit_creation_date              2012-12-10T21:35:50-0500
_audit_creation_method            fapswitch 2.2
_symmetry_space_group_name_H-M    P1
_symmetry_Int_Tables_number       1
_space_group_crystal_system       triclinic
_cell_length_a                    16.195806
_cell_length_b                    15.738887
_cell_length_c                    16.692337
_cell_angle_alpha                 91.136512
_cell_angle_beta                  87.337726
_cell_angle_gamma                 91.215644
_cell_volume                      4248.63678776

loop_
_atom_site_label
_atom_site_type_symbol
_atom_type_description
_atom_site_fract_x
_atom_site_fract_y
_atom_site_fract_z
_atom_type_partial_charge
Br1   Br    Br    0.642076 0.625298 0.255064 -0.397631
Br2   Br    Br    0.420520 0.304263 0.105008 -0.391255
Br3   Br    Br    0.690577 0.633780 0.636766 -0.404172
Br4   Br    Br    0.286983 0.625763 0.607088 -0.424620
Br5   Br    Br    0.355530 0.095516 0.388482 -0.371719
C1    C     C_R   0.511404 0.499952 0.347041 0.930794
C2    C     C_R   0.473800 0.418295 0.228349 -0.290650
C3    C     C_R   0.483603 0.397957 0.147363 0.309090
C4    C     C_R   0.500896 0.338391 0.499749 0.893067
C5    C     C_R   0.539753 0.445965 0.099161 0.196505
C6    C     C_R   0.588384 0.510447 0.132716 -0.240009
C7    C     C_R   0.578722 0.530958 0.213825 0.281463
C8    C     C_R   0.548879 0.436704 0.856398 -0.145080
C9    C     C_R   0.552014 0.451356 0.775143 -0.190487
C10   C     C_R   0.476531 0.454568 0.903320 0.329363
C11   C     C_R   0.482977 0.482726 0.738823 -0.040981
C12   C     C_3   0.586804 0.952276 0.492266 -0.323927
C13   C     C_R   0.409362 0.496332 0.784227 -0.176244
C14   C     C_R   0.406480 0.482552 0.866466 -0.150116
C15   C     C_R   0.235577 0.546626 0.534426 0.328423
C16   C     C_R   0.488872 0.497187 0.653113 0.898458
C17   C     C_R   0.148865 0.549158 0.526286 -0.173096
C18   C     C_R   0.109713 0.486349 0.477698 0.221526
C19   C     C_R   0.160448 0.428600 0.434484 -0.258402
C20   C     C_R   0.246712 0.431740 0.440848 -0.015182
C21   C     C_R   0.850696 0.459293 0.461277 -0.292946
C22   C     C_R   0.764158 0.460528 0.457544 0.048095
C23   C     C_3   0.496799 0.916851 0.491072 0.161060
C24   C     C_R   0.890738 0.507227 0.520124 0.235111
C25   C     C_R   0.755026 0.560398 0.565940 0.318023
C26   C     C_R   0.841957 0.557891 0.573523 -0.180568
C27   C     C_R   0.499129 0.661629 0.499761 0.943725
C28   C     C_3   0.586727 0.049970 0.501298 -0.461660
C29   C     C_3   0.463955 0.048525 0.410186 0.104111
C30   C     C_3   0.452655 0.948902 0.415874 -0.282991
C31   C     C_1   0.497500 0.750234 0.496923 -0.075923
C32   C     C_3   0.497551 0.082787 0.492729 0.079893
C33   C     C_2   0.726481 0.406636 0.395867 0.985495
C34   C     C_3   0.448633 0.949882 0.567490 -0.458135
C35   C     C_2   0.102347 0.621774 0.562243 1.009406
C36   C     C_2   0.882371 0.606868 0.638027 0.994713
C37   C     C_2   0.522496 0.077806 0.340437 0.958484
C38   C     C_2   0.472570 0.901018 0.337370 0.965700
C39   C     C_2   0.357458 0.081717 0.576357 0.997586
C40   C     C_3   0.444947 0.048407 0.567298 -0.182821
C41   C     C_1   0.496851 0.825348 0.493960 0.000461
C42   C     C_1   0.501266 0.174457 0.495601 0.005134
C43   C     C_1   0.502467 0.249710 0.497823 -0.030669
C44   C     C_R   0.520285 0.485132 0.261513 -0.163959
H1    H     H_    0.622198 0.933509 0.436339 0.257891
H2    H     H_    0.631589 0.078862 0.456800 0.228560
H3    H     H_    0.430846 0.380998 0.265769 0.207507
H4    H     H_    0.886155 0.419377 0.419361 0.184683
H5    H     H_    0.133098 0.381129 0.395445 0.186933
H6    H     H_    0.284748 0.387462 0.406103 0.171476
H7    H     H_    0.385754 0.934310 0.428492 0.189761
H8    H     H_    0.475391 0.071460 0.622470 0.135462
H9    H     H_    0.480446 0.930110 0.621695 0.193080
H10   H     H_    0.698397 0.392641 0.279915 0.342950
H11   H     H_    0.070702 0.691122 0.661355 0.362684
H12   H     H_    0.609480 0.068767 0.561189 0.201499
H13   H     H_    0.954533 0.604286 0.733168 0.363957
H14   H     H_    0.551958 0.168016 0.258840 0.364620
H15   H     H_    0.547743 0.822036 0.272897 0.378605
H16   H     H_    0.234565 0.059208 0.571425 0.371795
H17   H     H_    0.619190 0.925353 0.543115 0.195959
H18   H     H_    0.386305 0.918987 0.572082 0.237425
H19   H     H_    0.608856 0.438084 0.740793 0.182536
H20   H     H_    0.603998 0.413767 0.882455 0.170212
H21   H     H_    0.630981 0.547402 0.094704 0.199677
H22   H     H_    0.355114 0.519352 0.756656 0.202921
H23   H     H_    0.350546 0.496287 0.902033 0.171614
N1    N     N_2   0.542479 0.437394 0.015578 -0.160761
N2    N     N_2   0.474429 0.452870 0.987909 -0.134650
N3    N     N_R   0.283090 0.489740 0.490280 -0.120489
N4    N     N_2   0.021604 0.480656 0.468371 -0.134734
N5    N     N_2   0.978832 0.507066 0.527858 -0.110048
N6    N     N_R   0.716930 0.510260 0.509710 -0.155331
O1    O     O_R   0.577460 0.503670 0.387340 -0.580774
O2    O     O_R   0.724208 0.435880 0.317560 -0.756073
O3    O     O_2   0.062937 0.666556 0.519444 -0.576564
O4    O     O_R   0.103566 0.639075 0.644633 -0.741177
O5    O     O_2   0.872999 0.683567 0.645178 -0.552480
O6    O     O_R   0.931823 0.564843 0.690396 -0.767276
O7    O     O_2   0.583419 0.036878 0.319468 -0.612485
O8    O     O_R   0.508574 0.154554 0.302757 -0.738188
O9    O     O_2   0.427315 0.908409 0.281379 -0.552645
O10   O     O_R   0.542061 0.849819 0.328135 -0.763001
O11   O     O_2   0.346972 0.156081 0.596189 -0.605466
O12   O     O_R   0.438160 0.497080 0.381100 -0.626388
O13   O     O_R   0.288834 0.028574 0.563248 -0.766611
O14   O     O_R   0.569680 0.380440 0.503120 -0.608103
O15   O     O_R   0.430380 0.373850 0.496890 -0.605986
O16   O     O_R   0.561840 0.502920 0.618900 -0.601915
O17   O     O_R   0.422540 0.496330 0.612660 -0.588593
O18   O     O_R   0.569620 0.626150 0.503110 -0.566882
O19   O     O_R   0.430320 0.619560 0.496880 -0.587424
O20   O     O_2   0.702900 0.334418 0.411791 -0.624049
Zn1   Zn    Zn3+2 0.593020 0.504400 0.504170 1.044018
Zn2   Zn    Zn3+2 0.406980 0.495600 0.495830 1.019823

loop_
_geom_bond_atom_site_label_1
_geom_bond_atom_site_label_2
_ccdc_geom_bond_type
C11   C16   S    
C29   C32   S    
N1    N2    D    
C29   C37   S    
C18   N4    S    
C33   O20   D    
C22   N6    A    
C7    C44   A    
C6    H21   S    
C2    C3    A    
C10   C14   A    
C40   H8    S    
C12   H17   S    
C8    H20   S    
C38   O10   S    
C27   C31   S    
O1    Zn1   S    
C2    H3    S    
C29   C30   S    
C25   C26   A    
C5    N1    S    
C16   O16   A    
C22   C33   S    
C19   H5    S    
C36   O5    D    
O18   Zn1   S    
C27   O19   A    
C13   C14   A    
H11   O4    S    
C23   C30   S    
C18   C19   A    
C31   C41   T    
C37   O8    S    
C32   C42   S    
C30   C38   S    
C34   C40   S    
C8    C9    A    
C14   H23   S    
Br1   C7    S    
C12   C28   S    
C4    O14   A    
O12   Zn2   S    
C35   O4    S    
N4    N5    D    
C2    C44   A    
O17   Zn2   S    
C16   O17   A    
C23   C34   S    
C1    O12   A    
C36   O6    S    
C28   C32   S    
C15   N3    A    
C20   N3    A    
Br4   C15   S    
H10   O2    S    
Br3   C25   S    
C42   C43   T    
C17   C35   S    
Br5   C29   S    
C21   C22   A    
C37   O7    D    
C19   C20   A    
O15   Zn2   S    
C39   O13   S    
C21   C24   A    
C3    C5    A    
C27   O18   A    
C15   C17   A    
C8    C10   A    
H14   O8    S    
C9    C11   A    
C32   C40   S    
C21   H4    S    
C4    O15   A    
O19   Zn2   S    
C39   C40   S    
C13   H22   S    
H16   O13   S    
H13   O6    S    
C26   C36   S    
C30   H7    S    
C12   C23   S    
C34   H18   S    
C35   O3    D    
C11   C13   A    
Br2   C3    S    
C20   H6    S    
C12   H1    S    
C6    C7    A    
C28   H2    S    
C23   C41   S    
C38   O9    D    
C24   C26   A    
C34   H9    S    
C1    O1    A    
C33   O2    S    
O16   Zn1   S    
N3    Zn2   S    
C1    C44   S    
C5    C6    A    
C25   N6    A    
C10   N2    S    
C24   N5    S    
C4    C43   S    
C28   H12   S    
N6    Zn1   S    
C9    H19   S    
C17   C18   A    
H15   O10   S    
C39   O11   D    
O14   Zn1   S    
