data_mof_unit_54051.cif
_audit_creation_date              2013-03-05T15:55:20-0500
_audit_creation_method            fapswitch 2.2
_symmetry_space_group_name_H-M    P1
_symmetry_Int_Tables_number       1
_space_group_crystal_system       triclinic
_cell_length_a                    12.345459
_cell_length_b                    13.115106
_cell_length_c                    13.878793
_cell_angle_alpha                 105.433004
_cell_angle_beta                  73.886053
_cell_angle_gamma                 116.866929
_cell_volume                      1899.70206106

loop_
_atom_site_label
_atom_site_type_symbol
_atom_site_description
_atom_site_fract_x
_atom_site_fract_y
_atom_site_fract_z
_atom_type_partial_charge
O1    O     O_R   0.025040 0.682470 0.528790 -0.577043
O2    O     O_R   0.194310 0.640150 0.490130 -0.599386
C1    C     C_R   0.144482 0.714240 0.509981 0.778612
O3    O     O_R   0.903380 0.524130 0.659910 -0.571973
O4    O     O_R   0.072660 0.481800 0.621240 -0.594906
C2    C     C_R   0.984363 0.504429 0.686342 0.819223
Cu1   Cu    Cu3+1 0.899780 0.525060 0.522890 0.943118
Cu2   Cu    Cu3+1 0.100220 0.474940 0.477110 0.935216
O5    O     O_R   0.805690 0.359850 0.509870 -0.586090
O6    O     O_R   0.974960 0.317530 0.471210 -0.577184
O7    O     O_R   0.927340 0.518200 0.378760 -0.571404
O8    O     O_R   0.096620 0.475870 0.340090 -0.578049
C3    C     C_R   0.856264 0.285399 0.481709 0.798750
C4    C     C_R   0.015744 0.495794 0.313693 0.806798
C5    C     C_1   0.024887 0.493634 0.208664 -0.156466
C6    C     C_2   0.036603 0.491058 0.015620 -0.162883
C7    C     C_2   0.956214 0.514614 0.986921 0.153254
C8    C     C_1   0.966493 0.511034 0.880600 -0.003117
C9    C     C_1   0.031491 0.492149 0.120453 0.027204
C10   C     C_1   0.975284 0.507823 0.791640 -0.188048
H1    H     H_    0.107858 0.470142 0.959351 0.138466
C11   C     C_R   0.729000 0.979539 0.335777 -0.123189
H2    H     H_    0.760934 0.923591 0.273900 0.187253
C12   C     C_R   0.775897 0.162533 0.451776 -0.066506
C13   C     C_R   0.182101 0.918488 0.581310 -0.235912
C14   C     C_R   0.257197 0.036072 0.592077 -0.143594
C15   C     C_R   0.380747 0.076748 0.542719 0.198432
C16   C     C_R   0.432200 0.995261 0.486085 0.078409
C17   C     C_R   0.349379 0.878395 0.461331 -0.020291
C18   C     C_R   0.561147 0.024129 0.451507 0.032713
C19   C     C_R   0.602250 0.945701 0.375740 -0.019055
C20   C     C_R   0.515578 0.836337 0.339604 0.317457
C21   C     C_R   0.391055 0.804693 0.381837 -0.245258
C22   C     C_R   0.650494 0.125752 0.494807 -0.267798
C23   C     C_R   0.815987 0.088104 0.370851 0.154835
C24   C     C_R   0.226015 0.838647 0.515262 -0.074127
H3    H     H_    0.623840 0.178711 0.562599 0.176166
H4    H     H_    0.088103 0.890148 0.623252 0.157649
H5    H     H_    0.217680 0.096369 0.637674 0.149708
H6    H     H_    0.327207 0.721230 0.350416 0.203363
C25   C     C_R   0.642371 0.676775 0.662443 -0.284495
H7    H     H_    0.817499 0.694051 0.679130 0.125179
H8    H     H_    0.641754 0.745264 0.726190 0.154626
N1    N     N_R   0.748810 0.563010 0.557590 -0.181029
C26   C     C_R   0.255550 0.355755 0.360144 0.099600
C27   C     C_R   0.356559 0.326549 0.327941 -0.230219
C28   C     C_R   0.454692 0.382122 0.380377 -0.157705
C29   C     C_R   0.452903 0.468079 0.466523 0.004742
C30   C     C_R   0.347568 0.495498 0.496130 0.250323
C31   C     C_R   0.551736 0.528195 0.523411 -0.060875
C32   C     C_R   0.545194 0.617206 0.607005 0.153995
C33   C     C_R   0.441998 0.645093 0.633796 0.109285
C34   C     C_R   0.345830 0.583802 0.579211 -0.181050
C35   C     C_R   0.657688 0.503524 0.501084 0.057177
C36   C     C_R   0.743128 0.648178 0.636360 0.076036
N2    N     N_R   0.250540 0.437620 0.443020 -0.199550
H9    H     H_    0.669750 0.437090 0.439763 0.120183
H10   H     H_    0.181701 0.314413 0.317329 0.127045
H11   H     H_    0.530841 0.356612 0.351177 0.133639
H12   H     H_    0.359310 0.261340 0.261502 0.147365
H13   H     H_    0.270710 0.608881 0.604048 0.209310
C37   C     C_3   0.855667 0.544035 0.061915 -0.738865
H14   H     H_    0.799745 0.560807 0.022520 0.236318
H15   H     H_    0.793240 0.470845 0.103838 0.228083
H16   H     H_    0.897062 0.622998 0.116901 0.238111
C38   C     C_3   0.431599 0.740253 0.720884 -0.863735
H17   H     H_    0.344692 0.751067 0.730985 0.226635
H18   H     H_    0.432819 0.719650 0.793062 0.239260
H19   H     H_    0.509657 0.824190 0.706272 0.240161
C39   C     C_3   0.948670 0.122945 0.317864 -0.854370
H20   H     H_    0.007229 0.138281 0.372577 0.245842
H21   H     H_    0.961798 0.054651 0.254533 0.223664
H22   H     H_    0.979273 0.202118 0.284923 0.226784
N3    N     N_R   0.552254 0.753044 0.264471 0.110856
O9    O     O_R   0.491294 0.694755 0.190595 -0.364621
O10   O     O_R   0.627486 0.718117 0.281597 -0.374316
C40   C     C_3   0.444195 0.205115 0.539125 -0.902174
H23   H     H_    0.478209 0.253909 0.611055 0.236143
H24   H     H_    0.520347 0.225475 0.472637 0.237838
H25   H     H_    0.377840 0.236049 0.530240 0.240458

loop_
_geom_bond_atom_site_label_1
_geom_bond_atom_site_label_2
_geom_bond_distance
_ccdc_geom_bond_type
C38   H18   1.110338 S    
C6    H1    1.087061 S    
C22   H3    1.078355 S    
Cu2   N2    2.029198 S    
Cu1   Cu2   2.708168 S    
C40   H23   1.110073 S    
C5    C9    1.199660 T    
C11   C23   1.398855 A    
C17   C24   1.417318 A    
C14   C15   1.399785 A    
C31   C35   1.419794 A    
N3    O10   1.301525 A    
C16   C17   1.418082 A    
C20   N3    1.436811 S    
C18   C19   1.421671 A    
C7    C37   1.508314 S    
O7    C4    1.301736 A    
C14   H5    1.083894 S    
C38   H19   1.110460 S    
C17   C21   1.408223 A    
O5    C3    1.307082 A    
C25   C36   1.385077 A    
C37   H15   1.110678 S    
C34   H13   1.060636 S    
C28   C29   1.411145 A    
C26   N2    1.357516 A    
C6    C7    1.342044 D    
C13   H4    1.083505 S    
C39   H20   1.109825 S    
C29   C31   1.437943 A    
C38   H17   1.111011 S    
C25   H8    1.081269 S    
O3    Cu1   1.917872 S    
C31   C32   1.423980 A    
C40   H24   1.108760 S    
C26   H10   1.077382 S    
C21   H6    1.080088 S    
C11   C19   1.405241 A    
C18   C22   1.402528 A    
C32   C33   1.407456 A    
C12   C23   1.415576 A    
C23   C39   1.505464 S    
O3    C2    1.299389 A    
N3    O9    1.301236 A    
C13   C14   1.386367 A    
C26   C27   1.390225 A    
C12   C22   1.396870 A    
C3    C12   1.476838 S    
O1    C1    1.305754 A    
Cu1   O7    1.918161 S    
C37   H14   1.111185 S    
H7    C36   1.081902 S    
C19   C20   1.407692 A    
C4    C5    1.424053 S    
Cu2   O8    1.917871 S    
C39   H22   1.110019 S    
C7    C8    1.435373 S    
Cu1   N1    2.041079 S    
C29   C30   1.427107 A    
O8    C4    1.299703 A    
C33   C38   1.513541 S    
C33   C34   1.393619 A    
C40   H25   1.110833 S    
Cu1   O5    1.926140 S    
C27   C28   1.391974 A    
C37   H16   1.110647 S    
C27   H12   1.082580 S    
O1    Cu1   1.937740 S    
O2    Cu2   1.926139 S    
C15   C40   1.510452 S    
O6    C3    1.304646 A    
O4    Cu2   1.918162 S    
C30   N2    1.387401 A    
C2    C10   1.424501 S    
C20   C21   1.389862 A    
C16   C18   1.426780 A    
O2    C1    1.304690 A    
N1    C36   1.351318 A    
O4    C2    1.302179 A    
C1    C24   1.474319 S    
C6    C9    1.435223 S    
C30   C34   1.403300 A    
C8    C10   1.200006 T    
C13   C24   1.398933 A    
C28   H11   1.077289 S    
N1    C35   1.363827 A    
Cu2   O6    1.937742 S    
C15   C16   1.432770 A    
C11   H2    1.081432 S    
C39   H21   1.110955 S    
C25   C32   1.409594 A    
C35   H9    1.076053 S    
