data_mof_unit_52975.cif
_audit_creation_date              2012-12-11T14:06:38-0500
_audit_creation_method            fapswitch 2.2
_symmetry_space_group_name_H-M    P1
_symmetry_Int_Tables_number       1
_space_group_crystal_system       triclinic
_cell_length_a                    6.91882
_cell_length_b                    17.337507
_cell_length_c                    24.120666
_cell_angle_alpha                 104.63568
_cell_angle_beta                  90.193623
_cell_angle_gamma                 90.025035
_cell_volume                      2799.49328498

loop_
_atom_site_label
_atom_site_type_symbol
_atom_type_description
_atom_site_fract_x
_atom_site_fract_y
_atom_site_fract_z
_atom_type_partial_charge
O1    O     O_R   0.494290 0.391990 0.999150 -0.532469
O2    O     O_R   0.827170 0.534410 0.082350 -0.543675
O3    O     O_R   0.994360 0.608010 0.000850 -0.546522
C1    C     C_R   0.658439 0.549878 0.105856 0.708194
O4    O     O_R   0.824210 0.388010 0.004470 -0.535179
O5    O     O_R   0.991370 0.460560 0.922410 -0.540218
C2    C     C_R   0.653926 0.355146 0.001423 0.801918
O6    O     O_R   0.497270 0.539440 0.077590 -0.537402
O7    O     O_3   0.659770 0.523970 0.973170 -0.372676
V1    V     V_3+5 0.935840 0.495550 0.004980 1.487794
O8    O     O_R   0.320910 0.465590 0.917650 -0.530898
C3    C     C_R   0.151768 0.451355 0.893751 0.737638
O9    O     O_R   0.323870 0.611990 0.995530 -0.539114
C4    C     C_R   0.154353 0.645092 0.998370 0.780129
V2    V     V_3+5 0.435470 0.504450 0.995020 1.512637
O10   O     O_3   0.161670 0.476030 0.026830 -0.370499
C5    C     C_2   0.142742 0.730117 0.997802 -0.307860
H1    H     H_    0.277403 0.760864 0.994448 0.172758
C6    C     C_2   0.972670 0.769695 0.001676 -0.338898
H2    H     H_    0.837985 0.738919 0.004945 0.154027
C7    C     C_R   0.146454 0.249792 0.623588 0.634666
N1    N     N_R   0.122478 0.329491 0.647484 -0.548524
C8    C     C_R   0.081131 0.380915 0.614270 0.634404
C9    C     C_R   0.080998 0.354154 0.553392 -0.083365
C10   C     C_R   0.100048 0.271430 0.528563 -0.013679
C11   C     C_R   0.130082 0.218922 0.564096 -0.022822
C12   C     C_R   0.061371 0.406440 0.516704 -0.055560
C13   C     C_R   0.059761 0.375687 0.456437 -0.128802
C14   C     C_R   0.064535 0.291992 0.431749 -0.060964
C15   C     C_R   0.085823 0.240369 0.468306 -0.003011
C16   C     C_R   0.093428 0.157017 0.444710 -0.016754
C17   C     C_R   0.122791 0.105979 0.480779 -0.130668
C18   C     C_R   0.143070 0.136607 0.539607 -0.128501
C19   C     C_R   0.047794 0.257315 0.371732 0.595705
N2    N     N_R   0.044119 0.176133 0.350377 -0.543599
C20   C     C_R   0.069194 0.126117 0.385458 0.641223
O11   O     O_2   0.185589 0.200457 0.657408 -0.492846
O12   O     O_2   0.037607 0.457137 0.640562 -0.493519
O13   O     O_2   0.033026 0.303702 0.334696 -0.509553
O14   O     O_2   0.068135 0.046463 0.363091 -0.508094
H3    H     H_    0.130525 0.041968 0.463668 0.171955
H4    H     H_    0.165948 0.095278 0.565951 0.160709
C21   C     C_R   0.164490 0.101173 0.256766 -0.081530
H5    H     H_    0.299296 0.092099 0.277151 0.151182
C22   C     C_R   0.144374 0.071290 0.197828 -0.167799
H6    H     H_    0.263778 0.038245 0.174250 0.141393
C23   C     C_R   0.974267 0.083773 0.169418 -0.101926
C24   C     C_R   0.820465 0.127143 0.202054 -0.157043
C25   C     C_R   0.837636 0.154733 0.262602 -0.014939
C26   C     C_R   0.013616 0.142821 0.289636 0.312113
C27   C     C_R   0.284823 0.413451 0.734413 -0.059636
C28   C     C_R   0.284893 0.447023 0.794643 -0.118741
C29   C     C_R   0.142609 0.422886 0.829694 -0.171400
C30   C     C_R   0.996740 0.368514 0.802771 -0.074277
C31   C     C_R   0.994250 0.338778 0.743363 -0.071752
H7    H     H_    0.880056 0.298357 0.723179 0.155471
C32   C     C_R   0.136509 0.359843 0.709010 0.295239
C33   C     C_R   0.677549 0.843656 0.620759 0.616862
N3    N     N_R   0.515296 0.827205 0.648378 -0.556054
C34   C     C_R   0.371123 0.779639 0.618666 0.668880
C35   C     C_R   0.385281 0.747779 0.558905 -0.044267
C36   C     C_R   0.550690 0.764164 0.529984 -0.024376
C37   C     C_R   0.698454 0.812497 0.561020 -0.035840
C38   C     C_R   0.237470 0.700584 0.527380 -0.104767
C39   C     C_R   0.253447 0.669842 0.468108 -0.130380
C40   C     C_R   0.418446 0.685211 0.438730 -0.029080
C41   C     C_R   0.567810 0.732439 0.469847 -0.010848
C42   C     C_R   0.733531 0.748486 0.440909 -0.032755
C43   C     C_R   0.879826 0.797116 0.472308 -0.154253
C44   C     C_R   0.862504 0.828729 0.531550 -0.145546
C45   C     C_R   0.437200 0.655232 0.378871 0.611603
N4    N     N_R   0.600590 0.670410 0.351210 -0.570581
C46   C     C_R   0.747976 0.715823 0.381167 0.603920
O15   O     O_2   0.818220 0.889907 0.650918 -0.489905
O16   O     O_2   0.213687 0.763777 0.646759 -0.485621
H8    H     H_    0.107449 0.688301 0.548369 0.168742
H9    H     H_    0.134974 0.634717 0.445385 0.183299
O17   O     O_2   0.292736 0.611672 0.348559 -0.492625
O18   O     O_2   0.907968 0.729515 0.353284 -0.499856
H10   H     H_    0.008623 0.810841 0.451232 0.176959
H11   H     H_    0.978609 0.865660 0.554179 0.184685
C47   C     C_R   0.588775 0.690855 0.252761 -0.002339
C48   C     C_R   0.603415 0.661124 0.193043 -0.236647
H12   H     H_    0.580383 0.700669 0.165257 0.108367
C49   C     C_R   0.648033 0.580782 0.168863 -0.044478
C50   C     C_R   0.674393 0.529710 0.204998 -0.202431
H13   H     H_    0.704998 0.467170 0.186455 0.141821
C51   C     C_R   0.656144 0.558347 0.264768 -0.026522
C52   C     C_R   0.615848 0.639757 0.289429 0.292939
C53   C     C_R   0.554438 0.812420 0.746307 -0.096450
H14   H     H_    0.609028 0.753102 0.727236 0.177689
C54   C     C_R   0.540162 0.839822 0.806217 -0.068075
C55   C     C_R   0.466608 0.917475 0.830647 -0.166627
C56   C     C_R   0.408251 0.965591 0.793958 -0.161296
C57   C     C_R   0.423757 0.936907 0.733365 -0.026833
C58   C     C_R   0.496673 0.859338 0.709769 0.285704
C59   C     C_2   0.638984 0.268318 0.994355 -0.289033
C60   C     C_2   0.477553 0.233274 0.010529 -0.239409
O19   O     O_R   0.618210 0.960470 0.922400 -0.534685
O20   O     O_R   0.291310 0.111960 0.995450 -0.514265
O21   O     O_R   0.124210 0.039530 0.077580 -0.536441
C61   C     C_R   0.461456 0.145396 0.999969 0.744095
O22   O     O_R   0.288310 0.965490 0.917650 -0.536304
O23   O     O_R   0.121180 0.892010 0.999220 -0.539105
C62   C     C_R   0.456920 0.949588 0.894119 0.765148
O24   O     O_R   0.621230 0.107990 0.000760 -0.543237
O25   O     O_3   0.455770 0.976060 0.026840 -0.379658
V3    V     V_3+5 0.179680 0.004440 0.995020 1.546991
O26   O     O_R   0.791670 0.888040 0.004570 -0.540134
C63   C     C_R   0.961128 0.854832 0.001420 0.776198
O27   O     O_R   0.794680 0.034510 0.082370 -0.549324
C64   C     C_R   0.963348 0.051657 0.105944 0.708701
V4    V     V_3+5 0.680070 0.995560 0.005010 1.503200
O28   O     O_3   0.953840 0.023940 0.973160 -0.360506
C65   C     C_2   0.672444 0.194708 0.298055 0.779696
O29   O     O_2   0.636209 0.179120 0.343631 -0.558716
O30   O     O_R   0.559302 0.250441 0.279742 -0.633851
H15   H     H_    0.451996 0.273103 0.307626 0.325518
C66   C     C_2   0.436621 0.434895 0.697321 0.860389
O31   O     O_2   0.516373 0.382587 0.661015 -0.550745
O32   O     O_R   0.486104 0.514797 0.703254 -0.620661
H16   H     H_    0.590577 0.521532 0.675465 0.340099
C67   C     C_2   0.432346 0.508065 0.820416 0.847008
O33   O     O_2   0.381628 0.572945 0.850101 -0.546061
O34   O     O_R   0.628664 0.491310 0.810514 -0.659025
H17   H     H_    0.714965 0.537130 0.830742 0.298067
C68   C     C_1   0.847349 0.340488 0.834616 0.396748
N5    N     N_1   0.726618 0.318007 0.859723 -0.357283
C69   C     C_1   0.541593 0.773783 0.275852 0.363891
N6    N     N_1   0.503728 0.840300 0.294432 -0.298493
C70   C     C_1   0.673341 0.502839 0.300065 0.417553
N7    N     N_1   0.685342 0.458035 0.328241 -0.264774
C71   C     C_2   0.599377 0.784444 0.841474 0.792131
O35   O     O_2   0.530916 0.790666 0.889078 -0.565793
O36   O     O_R   0.731165 0.723329 0.819347 -0.640297
H18   H     H_    0.760241 0.689591 0.847108 0.307161
C72   C     C_1   0.331170 0.044481 0.818924 0.381562
N8    N     N_1   0.269840 0.107426 0.838956 -0.293441
C73   C     C_2   0.365181 0.987339 0.694471 0.846717
O37   O     O_2   0.403024 0.058571 0.706980 -0.515745
O38   O     O_R   0.267592 0.953294 0.643290 -0.648458
H19   H     H_    0.236281 0.993485 0.620524 0.301394
C74   C     C_1   0.791106 0.221585 0.960346 0.420066
N9    N     N_1   0.912269 0.184593 0.932993 -0.285596
C75   C     C_2   0.327862 0.281037 0.048689 0.815869
O39   O     O_2   0.157470 0.262215 0.042120 -0.554563
O40   O     O_R   0.383137 0.345477 0.093741 -0.657875
H20   H     H_    0.268902 0.372693 0.116831 0.300034
C76   C     C_2   0.045233 0.493997 0.539941 0.849100
O41   O     O_2   0.184023 0.532451 0.563581 -0.520068
O42   O     O_R   0.871301 0.531951 0.533637 -0.650661
H21   H     H_    0.874518 0.591246 0.552276 0.297755
C77   C     C_1   0.061690 0.431958 0.420914 0.449248
N10   N     N_1   0.064728 0.477095 0.392850 -0.269720
C78   C     C_1   0.647556 0.145067 0.173596 0.376327
N11   N     N_1   0.510077 0.159744 0.150772 -0.334199

loop_
_geom_bond_atom_site_label_1
_geom_bond_atom_site_label_2
_ccdc_geom_bond_type
O23   C63   A    
C31   H7    S    
C55   C56   A    
C57   C58   A    
C54   C71   S    
C9    C12   A    
C1    O6    A    
N1    C32   S    
C75   O39   D    
C13   C77   S    
C76   O41   D    
O36   H18   S    
C29   C30   A    
O21   C64   A    
C36   C37   A    
C47   C52   A    
C36   C41   A    
C18   H4    S    
C13   C14   A    
C69   N6    T    
C76   O42   S    
C49   C50   A    
C15   C16   A    
C28   C67   S    
C50   C51   A    
C67   O34   S    
V2    O10   S    
C33   C37   A    
C19   N2    A    
V3    O28   S    
C44   H11   S    
C59   C74   S    
O40   H20   S    
C55   C62   S    
O8    V2    S    
O25   V4    S    
C48   H12   S    
C42   C43   A    
C65   O30   S    
C27   C66   S    
O42   H21   S    
O22   V3    S    
C27   C32   A    
O7    V1    S    
C3    C29   S    
O26   V4    S    
O21   V3    S    
C22   C23   A    
C40   C41   A    
N3    C34   A    
C12   C76   S    
O9    C4    A    
C4    C5    S    
C43   C44   A    
O30   H15   S    
N1    C8    A    
C75   O40   S    
C7    C11   A    
C59   C60   D    
C66   O32   S    
C38   H8    S    
O19   C62   A    
C73   O37   D    
O20   V3    S    
C39   H9    S    
O24   V4    S    
C19   O13   S    
C23   C24   A    
C67   O33   D    
C9    C10   A    
O22   C62   A    
O4    C2    A    
C50   H13   S    
C1    C49   S    
C10   C11   A    
C22   H6    S    
C14   C19   A    
C47   C48   A    
C41   C42   A    
C34   C35   A    
N2    C20   A    
C35   C38   A    
O2    C1    A    
C21   H5    S    
O19   V4    S    
C14   C15   A    
C11   C18   A    
C53   C54   A    
C40   C45   A    
C37   C44   A    
C20   O14   S    
C8    C9    A    
N2    C26   S    
O20   C61   A    
C5    H1    S    
C46   O18   S    
C7    O11   S    
C56   C57   A    
O27   V4    S    
C47   C69   S    
C21   C22   A    
O32   H16   S    
O3    C4    A    
O1    V2    S    
C24   C25   A    
C48   C49   A    
C24   C78   S    
C39   C40   A    
O6    V2    S    
C31   C32   A    
O34   H17   S    
C33   N3    A    
N3    C58   S    
O25   V3    S    
C68   N5    T    
O2    V1    S    
O23   V3    S    
C28   C29   A    
C33   O15   S    
V4    O28   S    
C72   N8    T    
C6    C63   S    
C10   C15   A    
C30   C31   A    
C2    C59   S    
O27   C64   A    
C25   C65   S    
O1    C2    A    
C17   H3    S    
C16   C17   A    
N4    C46   A    
C70   N7    T    
O5    V1    S    
C66   O31   D    
C21   C26   A    
C53   C58   A    
C60   C75   S    
C8    O12   S    
C30   C68   S    
C34   O16   S    
C57   C73   S    
C17   C18   A    
C6    H2    S    
O9    V2    S    
C74   N9    T    
C42   C46   A    
C27   C28   A    
O3    V1    S    
C60   C61   S    
O38   H19   S    
C38   C39   A    
O5    C3    A    
N4    C52   S    
C73   O38   S    
C53   H14   S    
C71   O35   D    
C54   C55   A    
C5    C6    D    
C61   O24   A    
O7    V2    S    
C35   C36   A    
O4    V1    S    
C45   N4    A    
C51   C52   A    
C25   C26   A    
O26   C63   A    
C78   N11   T    
C71   O36   S    
C56   C72   S    
C16   C20   A    
C43   H10   S    
V1    O10   S    
C51   C70   S    
C65   O29   D    
C77   N10   T    
C7    N1    A    
C45   O17   S    
C23   C64   S    
O8    C3    A    
C12   C13   A    
