data_mof_unit_33015.cif
_audit_creation_date              2012-12-11T16:53:40-0500
_audit_creation_method            fapswitch 2.2
_symmetry_space_group_name_H-M    P1
_symmetry_Int_Tables_number       1
_space_group_crystal_system       triclinic
_cell_length_a                    26.240088
_cell_length_b                    7.163252
_cell_length_c                    24.013084
_cell_angle_alpha                 89.894113
_cell_angle_beta                  101.194687
_cell_angle_gamma                 90.042217
_cell_volume                      4427.71653291

loop_
_atom_site_label
_atom_site_type_symbol
_atom_type_description
_atom_site_fract_x
_atom_site_fract_y
_atom_site_fract_z
_atom_type_partial_charge
O1    O     O_R   0.297620 0.601080 0.203310 -0.538416
O2    O     O_R   0.702380 0.398920 0.796690 -0.538670
O3    O     O_R   0.202380 0.101080 0.296690 -0.537577
O4    O     O_R   0.797620 0.898920 0.703310 -0.537313
O5    O     O_R   0.192690 0.268060 0.187220 -0.527152
O6    O     O_R   0.807310 0.731940 0.812780 -0.532401
O7    O     O_R   0.307310 0.768060 0.312780 -0.532400
O8    O     O_R   0.692690 0.231940 0.687220 -0.532144
C1    C     C_R   0.174463 0.439895 0.172170 0.697013
C2    C     C_R   0.825488 0.560063 0.827894 0.700807
C3    C     C_R   0.325524 0.939760 0.327873 0.699479
C4    C     C_R   0.674471 0.060242 0.672133 0.700737
O9    O     O_R   0.296630 0.271160 0.196520 -0.541727
O10   O     O_R   0.703370 0.728840 0.803480 -0.541680
O11   O     O_R   0.203370 0.771160 0.303480 -0.542066
O12   O     O_R   0.796630 0.228840 0.696520 -0.540844
O13   O     O_R   0.307060 0.104040 0.306060 -0.529633
O14   O     O_R   0.692940 0.895960 0.693940 -0.528860
O15   O     O_R   0.192940 0.604040 0.193940 -0.528716
O16   O     O_R   0.807060 0.395960 0.806060 -0.528890
C5    C     C_R   0.312375 0.440284 0.184311 0.685597
C6    C     C_R   0.687634 0.559728 0.815697 0.683609
C7    C     C_R   0.187708 0.939944 0.315676 0.682283
C8    C     C_R   0.812249 0.060055 0.684262 0.683318
O17   O     O_3   0.253300 0.435560 0.285930 -0.373724
O18   O     O_3   0.746700 0.564440 0.714070 -0.371808
O19   O     O_3   0.246700 0.935560 0.214070 -0.370528
O20   O     O_3   0.753300 0.064440 0.785930 -0.373088
V1    V     V_3+5 0.249390 0.159480 0.243340 1.428737
V2    V     V_3+5 0.750610 0.840520 0.756660 1.415151
V3    V     V_3+5 0.250610 0.659480 0.256660 1.419967
V4    V     V_3+5 0.749390 0.340520 0.743340 1.416724
C9    C     C_R   0.854513 0.885018 0.614729 -0.191807
C10   C     C_R   0.145648 0.114350 0.385432 -0.194148
C11   C     C_R   0.635173 0.373859 0.873764 -0.187237
C12   C     C_R   0.364941 0.626433 0.126469 -0.180600
C13   C     C_R   0.890262 0.873341 0.578525 -0.090243
C14   C     C_R   0.109383 0.126966 0.421003 -0.079763
C15   C     C_R   0.598939 0.361833 0.909381 -0.087252
C16   C     C_R   0.401359 0.638814 0.091092 -0.083080
C17   C     C_R   0.923183 0.024333 0.572782 0.133666
C18   C     C_R   0.075426 0.977982 0.425457 0.147565
C19   C     C_R   0.575935 0.523586 0.926423 0.138622
C20   C     C_R   0.424698 0.477385 0.074240 0.159986
C21   C     C_R   0.918216 0.189482 0.603023 -0.167020
C22   C     C_R   0.080157 0.813192 0.394966 -0.165608
C23   C     C_R   0.590751 0.698112 0.907809 -0.162978
C24   C     C_R   0.409542 0.302676 0.092419 -0.156910
C25   C     C_R   0.881734 0.202436 0.638448 -0.163609
C26   C     C_R   0.117160 0.799196 0.360177 -0.166981
C27   C     C_R   0.627177 0.710437 0.872310 -0.162857
C28   C     C_R   0.372933 0.289959 0.127706 -0.158953
C29   C     C_R   0.849779 0.049626 0.645190 -0.046166
C30   C     C_R   0.149940 0.950545 0.354449 -0.046182
C31   C     C_R   0.649729 0.548294 0.854522 -0.049107
C32   C     C_R   0.350357 0.451890 0.145573 -0.050228
C33   C     C_R   0.968722 0.161729 0.499426 -0.311901
C34   C     C_R   0.029108 0.842051 0.497999 -0.312725
C35   C     C_R   0.541448 0.628226 0.011394 -0.312293
C36   C     C_R   0.459734 0.372548 0.989603 -0.328392
C37   C     C_R   0.004373 0.153343 0.462008 0.491706
C38   C     C_R   0.993381 0.850564 0.534447 0.469502
C39   C     C_R   0.504832 0.622603 0.047504 0.492111
C40   C     C_R   0.494917 0.384314 0.952565 0.474230
C41   C     C_R   0.035809 0.992529 0.462468 -0.077630
C42   C     C_R   0.962170 0.010966 0.534977 -0.076688
C43   C     C_R   0.463930 0.490861 0.036894 -0.074772
C44   C     C_R   0.536843 0.511151 0.963849 -0.073016
C45   C     C_R   0.462015 0.864915 0.504660 0.303309
C46   C     C_R   0.537944 0.135140 0.495393 0.301355
C47   C     C_R   0.035787 0.359373 0.998340 0.345165
C48   C     C_R   0.960092 0.631296 0.006331 0.320998
C49   C     C_R   0.455123 0.981761 0.456447 -0.190625
C50   C     C_R   0.544838 0.018283 0.543603 -0.190332
C51   C     C_R   0.042754 0.477466 0.046142 -0.202535
C52   C     C_R   0.953378 0.513463 0.958396 -0.204882
C53   C     C_R   0.492490 0.120456 0.452719 0.322277
C54   C     C_R   0.507469 0.879604 0.547336 0.320942
C55   C     C_R   0.004356 0.612805 0.050257 0.358824
C56   C     C_R   0.990335 0.372812 0.955672 0.309558
C57   C     C_1   0.409137 0.962670 0.411275 0.120352
C58   C     C_1   0.590834 0.037346 0.588763 0.119040
C59   C     C_1   0.089840 0.462017 0.090042 0.132039
C60   C     C_1   0.908287 0.534826 0.912203 0.114071
C61   C     C_1   0.629042 0.050003 0.626540 -0.187331
C62   C     C_1   0.370941 0.950003 0.373482 -0.185482
C63   C     C_1   0.870580 0.548982 0.873864 -0.191816
C64   C     C_1   0.128668 0.450266 0.127059 -0.182979
H1    H     H_    0.830070 0.765413 0.618305 0.127967
H2    H     H_    0.170789 0.232627 0.382693 0.127056
H3    H     H_    0.651863 0.245750 0.861489 0.127290
H4    H     H_    0.348119 0.754413 0.138649 0.126925
H5    H     H_    0.891714 0.746225 0.554579 0.139631
H6    H     H_    0.108272 0.253299 0.445411 0.139301
H7    H     H_    0.589242 0.225676 0.924028 0.131609
H8    H     H_    0.410863 0.775131 0.076423 0.119713
H9    H     H_    0.943094 0.308213 0.599919 0.145445
H10   H     H_    0.054692 0.695698 0.397404 0.141340
H11   H     H_    0.573561 0.825217 0.920137 0.126171
H12   H     H_    0.426441 0.175620 0.079816 0.103678
H13   H     H_    0.879297 0.331021 0.661443 0.128307
H14   H     H_    0.119317 0.671195 0.336809 0.125795
H15   H     H_    0.637230 0.847150 0.858412 0.125434
H16   H     H_    0.362723 0.153085 0.141332 0.124900
H17   H     H_    0.945460 0.285575 0.500707 0.153996
H18   H     H_    0.052627 0.717554 0.498540 0.166670
H19   H     H_    0.574587 0.720714 0.021134 0.143059
H20   H     H_    0.428212 0.272629 0.980476 0.151163
O21   O     O_3   0.011561 0.301397 0.426539 -0.560515
C65   C     C_3   0.964696 0.393276 0.403159 -0.279990
H21   H     H_    0.955114 0.498947 0.433329 0.157131
H22   H     H_    0.931902 0.293962 0.389943 0.134462
H23   H     H_    0.970292 0.469513 0.364545 0.159746
O22   O     O_3   0.988506 0.698657 0.568581 -0.563702
C66   C     C_3   0.025591 0.715420 0.619312 -0.264178
H24   H     H_    0.019507 0.845245 0.642610 0.144221
H25   H     H_    0.065864 0.710917 0.611030 0.137160
H26   H     H_    0.021014 0.595357 0.647173 0.162198
O23   O     O_3   0.511312 0.729263 0.096679 -0.548241
C67   C     C_3   0.519664 0.919029 0.085008 -0.261559
H27   H     H_    0.494360 0.967912 0.044870 0.127498
H28   H     H_    0.561213 0.944650 0.084032 0.148847
H29   H     H_    0.510060 0.004501 0.120032 0.172910
O24   O     O_3   0.488839 0.266588 0.906240 -0.559434
C68   C     C_3   0.455471 0.353617 0.860506 -0.249350
H30   H     H_    0.471984 0.488111 0.848825 0.144880
H31   H     H_    0.416122 0.376190 0.870167 0.132362
H32   H     H_    0.451051 0.260523 0.823011 0.166009
O25   O     O_3   0.513699 0.765911 0.594809 -0.542581
C69   C     C_3   0.535514 0.595078 0.582107 -0.135760
H33   H     H_    0.572057 0.616079 0.565772 0.137021
H34   H     H_    0.507133 0.512563 0.551442 0.159906
H35   H     H_    0.545460 0.511776 0.621714 0.147924
O26   O     O_3   0.486257 0.234181 0.405253 -0.540356
C70   C     C_3   0.464426 0.404974 0.417963 -0.129125
H36   H     H_    0.492773 0.487405 0.448690 0.159213
H37   H     H_    0.427848 0.383906 0.434225 0.134071
H38   H     H_    0.454536 0.488397 0.378375 0.150831
O27   O     O_3   0.984015 0.256408 0.908945 -0.547005
C71   C     C_3   0.961416 0.088128 0.922697 -0.111556
H39   H     H_    0.923123 0.112948 0.934841 0.137745
H40   H     H_    0.987837 0.011914 0.957096 0.188415
H41   H     H_    0.954575 0.996992 0.884671 0.141544
O28   O     O_3   0.011122 0.739067 0.094705 -0.517394
C72   C     C_3   0.001966 0.649942 0.144414 -0.185353
H42   H     H_    0.038802 0.594023 0.169449 0.133790
H43   H     H_    0.972429 0.536180 0.136124 0.095281
H44   H     H_    0.987318 0.755636 0.171130 0.152255
O29   O     O_3   0.425549 0.728914 0.508895 -0.548235
C73   C     C_3   0.389943 0.802266 0.540148 -0.199254
H45   H     H_    0.369314 0.926351 0.518663 0.118110
H46   H     H_    0.409388 0.838261 0.584236 0.162544
H47   H     H_    0.360271 0.694148 0.543001 0.147758
O30   O     O_3   0.574407 0.271153 0.491160 -0.548878
C74   C     C_3   0.610022 0.197806 0.459919 -0.190339
H48   H     H_    0.590587 0.161854 0.415824 0.166249
H49   H     H_    0.630641 0.073695 0.481399 0.117485
H50   H     H_    0.639702 0.305912 0.457085 0.148637
O31   O     O_3   0.072385 0.223724 0.994402 -0.528723
C75   C     C_3   0.107288 0.295652 0.961927 -0.180990
H51   H     H_    0.127754 0.421805 0.982113 0.115926
H52   H     H_    0.087258 0.327903 0.917735 0.156397
H53   H     H_    0.137173 0.188117 0.959514 0.149262
O32   O     O_3   0.925514 0.775469 0.008625 -0.536930
C76   C     C_3   0.883711 0.706995 0.031785 -0.203492
H54   H     H_    0.896817 0.662624 0.076612 0.133945
H55   H     H_    0.863226 0.590071 0.006319 0.117714
H56   H     H_    0.855166 0.821340 0.031413 0.151070

loop_
_geom_bond_atom_site_label_1
_geom_bond_atom_site_label_2
_ccdc_geom_bond_type
C34   C38   A    
C70   H38   S    
C33   H17   S    
O1    C5    A    
C76   H54   S    
C74   H49   S    
O13   V1    S    
O3    C7    A    
C71   H41   S    
C33   C42   A    
C48   C52   A    
C37   O21   S    
C52   C60   S    
C72   H42   S    
C6    C31   S    
C70   H36   S    
O7    C3    A    
C26   C30   A    
C4    C61   S    
C40   C44   A    
O9    V1    S    
O32   C76   S    
C54   O25   S    
C71   H40   S    
C14   C18   A    
C48   C55   A    
C1    C64   S    
C25   H13   S    
C11   C15   A    
O4    C8    A    
O19   V1    S    
C3    C62   S    
C27   H15   S    
C66   H24   S    
O1    V3    S    
C23   H11   S    
O2    V4    S    
C18   C22   A    
C33   C37   A    
O3    V1    S    
C65   H21   S    
C65   H22   S    
C28   C32   A    
C1    O15   A    
C28   H16   S    
C55   O28   S    
C36   C43   A    
C2    O16   A    
C19   C44   S    
C66   H25   S    
C73   H47   S    
C46   C50   A    
C18   C41   S    
C60   C63   T    
C45   C49   A    
O14   V2    S    
C16   C20   A    
C57   C62   T    
C36   H20   S    
C67   H29   S    
C12   H4    S    
O11   C7    A    
C59   C64   T    
C22   H10   S    
O15   V3    S    
O12   C8    A    
C10   C14   A    
C74   H50   S    
C45   C54   A    
C50   C58   S    
C49   C57   S    
C47   C56   A    
C72   H43   S    
C67   H28   S    
O22   C66   S    
O5    V1    S    
C9    C29   A    
C24   H12   S    
O27   C71   S    
C39   C43   A    
C2    C63   S    
O7    V3    S    
C38   C42   A    
C11   C31   A    
O8    V4    S    
C75   H53   S    
C12   C16   A    
C71   H39   S    
O21   C65   S    
O18   V4    S    
C15   C19   A    
C8    C29   S    
O10   V2    S    
C35   H19   S    
C34   H18   S    
C75   H52   S    
C69   H34   S    
C10   H2    S    
O5    C1    A    
C12   C32   A    
C9    H1    S    
C35   C44   A    
C68   H32   S    
C39   O23   S    
C34   C41   A    
O31   C75   S    
C21   C25   A    
O8    C4    A    
C66   H26   S    
C14   H6    S    
C48   O32   S    
C13   H5    S    
O11   V3    S    
C65   H23   S    
C15   H7    S    
O30   C74   S    
O26   C70   S    
O6    V2    S    
C26   H14   S    
C76   H56   S    
C68   H30   S    
C73   H46   S    
C69   H35   S    
C53   O26   S    
C56   O27   S    
C72   H44   S    
C67   H27   S    
C7    C30   S    
O25   C69   S    
O16   V4    S    
C70   H37   S    
C3    O13   A    
C17   C21   A    
C46   O30   S    
O17   V3    S    
C52   C56   A    
O28   C72   S    
O6    C2    A    
C5    C32   S    
C23   C27   A    
O23   C67   S    
C38   O22   S    
C17   C42   S    
O12   V4    S    
C58   C61   T    
C47   O31   S    
C22   C26   A    
C35   C39   A    
C36   C40   A    
C45   O29   S    
C75   H51   S    
O10   C6    A    
O20   V2    S    
C69   H33   S    
C16   H8    S    
C40   O24   S    
O2    C6    A    
O9    C5    A    
C47   C51   A    
C10   C30   A    
C51   C59   S    
C19   C23   A    
C25   C29   A    
C27   C31   A    
C13   C17   A    
C9    C13   A    
C37   C41   A    
C24   C28   A    
C76   H55   S    
C50   C54   A    
C4    O14   A    
C74   H48   S    
C68   H31   S    
C49   C53   A    
C73   H45   S    
C20   C43   S    
C21   H9    S    
O29   C73   S    
C51   C55   A    
O4    V2    S    
C20   C24   A    
O24   C68   S    
C46   C53   A    
C11   H3    S    
