data_mof_unit_10751.cif
_audit_creation_date              2012-12-10T20:48:18-0500
_audit_creation_method            fapswitch 2.2
_symmetry_space_group_name_H-M    P1
_symmetry_Int_Tables_number       1
_space_group_crystal_system       triclinic
_cell_length_a                    10.948229
_cell_length_b                    8.898758
_cell_length_c                    8.274701
_cell_angle_alpha                 90.267721
_cell_angle_beta                  89.407258
_cell_angle_gamma                 90.22971
_cell_volume                      806.109779958

loop_
_atom_site_label
_atom_site_type_symbol
_atom_type_description
_atom_site_fract_x
_atom_site_fract_y
_atom_site_fract_z
_atom_type_partial_charge
C1    C     C_R   0.499261 0.218753 0.499787 0.991062
C2    C     C_1   0.498811 0.934549 0.500340 -0.092279
C3    C     C_3   0.076027 0.679596 0.503932 -0.235434
C4    C     C_3   0.927420 0.680708 0.478683 -0.177279
C5    C     C_3   0.121351 0.503368 0.502690 -0.112452
C6    C     C_3   0.878395 0.505777 0.497501 -0.101138
C7    C     C_2   0.121200 0.437932 0.826714 0.627261
C8    C     C_2   0.117849 0.506739 0.190905 0.378252
C9    C     C_2   0.888282 0.551768 0.806079 0.564896
C10   C     C_2   0.880041 0.414104 0.177354 0.635934
C11   C     C_2   0.107231 0.243230 0.641019 0.270084
C12   C     C_R   0.257960 0.500222 0.501170 0.754701
C13   C     C_2   0.139156 0.267766 0.303254 0.293249
C14   C     C_2   0.856306 0.290821 0.723946 0.326444
C15   C     C_2   0.885683 0.235080 0.377442 0.216665
C16   C     C_2   0.127846 0.760753 0.653674 0.632290
C17   C     C_2   0.143286 0.778814 0.379824 0.308565
C18   C     C_2   0.865423 0.799739 0.587579 0.535584
C19   C     C_2   0.886012 0.749523 0.317661 0.517075
C20   C     C_R   0.742046 0.502697 0.498955 1.002949
C21   C     C_R   0.499145 0.781211 0.500234 0.936931
C22   C     C_1   0.498852 0.065396 0.499690 -0.067458
C23   C     C_3   0.068895 0.409689 0.658669 -0.143829
C24   C     C_3   0.074511 0.418398 0.339417 -0.208168
C25   C     C_3   0.924342 0.438018 0.670546 -0.299939
C26   C     C_3   0.929039 0.397786 0.349650 -0.111927
H1    H     H_    0.098200 0.357510 0.920517 0.059542
H2    H     H_    0.221808 0.739569 0.312061 0.145560
H3    H     H_    0.900236 0.914047 0.585556 0.106570
H4    H     H_    0.947354 0.801745 0.232436 0.211061
H5    H     H_    0.204758 0.479942 0.134074 0.159752
H6    H     H_    0.796691 0.553727 0.855215 0.204818
H7    H     H_    0.907945 0.331180 0.087914 0.094551
H8    H     H_    0.047209 0.155410 0.602655 0.107755
H9    H     H_    0.219354 0.233396 0.368511 0.162097
H10   H     H_    0.865883 0.185136 0.662886 0.118374
H11   H     H_    0.946931 0.140967 0.383628 0.158791
H12   H     H_    0.223026 0.744671 0.682809 0.098761
N1    N     N_1   0.500000 0.500030 0.073640 0.009637
N2    N     N_1   0.500000 0.500030 0.926360 0.017872
O1    O     O_R   0.500000 0.285340 0.636850 -0.580941
O2    O     O_2   0.061099 0.609024 0.132204 -0.538768
O3    O     O_2   0.955285 0.648361 0.859351 -0.472769
O4    O     O_2   0.816414 0.516424 0.132147 -0.533322
O5    O     O_2   0.212312 0.204050 0.667128 -0.545654
O6    O     O_2   0.109854 0.190506 0.187171 -0.543436
O7    O     O_2   0.786355 0.286332 0.840039 -0.552568
O8    O     O_2   0.776800 0.204009 0.382562 -0.573521
O9    O     O_2   0.077000 0.862931 0.726004 -0.516714
O10   O     O_2   0.117721 0.911748 0.365933 -0.569403
O11   O     O_2   0.768259 0.779593 0.657631 -0.573243
O12   O     O_R   0.500000 0.285340 0.363150 -0.608202
O13   O     O_2   0.777560 0.766255 0.288368 -0.510542
O14   O     O_R   0.314790 0.499970 0.636880 -0.564863
O15   O     O_R   0.314790 0.499970 0.363120 -0.704589
O16   O     O_R   0.685210 0.499970 0.636880 -0.624484
O17   O     O_R   0.685210 0.499970 0.363120 -0.521197
O18   O     O_R   0.500000 0.714650 0.636900 -0.598171
O19   O     O_R   0.500000 0.714650 0.363100 -0.596794
O20   O     O_2   0.183589 0.545962 0.862929 -0.561208
Zn1   Zn    Zn3+2 0.500000 0.499990 0.682780 1.107638
Zn2   Zn    Zn3+2 0.500000 0.499990 0.317220 1.085574

loop_
_geom_bond_atom_site_label_1
_geom_bond_atom_site_label_2
_ccdc_geom_bond_type
C17   O10   D    
C2    C22   T    
C8    O2    D    
C13   H9    S    
C14   O7    D    
O14   Zn1   S    
C6    C20   S    
C1    C22   S    
C5    C23   S    
C19   H4    S    
O1    Zn1   S    
C20   O16   A    
C4    C18   S    
C19   O13   D    
O18   Zn1   S    
C9    C25   S    
C21   O18   A    
C18   H3    S    
O12   Zn2   S    
C4    C19   S    
C10   C26   S    
C6    C26   S    
C5    C24   S    
C15   O8    D    
C2    C21   S    
C7    C23   S    
C1    O1    A    
C8    C24   S    
C24   C26   S    
C18   O11   D    
C21   O19   A    
C10   H7    S    
C23   C25   S    
C14   C25   S    
C14   H10   S    
C13   O6    D    
C1    O12   A    
C12   O14   A    
C9    O3    D    
C12   O15   A    
C11   O5    D    
C3    C16   S    
C10   O4    D    
C3    C4    S    
C6    C25   S    
O15   Zn2   S    
C7    O20   D    
O17   Zn2   S    
C7    H1    S    
C16   O9    D    
C5    C12   S    
C4    C6    S    
C11   C23   S    
N1    N2    T    
N1    Zn2   S    
O16   Zn1   S    
C15   H11   S    
C15   C26   S    
O19   Zn2   S    
C9    H6    S    
C17   H2    S    
C20   O17   A    
C8    H5    S    
C11   H8    S    
C3    C17   S    
N2    Zn1   S    
C13   C24   S    
C16   H12   S    
C3    C5    S    
