data_mof_unit_46436.cif
_audit_creation_date              2012-12-11T16:29:34-0500
_audit_creation_method            fapswitch 2.2
_symmetry_space_group_name_H-M    P1
_symmetry_Int_Tables_number       1
_space_group_crystal_system       triclinic
_cell_length_a                    6.942546
_cell_length_b                    17.317114
_cell_length_c                    18.780798
_cell_angle_alpha                 105.874923
_cell_angle_beta                  89.481391
_cell_angle_gamma                 90.521284
_cell_volume                      2171.66389271

loop_
_atom_site_label
_atom_site_type_symbol
_atom_type_description
_atom_site_fract_x
_atom_site_fract_y
_atom_site_fract_z
_atom_type_partial_charge
O1    O     O_R   0.494360 0.415680 0.413760 -0.521133
O2    O     O_R   0.818810 0.432910 0.557230 -0.528961
O3    O     O_R   0.994290 0.584320 0.586240 -0.545388
C1    C     C_R   0.649616 0.416189 0.580810 0.733288
O4    O     O_R   0.823740 0.406440 0.412520 -0.535971
O5    O     O_R   0.999250 0.557660 0.440500 -0.532568
C2    C     C_R   0.654598 0.385115 0.383403 0.743475
O6    O     O_R   0.489400 0.442340 0.559500 -0.514538
O7    O     O_3   0.662500 0.549650 0.509350 -0.376334
V1    V     V_3+5 0.935340 0.490790 0.498270 1.387553
O8    O     O_R   0.329270 0.567090 0.442770 -0.528875
C3    C     C_R   0.161186 0.584132 0.419467 0.708962
O9    O     O_R   0.324340 0.593560 0.587480 -0.541301
C4    C     C_R   0.154036 0.614224 0.617142 0.725121
V2    V     V_3+5 0.435970 0.509210 0.501730 1.391539
O10   O     O_3   0.158940 0.450350 0.490650 -0.341029
C5    C     C_R   0.140093 0.589860 0.772604 0.051840
C6    C     C_R   0.073626 0.582152 0.842440 0.133993
C7    C     C_R   0.086309 0.649786 0.904519 0.096868
C8    C     C_R   0.155627 0.721845 0.893498 -0.105769
C9    C     C_R   0.140274 0.736189 0.822954 -0.013679
C10   C     C_R   0.142529 0.668162 0.759548 -0.009708
C11   C     C_R   0.129742 0.816270 0.815734 -0.123366
C12   C     C_R   0.133279 0.829391 0.743392 -0.009324
C13   C     C_R   0.111675 0.760978 0.681417 -0.010854
C14   C     C_R   0.137987 0.681374 0.687335 -0.153313
C15   C     C_R   0.159281 0.906572 0.727787 0.025028
C16   C     C_R   0.199266 0.905973 0.652953 -0.018443
C17   C     C_R   0.131158 0.841646 0.595065 0.109533
C18   C     C_R   0.052092 0.775028 0.614275 0.060051
C19   C     C_1   0.110879 0.864149 0.132835 -0.190058
C20   C     C_1   0.118222 0.821245 0.176144 -0.005445
C21   C     C_1   0.127501 0.770649 0.227679 0.000247
C22   C     C_1   0.135523 0.728108 0.271304 0.012492
C23   C     C_1   0.145119 0.677888 0.323162 0.012525
C24   C     C_1   0.153040 0.635630 0.367020 -0.231556
C25   C     C_1   0.640442 0.364369 0.632918 -0.214517
C26   C     C_1   0.636144 0.321811 0.676551 -0.011806
C27   C     C_1   0.632899 0.271498 0.728343 0.001524
C28   C     C_1   0.630568 0.228966 0.772019 0.010469
C29   C     C_1   0.627455 0.178431 0.823618 -0.000071
C30   C     C_1   0.623589 0.135546 0.866975 -0.199783
C31   C     C_R   0.642695 0.408865 0.229897 0.038530
C32   C     C_R   0.573202 0.417088 0.161716 -0.025163
C33   C     C_R   0.577738 0.350719 0.099202 0.070272
C34   C     C_R   0.645187 0.277963 0.107892 -0.101382
C35   C     C_R   0.636088 0.262862 0.178562 -0.007773
C36   C     C_R   0.642117 0.330332 0.242397 0.011255
C37   C     C_R   0.627766 0.182615 0.185196 -0.138169
C38   C     C_R   0.636388 0.168257 0.257036 0.006198
C39   C     C_R   0.626830 0.236326 0.321012 -0.001759
C40   C     C_R   0.641515 0.316713 0.314382 -0.147578
C41   C     C_R   0.653162 0.089291 0.269388 0.068983
C42   C     C_R   0.690522 0.084447 0.341608 -0.115981
C43   C     C_R   0.661944 0.149476 0.402830 0.107619
C44   C     C_R   0.600260 0.221677 0.391406 -0.088371
H1    H     H_    0.727127 0.028185 0.352231 0.140294
O11   O     O_R   0.775690 0.057750 0.940570 -0.511788
O12   O     O_R   0.441200 0.093570 0.087490 -0.537448
O13   O     O_R   0.265840 0.942320 0.059480 -0.511868
C45   C     C_R   0.610897 0.115578 0.115865 0.682715
O14   O     O_R   0.446270 0.067110 0.942790 -0.533663
O15   O     O_R   0.270950 0.915660 0.913750 -0.533638
C46   C     C_R   0.615180 0.083467 0.918873 0.726267
O16   O     O_R   0.770580 0.084400 0.086300 -0.534743
O17   O     O_3   0.602640 0.950400 0.990690 -0.346198
V3    V     V_3+5 0.329740 0.009200 0.001730 1.451655
O18   O     O_R   0.940900 0.906360 0.912450 -0.538996
C47   C     C_R   0.111618 0.883812 0.884614 0.684594
O19   O     O_R   0.935830 0.932820 0.057160 -0.535688
C48   C     C_R   0.103555 0.916300 0.080937 0.720040
V4    V     V_3+5 0.829130 0.990680 0.998180 1.445248
O20   O     O_3   0.106100 0.049590 0.009310 -0.346588
C49   C     C_3   0.122399 0.848093 0.515806 -0.358322
C50   C     C_3   0.316126 0.829917 0.475978 -0.761833
H2    H     H_    0.428475 0.873114 0.504001 0.236616
H3    H     H_    0.361396 0.767905 0.473465 0.225559
H4    H     H_    0.302493 0.834871 0.418546 0.224706
H5    H     H_    0.015933 0.805668 0.482362 0.188908
H6    H     H_    0.074777 0.909164 0.515674 0.183096
C51   C     C_3   0.755712 0.480034 0.276834 -0.381058
C52   C     C_3   0.625615 0.547640 0.320107 -0.651645
H7    H     H_    0.629380 0.598665 0.294915 0.212070
H8    H     H_    0.474704 0.526219 0.319513 0.217706
H9    H     H_    0.675214 0.570402 0.377928 0.231892
H10   H     H_    0.861033 0.462064 0.312582 0.184424
H11   H     H_    0.850154 0.504233 0.239685 0.179259
C53   C     C_1   0.518408 0.495061 0.154128 0.308067
N1    N     N_1   0.474290 0.557175 0.147895 -0.373105
C54   C     C_3   0.529568 0.358128 0.022430 -0.335980
C55   C     C_3   0.692039 0.398042 0.989521 -0.745634
H12   H     H_    0.718296 0.460461 0.023522 0.232809
H13   H     H_    0.827238 0.363435 0.985721 0.232915
H14   H     H_    0.651928 0.399905 0.932904 0.216216
H15   H     H_    0.501265 0.297677 0.984248 0.183324
H16   H     H_    0.394464 0.392693 0.024745 0.183033
C56   C     C_1   0.788606 0.237910 0.054617 0.297459
N2    N     N_1   0.908278 0.208824 0.012887 -0.342460
C57   C     C_3   0.633466 0.010306 0.208537 -0.344870
C58   C     C_3   0.618296 0.932514 0.232425 -0.777660
H17   H     H_    0.757195 0.918980 0.255158 0.222276
H18   H     H_    0.500437 0.936525 0.273676 0.229562
H19   H     H_    0.584956 0.881660 0.183346 0.237512
H20   H     H_    0.498192 0.012007 0.178258 0.188510
H21   H     H_    0.760073 0.003806 0.171626 0.200137
C59   C     C_1   0.453421 0.264130 0.441693 0.268191
N3    N     N_1   0.331799 0.295185 0.481496 -0.332252
C60   C     C_3   0.250907 0.519584 0.723810 -0.367156
C61   C     C_3   0.120529 0.453682 0.677502 -0.657952
H22   H     H_    0.118668 0.400594 0.699858 0.201011
H23   H     H_    0.971641 0.476033 0.677499 0.206750
H24   H     H_    0.173684 0.433222 0.619925 0.253691
H25   H     H_    0.358515 0.539755 0.689240 0.174729
H26   H     H_    0.344247 0.493740 0.758913 0.178402
C62   C     C_3   0.993096 0.502882 0.850870 -0.334499
C63   C     C_3   0.143082 0.452923 0.877664 -0.764876
H27   H     H_    0.237375 0.491115 0.920851 0.227240
H28   H     H_    0.068580 0.408440 0.901210 0.221517
H29   H     H_    0.234392 0.418971 0.831132 0.226472
H30   H     H_    0.868469 0.514721 0.889707 0.171837
H31   H     H_    0.927881 0.466506 0.798934 0.185953
C64   C     C_3   0.037767 0.646823 0.983239 -0.380871
C65   C     C_3   0.851746 0.692134 0.010234 -0.695546
H32   H     H_    0.865788 0.755857 0.009521 0.233279
H33   H     H_    0.729857 0.663779 0.974286 0.228774
H34   H     H_    0.819742 0.690381 0.067819 0.226681
H35   H     H_    0.020847 0.585192 0.988736 0.199416
H36   H     H_    0.156257 0.673604 0.021645 0.196326
C66   C     C_1   0.299822 0.764017 0.945005 0.278721
N4    N     N_1   0.419380 0.794893 0.985657 -0.334927
C67   C     C_3   0.138537 0.986489 0.787803 -0.346009
C68   C     C_3   0.098681 0.062571 0.763685 -0.734267
H37   H     H_    0.234201 0.088911 0.748830 0.241101
H38   H     H_    0.994190 0.050321 0.717405 0.231694
H39   H     H_    0.035755 0.108994 0.810967 0.222309
H40   H     H_    0.008004 0.981727 0.820432 0.188222
H41   H     H_    0.267858 0.997206 0.823206 0.192324
C69   C     C_1   0.308490 0.969783 0.634821 0.314209
N5    N     N_1   0.396749 0.020176 0.619678 -0.382549
C70   C     C_3   0.860258 0.739823 0.581610 -0.317693
C71   C     C_3   0.705061 0.804267 0.592588 -0.775005
H42   H     H_    0.698440 0.840044 0.651521 0.237094
H43   H     H_    0.733471 0.845177 0.557408 0.225303
H44   H     H_    0.562686 0.774970 0.577761 0.223833
H45   H     H_    0.875792 0.706999 0.522233 0.176707
H46   H     H_    0.802477 0.697548 0.611463 0.209580
C72   C     C_3   0.679047 0.137642 0.479724 -0.359806
C73   C     C_3   0.887738 0.122904 0.497209 -0.719014
H47   H     H_    0.942339 0.066636 0.458672 0.215682
H48   H     H_    0.980538 0.174045 0.492811 0.243871
H49   H     H_    0.896531 0.117182 0.554568 0.227180
H50   H     H_    0.628392 0.190980 0.523225 0.196757
H51   H     H_    0.587912 0.085827 0.483660 0.196486

loop_
_geom_bond_atom_site_label_1
_geom_bond_atom_site_label_2
_ccdc_geom_bond_type
C43   C44   A    
C7    C64   S    
C62   H31   S    
C15   C67   S    
C29   C30   T    
C11   C47   S    
C7    C8    A    
C12   C15   A    
C8    C66   S    
C1    O6    A    
C71   H43   S    
C56   N2    T    
C65   H32   S    
C35   C37   A    
C33   C34   A    
C41   C57   S    
C17   C18   A    
O14   V3    S    
C52   H9    S    
C16   C17   A    
C73   H48   S    
C2    C40   S    
C22   C23   S    
C61   H23   S    
O5    C3    A    
C26   C27   S    
C65   H33   S    
C59   N3    T    
C62   C63   S    
C60   C61   S    
C6    C7    A    
C60   H26   S    
C64   H35   S    
O14   C46   A    
C72   C73   S    
O12   V3    S    
C42   C43   A    
O8    V2    S    
O17   V4    S    
O15   C47   A    
O13   V3    S    
C63   H28   S    
C68   H37   S    
C11   C12   A    
C73   H49   S    
O19   C48   A    
V3    O20   S    
C3    C24   S    
C31   C36   A    
C51   H10   S    
C19   C48   S    
C57   H20   S    
C49   H6    S    
O9    C4    A    
C71   H42   S    
C51   C52   S    
O11   C46   A    
C57   H21   S    
O15   V3    S    
O12   C45   A    
C38   C41   A    
C37   C45   S    
C49   C50   S    
C39   C40   A    
C35   C36   A    
C54   H15   S    
C16   C69   S    
C12   C13   A    
C67   H40   S    
C5    C60   S    
C70   H46   S    
C55   H12   S    
O4    C2    A    
O18   C47   A    
C65   H34   S    
C17   C49   S    
O13   C48   A    
C38   C39   A    
C13   C14   A    
C41   C42   A    
C58   H19   S    
C4    C14   S    
C23   C24   T    
C60   H25   S    
C6    C62   S    
O2    C1    A    
C50   H2    S    
C25   C26   T    
C67   H41   S    
C55   H13   S    
C43   C72   S    
C57   C58   S    
O18   V4    S    
C8    C9    A    
C58   H18   S    
C5    C6    A    
C1    C25   S    
C33   C54   S    
C50   H3    S    
C44   C59   S    
C51   H11   S    
O3    C4    A    
O1    V2    S    
C28   C29   S    
C34   C56   S    
C37   C38   A    
O6    V2    S    
C52   H8    S    
C49   H5    S    
O9    V2    S    
C31   C32   A    
C31   C51   S    
C61   H24   S    
C67   C68   S    
O2    V1    S    
C30   C46   S    
C27   C28   T    
C32   C33   A    
C66   N4    T    
O7    V1    S    
C13   C18   A    
C34   C35   A    
O1    C2    A    
C19   C20   T    
C39   C44   A    
V4    O20   S    
C18   C70   S    
C70   H45   S    
O5    V1    S    
O8    C3    A    
C62   H30   S    
C54   H16   S    
C71   H44   S    
O16   V4    S    
C5    C10   A    
C63   H29   S    
C20   C21   S    
C9    C11   A    
C72   H50   S    
O7    V2    S    
O4    V1    S    
O3    V1    S    
V1    O10   S    
C61   H22   S    
C55   H14   S    
O11   V4    S    
C54   C55   S    
C68   H39   S    
C70   C71   S    
C58   H17   S    
C21   C22   T    
C63   H27   S    
O17   V3    S    
C32   C53   S    
C73   H47   S    
C64   H36   S    
C72   H51   S    
C50   H4    S    
C69   N5    T    
C45   O16   A    
C36   C40   A    
C53   N1    T    
C68   H38   S    
C52   H7    S    
C10   C14   A    
C15   C16   A    
O19   V4    S    
C64   C65   S    
C9    C10   A    
V2    O10   S    
C42   H1    S    
