data_mof_unit_25270.cif
_audit_creation_date              2013-03-05T15:42:34-0500
_audit_creation_method            fapswitch 2.2
_symmetry_space_group_name_H-M    P1
_symmetry_Int_Tables_number       1
_space_group_crystal_system       triclinic
_cell_length_a                    29.422741
_cell_length_b                    17.411838
_cell_length_c                    18.923241
_cell_angle_alpha                 89.896996
_cell_angle_beta                  139.447688
_cell_angle_gamma                 90.045278
_cell_volume                      6302.75818681

loop_
_atom_site_label
_atom_site_type_symbol
_atom_site_description
_atom_site_fract_x
_atom_site_fract_y
_atom_site_fract_z
_atom_type_partial_charge
C1    C     C_R   0.686701 0.898762 0.798448 -0.104018
C2    C     C_R   0.671211 0.079474 0.814205 -0.018810
C3    C     C_R   0.170132 0.420553 0.814416 -0.052473
C4    C     C_R   0.186594 0.600866 0.798992 -0.103064
H1    H     H_    0.736117 0.927628 0.849345 0.109110
H2    H     H_    0.718507 0.046266 0.874567 0.084585
H3    H     H_    0.218178 0.452321 0.876149 0.119333
H4    H     H_    0.236018 0.571788 0.850396 0.115707
N1    N     N_R   0.625250 0.928170 0.708660 -0.062380
N2    N     N_R   0.625250 0.071830 0.708660 -0.044196
N3    N     N_R   0.125250 0.428170 0.708660 -0.048221
N4    N     N_R   0.125250 0.571830 0.708660 -0.061348
C5    C     C_R   0.329176 0.101648 0.413083 -0.184811
C6    C     C_R   0.347551 0.914654 0.464054 -0.173815
C7    C     C_R   0.847107 0.585612 0.463100 -0.173592
C8    C     C_R   0.829122 0.398427 0.412988 -0.184103
H5    H     H_    0.278921 0.073510 0.351724 0.115005
H6    H     H_    0.302358 0.947512 0.426725 0.122010
H7    H     H_    0.801765 0.552928 0.425439 0.122474
H8    H     H_    0.778919 0.426770 0.351689 0.116286
N5    N     N_R   0.386350 0.070500 0.452620 -0.059363
N6    N     N_R   0.386350 0.929500 0.452620 -0.060962
N7    N     N_R   0.886350 0.570500 0.452620 -0.060918
N8    N     N_R   0.886350 0.429500 0.452620 -0.059759
C9    C     C_R   0.429712 0.821916 0.551989 0.328831
C10   C     C_R   0.409663 0.194424 0.501162 0.295132
C11   C     C_R   0.909487 0.305481 0.500796 0.295188
C12   C     C_R   0.929219 0.678340 0.550956 0.328837
N9    N     N_R   0.437960 0.869720 0.507940 -0.094963
N10   N     N_R   0.437960 0.130280 0.507940 -0.094268
N11   N     N_R   0.937960 0.369720 0.507940 -0.095585
N12   N     N_R   0.937960 0.630280 0.507940 -0.094995
C13   C     C_R   0.588258 0.170771 0.727090 -0.040131
C14   C     C_R   0.606454 0.807107 0.711519 -0.082021
C15   C     C_R   0.106256 0.692664 0.711817 -0.082162
C16   C     C_R   0.085757 0.331428 0.726041 -0.014867
H9    H     H_    0.559847 0.220774 0.710275 0.184547
H10   H     H_    0.583673 0.750991 0.684589 0.212837
H11   H     H_    0.083436 0.748801 0.685033 0.212862
H12   H     H_    0.056330 0.282099 0.707560 0.169495
N13   N     N_R   0.573630 0.128950 0.653340 -0.033660
N14   N     N_R   0.573630 0.871050 0.653340 -0.061729
N15   N     N_R   0.073630 0.628950 0.653340 -0.061448
N16   N     N_R   0.073630 0.371050 0.653340 -0.031285
C17   C     C_R   0.676243 0.823380 0.803712 0.076067
C18   C     C_R   0.650393 0.142598 0.828245 -0.039036
C19   C     C_R   0.147064 0.359566 0.827888 -0.055093
C20   C     C_R   0.175977 0.676136 0.804381 0.074900
C21   C     C_R   0.340943 0.179161 0.440367 -0.042973
C22   C     C_R   0.374223 0.848168 0.527495 -0.058305
C23   C     C_R   0.873442 0.652244 0.525805 -0.058674
C24   C     C_R   0.840748 0.320812 0.439986 -0.042568
C25   C     C_R   0.640190 0.079780 0.519366 -0.083023
C26   C     C_R   0.667382 0.896591 0.589206 -0.128104
C27   C     C_R   0.167354 0.603445 0.589075 -0.127091
C28   C     C_R   0.140454 0.420131 0.519832 -0.088206
H13   H     H_    0.682255 0.044399 0.549314 0.094559
H14   H     H_    0.716951 0.926011 0.648897 0.105038
H15   H     H_    0.216915 0.573906 0.648559 0.106144
H16   H     H_    0.182596 0.455417 0.549900 0.096874
N17   N     N_R   0.609990 0.071870 0.547380 -0.042718
N18   N     N_R   0.609990 0.928130 0.547380 -0.050536
N19   N     N_R   0.109990 0.571870 0.547380 -0.050085
N20   N     N_R   0.109990 0.428130 0.547380 -0.044975
C29   C     C_R   0.328463 0.916794 0.186169 -0.139500
C30   C     C_R   0.310905 0.108804 0.202788 -0.129947
C31   C     C_R   0.811361 0.391415 0.201119 -0.143986
C32   C     C_R   0.828943 0.582820 0.186316 -0.140295
H17   H     H_    0.281176 0.949964 0.123197 0.119307
H18   H     H_    0.261092 0.080501 0.150346 0.103678
H19   H     H_    0.760928 0.419142 0.145301 0.109225
H20   H     H_    0.781757 0.549640 0.123357 0.116900
N21   N     N_R   0.371090 0.922150 0.291340 -0.044270
N22   N     N_R   0.371090 0.077850 0.291340 -0.043809
N23   N     N_R   0.871090 0.422150 0.291340 -0.042114
N24   N     N_R   0.871090 0.577850 0.291340 -0.043547
C33   C     C_R   0.586846 0.804011 0.502510 -0.139997
C34   C     C_R   0.557448 0.171585 0.431976 -0.052969
C35   C     C_R   0.057792 0.328346 0.432574 -0.050531
C36   C     C_R   0.086789 0.696062 0.502462 -0.139562
H21   H     H_    0.563281 0.748111 0.481578 0.125221
H22   H     H_    0.522595 0.218833 0.380947 0.090467
H23   H     H_    0.023164 0.281016 0.381829 0.089551
H24   H     H_    0.063204 0.751948 0.481660 0.125126
N25   N     N_R   0.558380 0.869490 0.492060 -0.046500
N26   N     N_R   0.558380 0.130510 0.492060 -0.032739
N27   N     N_R   0.058380 0.369490 0.492060 -0.033535
N28   N     N_R   0.058380 0.630510 0.492060 -0.046564
C37   C     C_R   0.396138 0.190875 0.291492 -0.122360
C38   C     C_R   0.413796 0.832031 0.279394 -0.115790
C39   C     C_R   0.914118 0.667592 0.279326 -0.115873
C40   C     C_R   0.897342 0.309530 0.292139 -0.118435
H25   H     H_    0.424612 0.244181 0.321522 0.133466
H26   H     H_    0.446245 0.783414 0.304401 0.101482
H27   H     H_    0.946574 0.716127 0.304143 0.100887
H28   H     H_    0.926076 0.256237 0.324375 0.132672
N29   N     N_R   0.422710 0.124520 0.346660 -0.046197
N30   N     N_R   0.422710 0.875480 0.346660 -0.041939
N31   N     N_R   0.922710 0.624520 0.346660 -0.041925
N32   N     N_R   0.922710 0.375480 0.346660 -0.045668
Ni1   Ni    Ni4+2 0.616550 1.000000 0.626870 0.244721
Ni2   Ni    Ni4+2 0.116550 0.500000 0.626870 0.246044
Ni3   Ni    Ni4+2 0.379790 0.000000 0.373130 0.196760
Ni4   Ni    Ni4+2 0.879790 0.500000 0.373130 0.198361
Ni5   Ni    Ni4+2 0.498170 0.870760 0.500000 0.259582
Ni6   Ni    Ni4+2 0.498170 0.129240 0.500000 0.312954
Ni7   Ni    Ni4+2 0.998170 0.370760 0.500000 0.313839
Ni8   Ni    Ni4+2 0.998170 0.629240 0.500000 0.260073
C41   C     C_R   0.607408 0.141328 0.445971 0.030897
C42   C     C_R   0.655294 0.818896 0.564480 0.076893
C43   C     C_R   0.155248 0.681241 0.564441 0.074929
C44   C     C_R   0.107895 0.358538 0.446862 0.031334
C45   C     C_R   0.352870 0.856085 0.175509 0.051309
C46   C     C_R   0.324902 0.182656 0.201274 0.028693
C47   C     C_R   0.826712 0.318277 0.199964 0.031433
C48   C     C_R   0.853484 0.643321 0.175532 0.050212
C49   C     C_3   0.657829 0.214473 0.950541 0.119385
C50   C     C_3   0.692199 0.758864 0.936096 0.104244
C51   C     C_3   0.191554 0.740908 0.936096 0.105949
C52   C     C_3   0.149532 0.264207 0.930442 0.104627
H29   H     H_    0.611448 0.249116 0.881096 0.184524
H30   H     H_    0.641397 0.729228 0.869066 0.215187
H31   H     H_    0.140780 0.770648 0.868750 0.213978
H32   H     H_    0.113874 0.225118 0.859415 0.183749
C53   C     C_3   0.238857 0.794214 0.034391 -0.401924
C54   C     C_3   0.199791 0.212833 0.032172 -0.411460
C55   C     C_3   0.707000 0.265221 0.053156 -0.408456
C56   C     C_3   0.739601 0.705562 0.034612 -0.401736
H33   H     H_    0.250230 0.770257 0.101294 0.183902
H34   H     H_    0.191477 0.218762 0.080357 0.175882
H35   H     H_    0.712390 0.243308 0.114610 0.179668
H36   H     H_    0.751213 0.729650 0.101610 0.184041
H37   H     H_    0.683368 0.323397 0.029124 0.167882
H38   H     H_    0.710826 0.650942 0.009688 0.175981
H39   H     H_    0.210139 0.848976 0.009084 0.175597
H40   H     H_    0.187648 0.152278 0.004180 0.184077
H41   H     H_    0.273402 0.909999 0.975926 0.214554
H42   H     H_    0.294004 0.153207 0.035745 0.206189
H43   H     H_    0.753683 0.366198 0.004999 0.196613
H44   H     H_    0.773645 0.589349 0.976075 0.209799
C57   C     C_3   0.726422 0.258937 0.917937 0.491208
C58   C     C_3   0.742320 0.695288 0.880778 0.505025
C59   C     C_3   0.242180 0.804002 0.881219 0.504837
C60   C     C_3   0.238547 0.257335 0.932651 0.493111
C61   C     C_3   0.296435 0.682386 0.998918 -0.376163
C62   C     C_3   0.241929 0.366909 0.030826 -0.371523
C63   C     C_3   0.761729 0.138680 0.028917 -0.393497
C64   C     C_3   0.796933 0.816866 0.998035 -0.380523
C65   C     C_3   0.697402 0.187805 0.928647 0.078523
C66   C     C_3   0.726016 0.774280 0.901490 0.059917
C67   C     C_3   0.225632 0.725165 0.902014 0.056262
C68   C     C_3   0.193300 0.313584 0.928206 0.081108
H45   H     H_    0.324526 0.669507 0.982320 0.211118
H46   H     H_    0.274886 0.405115 0.037190 0.199968
H47   H     H_    0.793104 0.118584 0.020283 0.196278
H48   H     H_    0.824855 0.829602 0.981084 0.209481
H49   H     H_    0.745169 0.085784 0.037633 0.175072
H50   H     H_    0.788805 0.873613 0.013914 0.168248
H51   H     H_    0.288133 0.625698 0.014804 0.171390
H52   H     H_    0.210507 0.407098 0.026320 0.175339
C69   C     C_3   0.308490 0.809068 0.076833 0.244357
C70   C     C_3   0.277181 0.232095 0.105228 0.249553
C71   C     C_3   0.780209 0.269159 0.104562 0.249368
C72   C     C_3   0.809068 0.690340 0.076665 0.248049
C73   C     C_3   0.293860 0.851357 0.989335 -0.526673
C74   C     C_3   0.292257 0.216020 0.044144 -0.519112
C75   C     C_3   0.774294 0.306709 0.023662 -0.521819
C76   C     C_3   0.794129 0.647893 0.989105 -0.529341
C77   C     C_3   0.343691 0.730797 0.101722 -0.419417
C78   C     C_3   0.289578 0.318296 0.135098 -0.378167
C79   C     C_3   0.809710 0.186647 0.132514 -0.378517
C80   C     C_3   0.844320 0.768421 0.101044 -0.420719
H53   H     H_    0.353912 0.698519 0.163610 0.179386
H54   H     H_    0.278267 0.330926 0.178233 0.170288
H55   H     H_    0.814310 0.159506 0.191058 0.173900
H56   H     H_    0.854754 0.800822 0.162953 0.178138
H57   H     H_    0.394637 0.739981 0.134713 0.170789
H58   H     H_    0.344843 0.334520 0.190125 0.179759
H59   H     H_    0.862598 0.187490 0.170523 0.181783
H60   H     H_    0.895158 0.758972 0.133779 0.170089
H61   H     H_    0.344691 0.860309 0.021929 0.195711
H62   H     H_    0.346458 0.235340 0.096163 0.196493
H63   H     H_    0.827352 0.315806 0.064028 0.211552
H64   H     H_    0.844844 0.638696 0.021415 0.196038
C81   C     C_R   0.707054 0.763922 0.600070 0.170779
C82   C     C_R   0.625523 0.174677 0.398725 0.116325
C83   C     C_R   0.126294 0.325007 0.400241 0.118476
C84   C     C_R   0.207050 0.736471 0.600529 0.170280
C85   C     C_R   0.286537 0.232188 0.401813 0.078360
C86   C     C_R   0.347659 0.812177 0.560190 0.080704
C87   C     C_R   0.846363 0.688489 0.557349 0.080223
C88   C     C_R   0.786208 0.267764 0.401085 0.077474
C89   C     C_R   0.251113 0.359687 0.399172 0.236462
C90   C     C_R   0.341163 0.699877 0.628003 0.223307
C91   C     C_R   0.839285 0.801157 0.623474 0.228137
C92   C     C_R   0.750969 0.140206 0.398935 0.236667
C93   C     C_R   0.292343 0.312499 0.404519 -0.144210
C94   C     C_R   0.358622 0.733650 0.584888 -0.104968
C95   C     C_R   0.856620 0.767182 0.580383 -0.105177
C96   C     C_R   0.792180 0.187454 0.404225 -0.142310
C97   C     C_R   0.229440 0.200362 0.369530 -0.259024
C98   C     C_R   0.310517 0.855854 0.565556 -0.245340
C99   C     C_R   0.809776 0.644784 0.563838 -0.245078
C100  C     C_R   0.728790 0.299481 0.368015 -0.257972
C101  C     C_R   0.187237 0.245560 0.361563 0.128997
C102  C     C_R   0.282523 0.820116 0.591624 0.116083
C103  C     C_R   0.781941 0.680576 0.590021 0.114830
C104  C     C_R   0.686506 0.254180 0.359909 0.127222
C105  C     C_R   0.799793 0.757926 0.625445 0.081074
C106  C     C_R   0.700983 0.174924 0.384778 0.129617
C107  C     C_R   0.201402 0.324880 0.385649 0.129478
C108  C     C_R   0.300810 0.742949 0.628255 0.081196
C109  C     C_R   0.768811 0.793838 0.645605 -0.149941
C110  C     C_R   0.669050 0.135125 0.402929 -0.241134
C111  C     C_R   0.169456 0.364661 0.403690 -0.240893
C112  C     C_R   0.269372 0.706927 0.647686 -0.146538
C113  C     C_R   0.690902 0.686214 0.570223 -0.073596
C114  C     C_R   0.604903 0.250402 0.359161 -0.128086
C115  C     C_R   0.106157 0.249089 0.361817 -0.124054
C116  C     C_R   0.190561 0.814087 0.569747 -0.075048
C117  C     C_R   0.731322 0.643131 0.571314 -0.150520
C118  C     C_R   0.634987 0.289715 0.339350 -0.169573
C119  C     C_R   0.136161 0.209833 0.341971 -0.172533
C120  C     C_R   0.231218 0.857329 0.571362 -0.151688
H65   H     H_    0.785636 0.850698 0.679243 0.132485
H66   H     H_    0.681789 0.075619 0.428160 0.134091
H67   H     H_    0.181856 0.424261 0.428169 0.134213
H68   H     H_    0.286424 0.650222 0.682164 0.133475
H69   H     H_    0.645202 0.660211 0.539865 0.147400
H70   H     H_    0.570058 0.282475 0.351742 0.128581
H71   H     H_    0.071755 0.216856 0.355300 0.125431
H72   H     H_    0.144413 0.839871 0.538157 0.145542
H73   H     H_    0.123806 0.149528 0.320479 0.129569
H74   H     H_    0.216828 0.916417 0.543605 0.134859
H75   H     H_    0.717257 0.583912 0.544438 0.136071
H76   H     H_    0.622301 0.349934 0.317072 0.132499
H77   H     H_    0.329914 0.338750 0.413986 0.176634
H78   H     H_    0.378595 0.696966 0.567465 0.184702
H79   H     H_    0.876197 0.803687 0.562040 0.183387
H80   H     H_    0.829868 0.161222 0.413998 0.177660
H81   H     H_    0.221526 0.138897 0.361897 0.129745
H82   H     H_    0.299581 0.916016 0.542928 0.135363
H83   H     H_    0.799341 0.584468 0.542340 0.135763
H84   H     H_    0.720619 0.360918 0.359783 0.130175
C121  C     C_3   0.628001 0.148052 0.960357 -0.958919
H85   H     H_    0.594194 0.171918 0.962794 0.259784
H86   H     H_    0.595347 0.109073 0.889265 0.253568
H87   H     H_    0.669985 0.114235 0.035886 0.259113
C122  C     C_3   0.674494 0.831681 0.958670 -0.920754
H88   H     H_    0.645252 0.814841 0.972456 0.261915
H89   H     H_    0.722273 0.862489 0.032302 0.246427
H90   H     H_    0.640576 0.871804 0.888579 0.255707
C123  C     C_3   0.173658 0.668241 0.958756 -0.924497
H91   H     H_    0.144157 0.685250 0.971984 0.261643
H92   H     H_    0.139933 0.628081 0.888914 0.255638
H93   H     H_    0.221366 0.637419 0.032725 0.247526
C124  C     C_3   0.101830 0.311167 0.923812 -0.941345
H94   H     H_    0.066053 0.271642 0.910143 0.262936
H95   H     H_    0.132429 0.342942 0.000220 0.256411
H96   H     H_    0.069142 0.352460 0.855074 0.250634
N33   N     N_R   0.669703 0.310549 0.825426 0.217460
O1    O     O_R   0.631891 0.349762 0.825121 -0.397055
O2    O     O_R   0.663329 0.326792 0.751011 -0.276952
N34   N     N_R   0.677913 0.649940 0.793171 0.215982
O3    O     O_R   0.648340 0.612379 0.809732 -0.381818
O4    O     O_R   0.651932 0.642754 0.699211 -0.357496
N35   N     N_R   0.177862 0.849519 0.793216 0.216988
O5    O     O_R   0.148140 0.887327 0.809272 -0.381054
O6    O     O_R   0.152093 0.856559 0.699375 -0.357540
N36   N     N_R   0.192429 0.199116 0.843916 0.225483
O7    O     O_R   0.180360 0.132780 0.859177 -0.388725
O8    O     O_R   0.159886 0.214399 0.746662 -0.311749
N37   N     N_R   0.767018 0.230188 0.904013 0.238528
O9    O     O_R   0.734882 0.203655 0.810569 -0.356347
O10   O     O_R   0.834891 0.224147 0.985921 -0.422841
N38   N     N_R   0.776015 0.708096 0.851036 0.235396
O11   O     O_R   0.775921 0.775034 0.820333 -0.458982
O12   O     O_R   0.798540 0.649375 0.841663 -0.354087
N39   N     N_R   0.276120 0.790907 0.851961 0.235487
O13   O     O_R   0.275847 0.723953 0.821298 -0.457572
O14   O     O_R   0.298901 0.849463 0.842697 -0.353152
N40   N     N_R   0.278343 0.299795 0.924381 0.225284
O15   O     O_R   0.274957 0.279749 0.854229 -0.320523
O16   O     O_R   0.326166 0.349396 0.998305 -0.453991
C125  C     C_3   0.856661 0.885116 0.654636 -0.951164
H97   H     H_    0.807810 0.919376 0.600673 0.227708
H98   H     H_    0.887831 0.892181 0.740511 0.259740
H99   H     H_    0.888047 0.908778 0.647339 0.278508
C126  C     C_3   0.763502 0.054699 0.413716 -0.953404
H100  H     H_    0.784453 0.036325 0.490517 0.252231
H101  H     H_    0.713732 0.024120 0.344137 0.244474
H102  H     H_    0.801883 0.037576 0.417936 0.268492
C127  C     C_3   0.263321 0.445228 0.413177 -0.950329
H103  H     H_    0.213406 0.475647 0.343404 0.243213
H104  H     H_    0.284307 0.463757 0.489894 0.252767
H105  H     H_    0.301534 0.462395 0.417023 0.268798
C128  C     C_3   0.359201 0.616127 0.660729 -0.943708
H106  H     H_    0.310643 0.581381 0.606629 0.227220
H107  H     H_    0.391437 0.592634 0.655036 0.279051
H108  H     H_    0.389767 0.609540 0.746362 0.260230
N41   N     N_R   0.469076 0.753139 0.607503 0.196976
O17   O     O_R   0.504007 0.741340 0.706799 -0.428338
O18   O     O_R   0.465350 0.699335 0.555624 -0.399536
N42   N     N_R   0.441271 0.268365 0.531452 0.204546
O19   O     O_R   0.476189 0.285000 0.515729 -0.394321
O20   O     O_R   0.448665 0.311472 0.595786 -0.380396
N43   N     N_R   0.940961 0.231438 0.530790 0.202795
O21   O     O_R   0.948409 0.188083 0.595172 -0.400435
O22   O     O_R   0.976145 0.215175 0.515498 -0.397242
N44   N     N_R   0.968101 0.747413 0.605487 0.197143
O23   O     O_R   0.964819 0.800570 0.553303 -0.401615
O24   O     O_R   0.002432 0.759968 0.704254 -0.427935

loop_
_geom_bond_atom_site_label_1
_geom_bond_atom_site_label_2
_geom_bond_distance
_ccdc_geom_bond_type
C42   C81   1.459605 S    
N6    N9    1.438089 A    
C27   H15   1.078298 S    
C14   N14   1.328879 A    
C79   H59   1.112759 S    
C35   N27   1.324372 A    
N41   O17   1.301329 A    
C118  H76   1.084587 S    
N40   O15   1.301790 A    
C78   H58   1.111494 S    
C91   C105  1.408041 A    
N28   Ni8   1.888347 S    
C89   C107  1.415100 A    
C101  C107  1.414776 A    
C25   C41   1.402973 A    
C51   C123  1.549858 S    
C16   C19   1.388265 A    
C119  H73   1.084601 S    
C37   C46   1.375095 A    
C93   H77   1.077774 S    
C100  C104  1.379266 A    
C7    C23   1.400268 A    
C4    N4    1.322300 A    
C63   H47   1.109608 S    
C121  H87   1.109321 S    
N18   Ni1   1.852315 S    
C92   C106  1.415027 A    
C53   H39   1.112303 S    
C59   C67   1.601341 S    
C54   H40   1.110746 S    
C121  H85   1.111120 S    
N2    N13   1.405107 A    
C87   C99   1.397234 A    
C83   C111  1.402331 A    
C9    N9    1.323290 A    
N44   O24   1.301350 A    
C122  H89   1.109203 S    
C11   N11   1.340950 A    
C8    C24   1.391757 A    
C72   C76   1.543389 S    
C101  C119  1.391231 A    
C105  C109  1.377565 A    
C60   N36   1.493280 S    
C34   H22   1.074504 S    
C62   H46   1.104152 S    
C32   H20   1.080894 S    
C88   C100  1.394381 A    
C5    N5    1.330850 A    
H43   C75   1.113367 S    
C32   C48   1.376481 A    
N36   O8    1.302078 A    
C16   N16   1.321712 A    
C123  H92   1.108894 S    
C78   H54   1.113078 S    
C85   C93   1.404926 A    
C27   C43   1.387524 A    
N11   Ni7   1.888303 S    
C51   H31   1.108932 S    
C36   N28   1.337706 A    
C30   H18   1.079883 S    
C99   C103  1.386766 A    
N15   Ni8   1.886570 S    
N39   O14   1.302468 A    
C47   C71   1.453521 S    
C55   H35   1.114150 S    
C3    N3    1.322789 A    
C58   C76   1.566583 S    
C53   H33   1.115041 S    
N21   Ni3   1.924411 S    
N27   Ni7   1.888386 S    
C19   C68   1.472142 S    
C125  H98   1.110285 S    
C20   C67   1.475989 S    
C49   C65   1.574025 S    
N8    Ni4   1.832833 S    
C69   C73   1.543395 S    
C74   H62   1.113638 S    
C57   N37   1.492100 S    
C6    C22   1.400713 A    
N20   Ni2   1.852315 S    
N31   Ni8   1.888514 S    
C82   C114  1.405181 A    
C122  H88   1.111176 S    
C112  H68   1.073900 S    
C64   C66   1.565535 S    
N33   O1    1.302070 A    
C61   H51   1.111051 S    
C62   H52   1.110281 S    
C104  C118  1.391562 A    
C98   H82   1.083401 S    
C56   C72   1.552242 S    
C39   C48   1.376977 A    
C26   C42   1.387131 A    
C124  H94   1.111010 S    
C50   H30   1.108793 S    
C9    C22   1.392740 A    
C25   N17   1.343480 A    
C114  H70   1.079147 S    
C102  C120  1.402375 A    
N34   O3    1.302214 A    
C27   N19   1.322839 A    
C28   N20   1.343532 A    
C15   N15   1.328618 A    
N20   N27   1.424775 A    
C12   N44   1.424212 S    
C69   C77   1.552568 S    
N42   O20   1.301272 A    
C33   N25   1.337704 A    
C128  H107  1.111105 S    
N9    Ni5   1.888303 S    
N26   Ni6   1.888347 S    
N19   Ni2   1.848863 S    
C77   H57   1.113629 S    
N14   Ni5   1.886589 S    
C91   C95   1.381757 A    
N21   N30   1.282866 A    
C86   C98   1.397547 A    
C88   C96   1.404995 A    
C45   C69   1.469879 S    
N6    Ni3   1.832833 S    
N17   Ni1   1.848863 S    
C127  H103  1.110278 S    
C56   H38   1.112309 S    
C90   C128  1.513334 S    
C126  H100  1.109831 S    
N3    N16   1.406072 A    
C64   C80   1.523504 S    
C103  C117  1.402367 A    
C5    C21   1.392158 A    
C72   C80   1.552369 S    
C31   N23   1.316051 A    
C89   C127  1.507835 S    
C23   C87   1.454048 S    
N16   Ni7   1.886589 S    
C122  H90   1.108847 S    
C115  H71   1.079089 S    
C95   H79   1.076424 S    
C123  H93   1.109226 S    
N35   O5    1.302236 A    
C10   N10   1.340022 A    
C32   N24   1.322647 A    
N40   O16   1.301502 A    
C5    H5    1.080048 S    
H42   C74   1.112286 S    
C124  H96   1.109289 S    
C6    N6    1.338462 A    
C60   C68   1.603183 S    
C1    C17   1.368513 A    
C90   C94   1.382030 A    
C3    C19   1.383523 A    
N37   O10   1.302899 A    
C81   C109  1.391541 A    
C34   C41   1.384776 A    
C111  H67   1.081159 S    
C37   H25   1.078646 S    
C109  H65   1.073805 S    
C39   H27   1.079476 S    
C18   C65   1.467203 S    
N38   O11   1.300437 A    
C103  C105  1.416399 A    
C97   C101  1.378607 A    
C39   N31   1.325612 A    
C80   H56   1.113782 S    
C63   H49   1.110728 S    
N24   Ni4   1.920771 S    
N19   N28   1.423797 A    
C36   H24   1.080742 S    
C44   C83   1.462980 S    
H41   C73   1.112313 S    
C84   C112  1.391609 A    
C7    H7    1.080270 S    
C35   C44   1.384285 A    
C1    H1    1.080175 S    
C63   C65   1.566365 S    
C127  H105  1.110847 S    
C3    H3    1.077296 S    
C4    C20   1.369354 A    
C12   C23   1.392453 A    
C52   C54   1.537120 S    
C46   C70   1.460862 S    
C54   H34   1.114112 S    
C52   C124  1.545331 S    
C126  H102  1.110832 S    
C17   C66   1.475699 S    
C50   C66   1.574781 S    
C120  H74   1.083732 S    
C59   C73   1.566630 S    
C94   H78   1.076017 S    
C70   C74   1.546494 S    
N39   O13   1.300446 A    
C71   C79   1.548811 S    
C92   C96   1.404052 A    
C80   H60   1.113631 S    
C84   C116  1.403503 A    
C117  H75   1.083725 S    
C113  C117  1.393415 A    
C13   C18   1.388208 A    
C58   N34   1.480273 S    
C15   C20   1.377647 A    
C100  H84   1.081321 S    
C38   H26   1.079496 S    
N41   O18   1.301168 A    
C61   C77   1.523790 S    
C57   C75   1.549302 S    
N13   Ni6   1.886570 S    
C57   C65   1.601423 S    
N43   O21   1.301318 A    
C1    N1    1.322169 A    
C10   C21   1.395647 A    
C25   H13   1.080065 S    
C26   N18   1.322258 A    
C13   H9    1.074250 S    
C28   H16   1.080097 S    
C60   C74   1.547852 S    
C15   H11   1.070143 S    
C96   H80   1.077635 S    
C125  H97   1.110539 S    
N7    Ni4   1.836248 S    
C70   C78   1.547322 S    
C12   N12   1.322842 A    
C43   C84   1.460331 S    
C91   C125  1.513257 S    
C49   C55   1.542573 S    
N29   Ni6   1.888514 S    
C51   C53   1.525951 S    
C121  H86   1.109789 S    
C60   N40   1.489557 S    
N23   Ni4   1.924411 S    
C58   N38   1.482045 S    
C86   C94   1.400457 A    
N44   O23   1.301163 A    
C55   C71   1.551317 S    
C30   C46   1.356796 A    
N2    Ni1   1.851925 S    
C53   C69   1.552059 S    
C55   H37   1.111446 S    
C50   C122  1.550010 S    
C49   C121  1.545181 S    
C41   C82   1.463684 S    
C125  H99   1.111104 S    
N5    N10   1.439074 A    
C13   N13   1.324221 A    
N7    N12   1.439074 A    
C58   C66   1.601310 S    
N8    N11   1.438089 A    
C35   H23   1.074276 S    
N35   O6    1.302536 A    
C123  H91   1.111160 S    
C29   H17   1.081060 S    
C36   C43   1.381701 A    
C11   N43   1.429108 S    
N3    Ni2   1.848438 S    
C31   H19   1.080812 S    
C102  C108  1.416447 A    
C22   C86   1.455684 S    
C40   C47   1.369472 A    
N17   N26   1.423797 A    
C115  C119  1.375939 A    
C99   H83   1.083482 S    
N34   O4    1.302534 A    
C33   H21   1.080740 S    
N36   O7    1.302908 A    
C64   H48   1.107658 S    
C30   N22   1.312715 A    
H44   C76   1.112313 S    
C107  C111  1.403326 A    
C128  H106  1.110621 S    
C6    H6    1.080204 S    
C40   H28   1.078621 S    
C4    H4    1.080296 S    
C97   H81   1.081448 S    
C83   C115  1.405205 A    
C92   C126  1.507813 S    
C2    C18   1.379561 A    
N24   N31   1.283730 A    
N1    N14   1.406072 A    
N30   Ni5   1.888213 S    
C81   C113  1.403355 A    
C87   C95   1.400035 A    
N4    N15   1.405107 A    
C21   C85   1.473895 S    
C9    N41   1.424018 S    
C29   N21   1.322834 A    
C24   C88   1.474864 S    
C38   C45   1.377124 A    
C49   H29   1.107389 S    
C31   C47   1.357276 A    
C113  H69   1.081271 S    
C75   H63   1.110669 S    
C108  C112  1.378178 A    
C76   H64   1.113408 S    
C29   C45   1.376888 A    
C8    H8    1.079960 S    
C61   H45   1.107745 S    
C34   N26   1.324656 A    
C7    N7    1.338064 A    
C8    N8    1.330945 A    
N10   Ni6   1.888335 S    
C2    H2    1.076535 S    
C50   C56   1.525327 S    
N25   Ni5   1.888386 S    
C56   H36   1.115080 S    
C63   C79   1.527110 S    
C114  C118  1.376572 A    
N22   N29   1.283730 A    
C51   C67   1.574869 S    
N18   N25   1.424775 A    
C57   N33   1.488076 S    
C52   C68   1.574887 S    
C116  H72   1.081264 S    
C16   H12   1.072127 S    
N33   O2    1.302091 A    
C85   C97   1.393815 A    
C106  C110  1.403378 A    
C79   H55   1.113260 S    
C37   N29   1.338931 A    
C124  H95   1.109590 S    
C71   C75   1.546959 S    
N4    Ni2   1.851925 S    
C59   N39   1.482144 S    
N37   O9    1.302215 A    
C14   C17   1.377457 A    
C64   H50   1.111035 S    
C61   C67   1.565149 S    
C62   C68   1.569213 S    
C104  C106  1.414666 A    
N42   O19   1.300625 A    
N38   O12   1.302473 A    
C62   C78   1.538649 S    
C98   C102  1.387249 A    
C128  H108  1.110286 S    
C2    N2    1.315979 A    
C116  C120  1.393516 A    
C11   C24   1.396050 A    
C40   N32   1.331488 A    
C26   H14   1.078353 S    
N32   Ni7   1.888213 S    
C77   H53   1.113777 S    
C14   H10   1.070197 S    
C48   C72   1.469373 S    
C10   N42   1.428874 S    
C73   H61   1.113398 S    
N43   O22   1.300581 A    
C127  H104  1.109990 S    
C89   C93   1.404141 A    
C82   C110  1.402529 A    
N23   N32   1.282866 A    
C126  H101  1.110316 S    
C28   C44   1.402896 A    
C59   N35   1.480265 S    
C33   C42   1.381884 A    
C110  H66   1.081136 S    
C90   C108  1.407887 A    
N5    Ni3   1.836248 S    
N1    Ni1   1.848438 S    
N12   Ni8   1.888335 S    
C54   C70   1.557375 S    
C38   N30   1.325596 A    
C52   H32   1.108940 S    
N22   Ni3   1.920771 S    
