data_mof_unit_55465.cif
_audit_creation_date              2013-03-05T16:09:46-0500
_audit_creation_method            fapswitch 2.2
_symmetry_space_group_name_H-M    P1
_symmetry_Int_Tables_number       1
_space_group_crystal_system       triclinic
_cell_length_a                    12.897139
_cell_length_b                    10.706857
_cell_length_c                    9.805303
_cell_angle_alpha                 90.181918
_cell_angle_beta                  97.157887
_cell_angle_gamma                 90.50748
_cell_volume                      1343.37548693

loop_
_atom_site_label
_atom_site_type_symbol
_atom_site_description
_atom_site_fract_x
_atom_site_fract_y
_atom_site_fract_z
_atom_type_partial_charge
O1    O     O_R   0.499990 0.316750 0.614620 -0.605129
O2    O     O_R   0.500010 0.683250 0.385380 -0.605101
O3    O     O_R   0.499990 0.316780 0.385290 -0.632318
O4    O     O_R   0.500010 0.683220 0.614710 -0.632412
C1    C     C_R   0.503331 0.260031 0.500548 0.873923
C2    C     C_R   0.496700 0.739971 0.499457 0.874129
O5    O     O_R   0.346360 0.499970 0.595710 -0.631119
O6    O     O_R   0.653640 0.500030 0.404290 -0.631090
O7    O     O_R   0.346360 0.499990 0.366380 -0.625376
O8    O     O_R   0.653640 0.500010 0.633620 -0.625533
C3    C     C_R   0.298085 0.500999 0.473125 0.895227
C4    C     C_R   0.701917 0.499056 0.526872 0.894853
Zn1   Zn    Zn3+2 0.500000 0.499980 0.653120 0.946459
Zn2   Zn    Zn3+2 0.500000 0.500020 0.346880 0.946621
C5    C     C_R   0.813908 0.499465 0.543365 -0.114575
C6    C     C_R   0.186096 0.500749 0.456610 -0.114546
C7    C     C_R   0.021322 0.462250 0.317613 0.225997
C8    C     C_R   0.978672 0.538154 0.682314 0.226184
C9    C     C_R   0.129511 0.471040 0.329987 -0.221605
C10   C     C_R   0.870484 0.529307 0.669952 -0.221786
C11   C     C_R   0.136477 0.525693 0.571503 -0.287105
C12   C     C_R   0.863530 0.474582 0.428459 -0.287031
C13   C     C_R   0.029117 0.516452 0.564147 0.118501
C14   C     C_R   0.970883 0.483908 0.435794 0.118493
H1    H     H_    0.817305 0.449190 0.332503 0.181684
H2    H     H_    0.182711 0.551032 0.667471 0.181678
H3    H     H_    0.830112 0.548152 0.758303 0.158280
H4    H     H_    0.169878 0.452224 0.241624 0.158435
C15   C     C_R   0.459583 0.066110 0.382993 -0.258795
C16   C     C_R   0.540588 0.933883 0.617000 -0.258713
H5    H     H_    0.425828 0.118078 0.293672 0.156937
H6    H     H_    0.574368 0.881887 0.706286 0.156773
C17   C     C_R   0.451774 0.938070 0.380616 -0.002711
C18   C     C_R   0.548396 0.061938 0.619401 -0.002376
C19   C     C_R   0.493969 0.872455 0.498852 -0.078679
C20   C     C_R   0.506164 0.127549 0.501159 -0.078750
C21   C     C_R   0.571668 0.569630 0.083967 -0.057309
C22   C     C_R   0.428352 0.430342 0.916036 -0.057205
H7    H     H_    0.628700 0.625476 0.148263 0.128261
H8    H     H_    0.371326 0.374489 0.851740 0.128311
C23   C     C_R   0.571654 0.569570 0.939834 -0.083882
C24   C     C_R   0.428362 0.430407 0.060168 -0.083220
H9    H     H_    0.628747 0.625200 0.894450 0.118762
H10   H     H_    0.371274 0.374772 0.105552 0.118740
N1    N     N_R   0.499970 0.499970 0.857200 -0.074769
N2    N     N_R   0.500030 0.500030 0.142800 -0.074715
C25   C     C_3   0.962629 0.428505 0.179039 -0.984638
H11   H     H_    0.016041 0.415716 0.099640 0.247267
H12   H     H_    0.919063 0.339425 0.186606 0.242762
H13   H     H_    0.907328 0.503985 0.143522 0.238603
C26   C     C_3   0.037360 0.571985 0.820866 -0.984676
H14   H     H_    0.983942 0.584853 0.900244 0.247233
H15   H     H_    0.092646 0.496511 0.856458 0.238616
H16   H     H_    0.080945 0.661041 0.813229 0.242774
C27   C     C_R   0.398437 0.876655 0.254622 0.141301
C28   C     C_R   0.441892 0.884965 0.130400 -0.166743
C29   C     C_R   0.395023 0.821861 0.013249 -0.139842
C30   C     C_R   0.304327 0.750646 0.019094 -0.104256
C31   C     C_R   0.259832 0.743191 0.141812 -0.119743
C32   C     C_R   0.306488 0.806076 0.259311 -0.107618
H17   H     H_    0.513194 0.937989 0.125261 0.123916
H18   H     H_    0.429615 0.827083 0.918280 0.133912
H19   H     H_    0.268779 0.700970 0.928629 0.124321
H20   H     H_    0.189527 0.688097 0.146057 0.134569
H21   H     H_    0.272002 0.798448 0.354242 0.104934
C33   C     C_R   0.601770 0.123342 0.745414 0.140846
C34   C     C_R   0.693187 0.194845 0.740485 -0.106128
C35   C     C_R   0.739820 0.257691 0.858019 -0.119312
C36   C     C_R   0.695896 0.249211 0.981053 -0.104708
C37   C     C_R   0.605808 0.176995 0.987181 -0.139898
C38   C     C_R   0.558939 0.113959 0.869980 -0.167463
H22   H     H_    0.727236 0.203264 0.645327 0.104457
H23   H     H_    0.809666 0.313540 0.853558 0.134479
H24   H     H_    0.731427 0.298845 0.071554 0.124384
H25   H     H_    0.571692 0.170920 0.082424 0.133978
H26   H     H_    0.488107 0.060128 0.875381 0.124275

loop_
_geom_bond_atom_site_label_1
_geom_bond_atom_site_label_2
_geom_bond_distance
_ccdc_geom_bond_type
C17   C27   1.485549 S    
C16   H6    1.085606 S    
C11   H2    1.081819 S    
C6    C11   1.389524 A    
C27   C28   1.405543 A    
C18   C33   1.485825 S    
C29   H18   1.082922 S    
Zn2   N2    2.001115 S    
C28   C29   1.398646 A    
O5    C3    1.283054 A    
C15   C20   1.396710 A    
C31   H20   1.082561 S    
C16   C19   1.396676 A    
O1    C1    1.276666 A    
C22   C24   1.413243 A    
C38   H26   1.082799 S    
C1    C20   1.419269 S    
C15   C17   1.373622 A    
C2    C19   1.419250 S    
C34   H22   1.083288 S    
C24   N2    1.365217 A    
O4    Zn1   1.998922 S    
C22   N1    1.365672 A    
C7    C9    1.387779 A    
C5    C12   1.389527 A    
C25   H11   1.110871 S    
C35   C36   1.398081 A    
C12   H1    1.081814 S    
C13   C14   1.423532 A    
C37   C38   1.398669 A    
C18   C20   1.410299 A    
C33   C34   1.406036 A    
C31   C32   1.399254 A    
C27   C32   1.406205 A    
C23   H9    1.081913 S    
O2    C2    1.276664 A    
C24   H10   1.081911 S    
C8    C26   1.511787 S    
C25   H13   1.110495 S    
C5    C10   1.393849 A    
C7    C14   1.417248 A    
C16   C18   1.373776 A    
C8    C13   1.417251 A    
O4    C2    1.280989 A    
C35   H23   1.082298 S    
C34   C35   1.399223 A    
C26   H15   1.110492 S    
O7    Zn2   2.014293 S    
C3    C6    1.433166 S    
C33   C38   1.405357 A    
C4    C5    1.433180 S    
O6    C4    1.283030 A    
C36   H24   1.082238 S    
C9    H4    1.084200 S    
O7    C3    1.282863 A    
O3    Zn2   1.998923 S    
O8    C4    1.282895 A    
C32   H21   1.083498 S    
C11   C13   1.380160 A    
C12   C14   1.380137 A    
O1    Zn1   1.996626 S    
Zn1   N1    2.001115 S    
C30   H19   1.082247 S    
O6    Zn2   1.991308 S    
C7    C25   1.511788 S    
O3    C1    1.280994 A    
O8    Zn1   2.014292 S    
C10   H3    1.084194 S    
C25   H12   1.110053 S    
C26   H16   1.110059 S    
C30   C31   1.398379 A    
C26   H14   1.110874 S    
C21   H7    1.081795 S    
C22   H8    1.081789 S    
C29   C30   1.397881 A    
C6    C9    1.393858 A    
C17   C19   1.410133 A    
C8    C10   1.387803 A    
C21   C23   1.413246 A    
C36   C37   1.397563 A    
O2    Zn2   1.996627 S    
O5    Zn1   1.991309 S    
C15   H5    1.085615 S    
C37   H25   1.082712 S    
C23   N1    1.365229 A    
C28   H17   1.083037 S    
C21   N2    1.365687 A    
