data_mof_unit_62787.cif
_audit_creation_date              2012-10-26T17:29:20-0400
_audit_creation_method            fapswitch 2.2
_symmetry_space_group_name_H-M    P1
_symmetry_Int_Tables_number       1
_space_group_crystal_system       triclinic
_cell_length_a                    28.352324
_cell_length_b                    18.352321
_cell_length_c                    21.616976
_cell_angle_alpha                 89.5432
_cell_angle_beta                  139.634162
_cell_angle_gamma                 90.33126
_cell_volume                      7284.69995976

loop_
_atom_site_label
_atom_site_type_symbol
_atom_type_description
_atom_site_fract_x
_atom_site_fract_y
_atom_site_fract_z
_atom_type_partial_charge
C1    C     C_R   0.860074 0.000009 0.860344 0.544822
C2    C     C_R   0.999986 0.139890 0.500171 0.557309
C3    C     C_R   0.500014 0.360112 0.499862 0.558468
C4    C     C_R   0.499986 0.639892 0.500132 0.556037
C5    C     C_R   0.999918 0.997427 0.619992 0.545570
C6    C     C_R   0.000081 0.002604 0.380008 0.545575
C7    C     C_R   0.499914 0.502929 0.619930 0.545657
C8    C     C_R   0.500082 0.502577 0.380009 0.545583
C9    C     C_R   0.500011 0.139593 0.499815 0.558136
C10   C     C_R   0.499989 0.860408 0.500185 0.558040
C11   C     C_R   0.000010 0.639593 0.499812 0.557923
C12   C     C_R   0.139926 0.999992 0.139657 0.544800
C13   C     C_R   0.999990 0.360407 0.500188 0.558258
C14   C     C_R   0.639607 0.000016 0.639590 0.557603
C15   C     C_R   0.360393 0.999985 0.360410 0.557623
C16   C     C_R   0.139607 0.500032 0.639590 0.557629
C17   C     C_R   0.860393 0.500013 0.360410 0.557624
C18   C     C_1   0.000036 0.782531 0.499572 -0.060504
C19   C     C_1   0.999964 0.217469 0.500428 -0.060182
C20   C     C_1   0.500037 0.282532 0.499597 -0.060944
C21   C     C_1   0.499963 0.717471 0.500400 -0.059740
C22   C     C_1   0.500031 0.217188 0.499500 -0.055723
C23   C     C_R   0.360074 0.500018 0.860358 0.544616
C24   C     C_1   0.499969 0.782815 0.500499 -0.055503
C25   C     C_1   0.000030 0.717186 0.499488 -0.055836
C26   C     C_1   0.999970 0.282813 0.500512 -0.055363
C27   C     C_R   0.002537 0.000764 0.882304 0.539858
C28   C     C_R   0.997492 0.999231 0.117725 0.539908
C29   C     C_R   0.502589 0.499656 0.882355 0.539847
C30   C     C_R   0.497464 0.499236 0.117698 0.539855
C31   C     C_3   0.054743 0.940276 0.840506 -0.114716
C32   C     C_3   0.944996 0.059461 0.159212 -0.114786
C33   C     C_3   0.075657 0.020823 0.288935 -0.116941
C34   C     C_R   0.639926 0.499996 0.139655 0.544800
C35   C     C_3   0.924265 0.979514 0.710986 -0.116887
C36   C     C_3   0.424031 0.520491 0.710447 -0.117170
C37   C     C_3   0.445224 0.559693 0.159460 -0.114760
C38   C     C_3   0.575725 0.520528 0.289003 -0.116931
C39   C     C_3   0.553970 0.561225 0.838900 -0.115162
C40   C     C_3   0.049609 0.935989 0.763710 -0.239640
C41   C     C_3   0.950075 0.063767 0.235953 -0.239548
C42   C     C_3   0.077912 0.011986 0.362431 -0.219850
C43   C     C_3   0.922042 0.988408 0.637527 -0.219747
C44   C     C_3   0.421917 0.511333 0.637228 -0.219216
C45   C     C_1   0.717193 0.000038 0.717172 -0.058507
C46   C     C_3   0.450354 0.563985 0.236252 -0.239579
C47   C     C_3   0.577953 0.511643 0.362468 -0.219731
C48   C     C_3   0.548678 0.565463 0.761837 -0.239637
C49   C     C_3   0.024900 0.081223 0.806017 0.047701
C50   C     C_3   0.975475 0.918663 0.194372 0.047935
C51   C     C_3   0.525895 0.419864 0.808009 0.048689
C52   C     C_3   0.475148 0.418763 0.194032 0.047763
C53   C     C_3   0.002434 0.002874 0.812944 0.079450
C54   C     C_3   0.997594 0.997109 0.187084 0.079436
C55   C     C_3   0.502473 0.498024 0.812989 0.079550
C56   C     C_1   0.282807 0.999964 0.282828 -0.058479
C57   C     C_3   0.497568 0.497125 0.187058 0.079469
C58   C     C_3   0.000462 0.998052 0.689220 0.002828
C59   C     C_3   0.999541 0.001963 0.310784 0.002826
C60   C     C_3   0.500475 0.502656 0.689174 0.002825
C61   C     C_3   0.499538 0.501951 0.310781 0.002829
C62   C     C_3   0.032913 0.071570 0.742717 -0.191362
C63   C     C_3   0.967481 0.928271 0.257701 -0.191412
C64   C     C_3   0.534113 0.429701 0.744892 -0.191469
C65   C     C_3   0.467133 0.428412 0.257331 -0.191392
C66   C     C_1   0.782516 0.000038 0.782621 -0.067337
C67   C     C_1   0.217193 0.500065 0.717175 -0.058349
C68   C     C_1   0.217484 0.999963 0.217380 -0.067326
C69   C     C_1   0.282516 0.500062 0.782629 -0.067288
C70   C     C_1   0.717484 0.499992 0.217379 -0.067319
C71   C     C_3   0.135012 0.941337 0.943971 -0.281571
C72   C     C_3   0.166071 0.864529 0.983216 -0.449292
C73   C     C_3   0.864750 0.058024 0.055720 -0.281761
C74   C     C_3   0.833403 0.134683 0.015996 -0.448991
C75   C     C_3   0.143948 0.987258 0.325109 -0.290411
C76   C     C_3   0.211127 0.035831 0.398972 -0.455621
C77   C     C_3   0.856118 0.013329 0.674983 -0.290496
C78   C     C_1   0.782807 0.500007 0.282828 -0.058450
C79   C     C_3   0.788667 0.965189 0.600598 -0.455665
C80   C     C_3   0.356282 0.486114 0.675399 -0.290182
C81   C     C_3   0.287985 0.532854 0.598406 -0.456309
C82   C     C_3   0.364956 0.558588 0.055995 -0.281678
C83   C     C_3   0.333852 0.635378 0.016709 -0.449336
C84   C     C_3   0.643889 0.486740 0.325028 -0.290538
C85   C     C_3   0.711298 0.534955 0.399305 -0.455728
C86   C     C_3   0.634276 0.560976 0.942283 -0.281895
C87   C     C_3   0.664557 0.638093 0.979489 -0.449202
C88   C     C_3   0.097951 0.112543 0.904502 -0.385105
C89   C     C_R   0.000014 0.860110 0.499829 0.557263
C90   C     C_3   0.902519 0.887033 0.096055 -0.385110
C91   C     C_3   0.034063 0.858205 0.242218 -0.372836
C92   C     C_3   0.966566 0.141944 0.758366 -0.372801
C93   C     C_3   0.468200 0.358429 0.761395 -0.372027
C94   C     C_3   0.402112 0.387399 0.095569 -0.385056
C95   C     C_3   0.533517 0.358078 0.241714 -0.372740
C96   C     C_3   0.599179 0.389131 0.907285 -0.384777
Cu1   Cu    Cu3+1 0.000000 0.927450 0.000000 0.883530
Cu2   Cu    Cu3+1 0.500040 0.000000 0.562520 0.925285
Cu3   Cu    Cu3+1 0.999960 0.500000 0.437480 0.925386
Cu4   Cu    Cu3+1 0.000040 0.500000 0.562520 0.925306
Cu5   Cu    Cu3+1 0.000000 0.072550 0.000000 0.883761
Cu6   Cu    Cu3+1 0.500000 0.427450 0.000000 0.870191
Cu7   Cu    Cu3+1 0.500000 0.572550 0.000000 0.896834
Cu8   Cu    Cu3+1 0.927450 0.000000 0.427440 0.909294
Cu9   Cu    Cu3+1 0.072550 0.000000 0.572560 0.909330
Cu10  Cu    Cu3+1 0.427450 0.500000 0.427440 0.909284
Cu11  Cu    Cu3+1 0.572550 0.500000 0.572560 0.909272
Cu12  Cu    Cu3+1 0.499960 1.000000 0.437480 0.925305
H1    H     H_    0.032133 0.887734 0.835607 0.147408
H2    H     H_    0.973144 0.117440 0.272533 0.101261
H3    H     H_    0.103696 0.061303 0.408361 0.121293
H4    H     H_    0.896009 0.939228 0.591336 0.121472
H5    H     H_    0.395211 0.560122 0.589612 0.121783
H6    H     H_    0.473683 0.617550 0.273079 0.101076
H7    H     H_    0.603954 0.560841 0.408625 0.121477
H8    H     H_    0.524435 0.618655 0.723419 0.101346
H9    H     H_    0.104474 0.938901 0.796862 0.142639
H10   H     H_    0.895214 0.060561 0.202784 0.142765
H11   H     H_    0.112155 0.964639 0.410554 0.138587
H12   H     H_    0.967383 0.112106 0.163901 0.147411
H13   H     H_    0.888028 0.035927 0.589653 0.138451
H14   H     H_    0.388523 0.463372 0.590723 0.138383
H15   H     H_    0.395490 0.561040 0.203100 0.142640
H16   H     H_    0.611995 0.464146 0.410375 0.138436
H17   H     H_    0.603541 0.563392 0.794939 0.142368
H18   H     H_    0.091228 0.073441 0.786821 0.125175
H19   H     H_    0.909195 0.926074 0.213684 0.124948
H20   H     H_    0.993784 0.882753 0.310129 0.108248
H21   H     H_    0.006893 0.117235 0.690550 0.108358
H22   H     H_    0.509107 0.383595 0.694221 0.108319
H23   H     H_    0.080756 0.080323 0.284240 0.136252
H24   H     H_    0.408820 0.426505 0.213233 0.125172
H25   H     H_    0.493184 0.382764 0.309528 0.108324
H26   H     H_    0.592544 0.428857 0.789386 0.125280
H27   H     H_    0.135531 0.834376 0.989124 0.160351
H28   H     H_    0.162799 0.834221 0.935757 0.146075
H29   H     H_    0.224057 0.867921 0.055455 0.147226
H30   H     H_    0.170951 0.969961 0.946409 0.142412
H31   H     H_    0.139350 0.969253 0.993518 0.163474
H32   H     H_    0.836526 0.165138 0.063239 0.146521
H33   H     H_    0.863860 0.164838 0.009954 0.160551
H34   H     H_    0.918905 0.920031 0.715396 0.136086
H35   H     H_    0.775443 0.131021 0.943756 0.147426
H36   H     H_    0.860556 0.029960 0.006374 0.163366
H37   H     H_    0.828885 0.029352 0.053385 0.142381
H38   H     H_    0.201833 0.089495 0.366889 0.154130
H39   H     H_    0.224050 0.044213 0.461507 0.149083
H40   H     H_    0.258612 0.009479 0.423935 0.157293
H41   H     H_    0.158737 0.933452 0.359317 0.143767
H42   H     H_    0.134552 0.979950 0.265583 0.175371
H43   H     H_    0.775737 0.957173 0.538013 0.149200
H44   H     H_    0.797625 0.911343 0.632125 0.154109
H45   H     H_    0.417958 0.579933 0.713231 0.135077
H46   H     H_    0.741314 0.991686 0.575845 0.157252
H47   H     H_    0.865478 0.020320 0.734511 0.175513
H48   H     H_    0.841680 0.067313 0.641303 0.143774
H49   H     H_    0.295803 0.587398 0.627112 0.153298
H50   H     H_    0.275159 0.539392 0.535652 0.149217
H51   H     H_    0.241012 0.506085 0.574695 0.157366
H52   H     H_    0.343051 0.431468 0.644466 0.144393
H53   H     H_    0.365384 0.480465 0.734909 0.176127
H54   H     H_    0.337106 0.665686 0.064152 0.146091
H55   H     H_    0.364375 0.665551 0.010785 0.160240
H56   H     H_    0.467805 0.612248 0.164329 0.147259
H57   H     H_    0.275868 0.631953 0.944472 0.147295
H58   H     H_    0.360633 0.530671 0.006464 0.163353
H59   H     H_    0.329032 0.529942 0.053573 0.142458
H60   H     H_    0.702282 0.588759 0.367663 0.153994
H61   H     H_    0.724230 0.543059 0.461882 0.149237
H62   H     H_    0.758670 0.508468 0.424098 0.157282
H63   H     H_    0.658389 0.432794 0.358813 0.143823
H64   H     H_    0.634514 0.479675 0.265495 0.175641
H65   H     H_    0.660863 0.668237 0.931141 0.146881
H66   H     H_    0.633794 0.668066 0.984756 0.159765
H67   H     H_    0.581052 0.580013 0.284556 0.135991
H68   H     H_    0.722610 0.635289 0.051741 0.147088
H69   H     H_    0.638981 0.533248 0.992633 0.163447
H70   H     H_    0.670412 0.532589 0.945289 0.142604
H71   H     H_    0.146033 0.080981 0.938787 0.104536
H72   H     H_    0.108236 0.167767 0.895190 0.116611
H73   H     H_    0.098467 0.117974 0.955911 0.169596
H74   H     H_    0.901919 0.881631 0.044563 0.169595
H75   H     H_    0.892515 0.831750 0.105634 0.116112
H76   H     H_    0.854323 0.918368 0.061749 0.104489
H77   H     H_    0.079769 0.862271 0.320999 0.106763
H78   H     H_    0.530765 0.613467 0.832825 0.146635
H79   H     H_    0.011439 0.802936 0.228398 0.116646
H80   H     H_    0.056470 0.858068 0.217186 0.162737
H81   H     H_    0.944143 0.142236 0.783373 0.162804
H82   H     H_    0.989437 0.197104 0.772401 0.116829
H83   H     H_    0.920858 0.138054 0.679568 0.106753
H84   H     H_    0.422542 0.362023 0.682517 0.106409
H85   H     H_    0.491773 0.303595 0.776627 0.116121
H86   H     H_    0.445573 0.357414 0.786117 0.163720
H87   H     H_    0.401595 0.381955 0.044161 0.169959
H88   H     H_    0.391859 0.332174 0.104922 0.116558
H89   H     H_    0.026247 0.882438 0.726850 0.101062
H90   H     H_    0.354014 0.418937 0.061264 0.104536
H91   H     H_    0.579224 0.361993 0.320509 0.106713
H92   H     H_    0.510679 0.302903 0.227707 0.116831
H93   H     H_    0.555939 0.357805 0.216705 0.163104
H94   H     H_    0.599382 0.382953 0.958399 0.170687
H95   H     H_    0.610336 0.334300 0.899110 0.115707
H96   H     H_    0.646955 0.421469 0.941470 0.104230
O1    O     O_R   0.894190 0.938730 0.894180 -0.505478
O2    O     O_R   0.000020 0.061270 0.091170 -0.517484
O3    O     O_R   0.000020 0.938730 0.091170 -0.529547
O4    O     O_R   0.999980 0.061270 0.908830 -0.529508
O5    O     O_R   0.499980 0.438730 0.908830 -0.529169
O6    O     O_R   0.500020 0.561270 0.091170 -0.518519
O7    O     O_R   0.500020 0.438730 0.091170 -0.528596
O8    O     O_R   0.499980 0.561270 0.908830 -0.517796
O9    O     O_R   0.938700 0.894210 0.438700 -0.504591
O10   O     O_R   0.061300 0.105790 0.561300 -0.504552
O11   O     O_R   0.061300 0.894210 0.561300 -0.504359
O12   O     O_R   0.105810 0.061270 0.105820 -0.505437
O13   O     O_R   0.938700 0.105790 0.438700 -0.504324
O14   O     O_R   0.438700 0.394210 0.438700 -0.503113
O15   O     O_R   0.561300 0.605790 0.561300 -0.505534
O16   O     O_R   0.561300 0.394210 0.561300 -0.503437
O17   O     O_R   0.438700 0.605790 0.438700 -0.505819
O18   O     O_R   0.938740 0.000000 0.529880 -0.516309
O19   O     O_R   0.061260 1.000000 0.470120 -0.516293
O20   O     O_R   0.438740 0.500000 0.529880 -0.516364
O21   O     O_R   0.561260 0.500000 0.470120 -0.516306
O22   O     O_R   0.061220 0.000000 0.652370 -0.518569
O23   O     O_R   0.105810 0.938730 0.105820 -0.507621
O24   O     O_R   0.938780 0.000000 0.347630 -0.518575
O25   O     O_R   0.561220 0.500000 0.652370 -0.518609
O26   O     O_R   0.438780 0.500000 0.347630 -0.518570
O27   O     O_R   0.499910 0.105770 0.447130 -0.505482
O28   O     O_R   0.500090 0.894230 0.552870 -0.505327
O29   O     O_R   0.500090 0.105770 0.552870 -0.505896
O30   O     O_R   0.499910 0.894230 0.447130 -0.505733
O31   O     O_R   0.999910 0.605770 0.447130 -0.505933
O32   O     O_R   0.000090 0.394230 0.552870 -0.505595
O33   O     O_R   0.000090 0.605770 0.552870 -0.505632
O34   O     O_R   0.894190 0.061270 0.894180 -0.507576
O35   O     O_R   0.999910 0.394230 0.447130 -0.505274
O36   O     O_R   0.605760 1.000000 0.553010 -0.508980
O37   O     O_R   0.394240 0.000000 0.446990 -0.508978
O38   O     O_R   0.105760 0.500000 0.553010 -0.508943
O39   O     O_R   0.894240 0.500000 0.446990 -0.508999
O40   O     O_R   0.605780 1.000000 0.658540 -0.505561
O41   O     O_R   0.394220 0.000000 0.341460 -0.505523
O42   O     O_R   0.105780 0.500000 0.658540 -0.505550
O43   O     O_R   0.894220 0.500000 0.341460 -0.505495
O44   O     O_R   0.394190 0.438730 0.894180 -0.512225
O45   O     O_R   0.605810 0.561270 0.105820 -0.500872
O46   O     O_R   0.605810 0.438730 0.105820 -0.512341
O47   O     O_R   0.394190 0.561270 0.894180 -0.500926
O48   O     O_R   0.999980 0.938730 0.908830 -0.517551

loop_
_geom_bond_atom_site_label_1
_geom_bond_atom_site_label_2
_ccdc_geom_bond_type
C58   C62   S    
C14   O36   A    
C74   H35   S    
C15   O37   A    
C75   C76   S    
C9    C22   S    
C13   C26   S    
Cu9   O11   S    
C7    O20   A    
C35   C53   S    
C28   O2    A    
C73   C74   S    
C23   C69   S    
C93   H86   S    
C62   H21   S    
C91   H80   S    
C84   H63   S    
C47   H16   S    
C13   O35   A    
Cu4   O42   S    
C5    O22   A    
C47   H7    S    
C87   H68   S    
C12   C68   S    
C50   C54   S    
C5    C58   S    
C88   H71   S    
C94   H88   S    
C33   C42   S    
C89   O9    A    
C75   H41   S    
Cu8   O9    S    
C83   H55   S    
C20   C22   T    
C77   H48   S    
C7    O25   A    
C42   H11   S    
C72   H28   S    
Cu10  O17   S    
C70   C78   T    
C40   H89   S    
C17   O43   A    
Cu5   O12   S    
C88   H73   S    
C4    O17   A    
C30   C57   S    
C86   H70   S    
Cu2   Cu12  S    
C31   C40   S    
C52   C95   S    
C27   O4    A    
C32   C54   S    
C23   O44   A    
C19   C26   T    
Cu2   O37   S    
C23   O47   A    
C80   H53   S    
C43   C58   S    
C48   H17   S    
C39   H78   S    
C8    O26   A    
C33   C75   S    
C39   C55   S    
C15   O41   A    
C76   H39   S    
C92   H82   S    
C95   H92   S    
C6    O24   A    
C2    O13   A    
C32   C41   S    
C52   C94   S    
Cu9   O10   S    
C41   H10   S    
C71   H30   S    
C35   C43   S    
C43   H13   S    
Cu2   O40   S    
C63   H20   S    
C92   H83   S    
C51   C96   S    
C48   H8    S    
C63   H19   S    
Cu3   O35   S    
C33   H23   S    
C31   C71   S    
C40   H9    S    
C91   H77   S    
C76   H38   S    
C50   C63   S    
C85   H60   S    
C49   C88   S    
C18   C25   T    
C32   H12   S    
Cu5   O2    S    
Cu7   O6    S    
Cu8   O18   S    
Cu8   Cu9   S    
C50   C90   S    
C36   H45   S    
C48   C60   S    
Cu1   O48   S    
C64   H26   S    
C82   H59   S    
C77   C79   S    
C11   O31   A    
C37   C57   S    
C87   H65   S    
Cu10  O20   S    
C10   O30   A    
C40   C58   S    
C46   H6    S    
C46   C61   S    
C9    O29   A    
C94   H87   S    
Cu7   O45   S    
C90   H74   S    
C3    C20   S    
C81   H49   S    
C84   C85   S    
C41   C59   S    
C36   C80   S    
C30   O7    A    
C62   H18   S    
C28   C54   S    
C86   C87   S    
C3    O16   A    
C72   H27   S    
C71   H31   S    
C29   C55   S    
C51   C55   S    
C10   C24   S    
Cu8   O24   S    
C74   H32   S    
Cu12  O41   S    
C35   C77   S    
C86   H69   S    
C85   H61   S    
Cu10  O26   S    
C73   H37   S    
C94   H90   S    
C31   C53   S    
C14   O40   A    
C42   H3    S    
C47   C61   S    
Cu5   O4    S    
C38   C57   S    
Cu3   O31   S    
C9    O27   A    
Cu3   Cu4   S    
C8    O21   A    
C4    O15   A    
C10   O28   A    
C1    C66   S    
C31   H1    S    
C21   C24   T    
Cu6   O44   S    
Cu4   O33   S    
C34   O46   A    
C16   C67   S    
Cu12  O36   S    
Cu9   O22   S    
Cu1   O3    S    
C96   H95   S    
C29   O5    A    
C83   H57   S    
C76   H40   S    
C38   C47   S    
Cu4   O39   S    
C51   C93   S    
C37   H56   S    
Cu2   O28   S    
C72   H29   S    
Cu10  O14   S    
C83   H54   S    
C90   H76   S    
C44   H5    S    
C2    O10   A    
C41   H2    S    
Cu11  O25   S    
Cu6   O7    S    
Cu11  O15   S    
C46   H15   S    
Cu4   O32   S    
C11   O33   A    
C43   H4    S    
C12   O12   A    
C49   C92   S    
Cu3   O43   S    
C7    C60   S    
C32   C73   S    
C65   H24   S    
C1    O1    A    
C92   H81   S    
C29   O8    A    
C79   H43   S    
C6    O19   A    
C82   H58   S    
C93   H84   S    
C67   C69   T    
C33   C54   S    
C28   O3    A    
C87   H66   S    
C34   C70   S    
C49   C62   S    
Cu1   O23   S    
C2    C19   S    
Cu6   O46   S    
C18   C89   S    
C6    C59   S    
C74   H33   S    
C36   C44   S    
C93   H85   S    
C51   C64   S    
C64   H22   S    
C80   C81   S    
C84   H64   S    
C42   C59   S    
C30   O6    A    
Cu5   O34   S    
C81   H51   S    
C27   C53   S    
Cu6   O5    S    
C96   H94   S    
C14   C45   S    
C16   O42   A    
C1    O34   A    
C95   H93   S    
C8    C61   S    
C59   C63   S    
C85   H62   S    
C89   O11   A    
C60   C64   S    
C81   H50   S    
C15   C56   S    
Cu3   O38   S    
Cu7   O47   S    
C71   C72   S    
C36   C55   S    
C56   C68   T    
C77   H47   S    
C79   H46   S    
Cu7   O8    S    
C4    C21   S    
C38   H67   S    
Cu2   O29   S    
C44   C60   S    
C3    O14   A    
C49   C53   S    
C88   H72   S    
Cu11  O21   S    
C12   O23   A    
C44   H14   S    
C17   C78   S    
Cu9   O19   S    
C5    O18   A    
C34   O45   A    
C96   H96   S    
Cu6   Cu7   S    
C37   C82   S    
Cu1   Cu5   S    
Cu8   O13   S    
C80   H52   S    
C52   C57   S    
C27   O48   A    
C35   H34   S    
Cu11  O16   S    
C61   C65   S    
C50   C91   S    
C90   H75   S    
C17   O39   A    
C95   H91   S    
C82   C83   S    
Cu10  Cu11  S    
C38   C84   S    
C13   O32   A    
C45   C66   T    
Cu12  O30   S    
C11   C25   S    
C39   C48   S    
C75   H42   S    
C39   C86   S    
Cu1   O1    S    
C37   C46   S    
C91   H79   S    
C73   H36   S    
C65   H25   S    
C52   C65   S    
C79   H44   S    
Cu12  O27   S    
C16   O38   A    
