data_mof_unit_15502.cif
_audit_creation_date              2012-12-10T18:09:01-0500
_audit_creation_method            fapswitch 2.2
_symmetry_space_group_name_H-M    P1
_symmetry_Int_Tables_number       1
_space_group_crystal_system       triclinic
_cell_length_a                    12.985369
_cell_length_b                    13.267512
_cell_length_c                    13.531985
_cell_angle_alpha                 86.344882
_cell_angle_beta                  94.341461
_cell_angle_gamma                 94.958504
_cell_volume                      2312.10547847

loop_
_atom_site_label
_atom_site_type_symbol
_atom_type_description
_atom_site_fract_x
_atom_site_fract_y
_atom_site_fract_z
_atom_type_partial_charge
Br1   Br    Br    0.647173 0.412785 0.979279 -0.412582
Br2   Br    Br    0.354767 0.725090 0.669298 -0.510303
Br3   Br    Br    0.691490 0.312403 0.705381 -0.378398
Br4   Br    Br    0.062211 0.224140 0.658712 -0.403455
Br5   Br    Br    0.935055 0.345881 0.802320 -0.363355
Br6   Br    Br    0.111110 0.678522 0.184185 -0.578664
Br7   Br    Br    0.267318 0.360788 0.647836 -0.428023
Br8   Br    Br    0.122129 0.057474 0.493872 -0.569618
Br9   Br    Br    0.770065 0.721380 0.666229 -0.492945
C1    C     C_R   0.553698 0.687594 0.524706 0.881620
C2    C     C_R   0.451339 0.030139 0.528939 0.044318
C3    C     C_R   0.343248 0.996101 0.515713 0.013117
C4    C     C_R   0.516438 0.494588 0.318961 0.869836
C5    C     C_R   0.314374 0.890632 0.531342 0.018596
C6    C     C_R   0.391396 0.826560 0.566822 0.265389
C7    C     C_R   0.482768 0.132340 0.509394 -0.211855
C8    C     C_R   0.306058 0.171700 0.477136 -0.142724
C9    C     C_R   0.576060 0.788883 0.566916 -0.170250
C10   C     C_R   0.898820 0.379715 0.663257 0.239877
C11   C     C_R   0.218381 0.608555 0.363913 -0.029466
C12   C     C_1   0.523331 0.479451 0.218515 -0.178961
C13   C     C_R   0.123255 0.613977 0.314833 0.199462
C14   C     C_R   0.036862 0.571992 0.360873 -0.250871
C15   C     C_R   0.042015 0.516068 0.454637 -0.022258
C16   C     C_R   0.443853 0.310228 0.488245 0.914415
C17   C     C_R   0.144566 0.498558 0.494392 0.110643
C18   C     C_R   0.953721 0.473959 0.509743 -0.064400
C19   C     C_R   0.973782 0.409360 0.595381 -0.146227
C20   C     C_R   0.065788 0.365726 0.607806 0.299655
C21   C     C_R   0.153798 0.416619 0.570705 0.204861
C22   C     C_R   0.846787 0.490802 0.488443 0.166434
C23   C     C_R   0.270725 0.071164 0.492679 0.283926
C24   C     C_R   0.796928 0.388981 0.633522 0.351308
C25   C     C_R   0.482879 0.503234 0.681160 0.951330
C26   C     C_1   0.468448 0.499080 0.782535 -0.023946
C27   C     C_2   0.443296 0.486231 0.971252 0.017776
C28   C     C_2   0.524906 0.457438 0.029811 0.270111
C29   C     C_1   0.526760 0.466741 0.133026 -0.038457
C30   C     C_1   0.454214 0.493617 0.868109 0.087685
C31   C     C_3   0.810560 0.554980 0.399251 -0.339069
C32   C     C_3   0.800122 0.494594 0.303555 -0.359781
C33   C     C_3   0.777000 0.563988 0.211422 -0.772884
C34   C     C_R   0.410889 0.202831 0.488081 -0.112867
C35   C     C_3   0.343338 0.517252 0.007655 -0.437528
C36   C     C_3   0.253087 0.438681 0.982003 -0.343696
C37   C     C_3   0.152455 0.466594 0.020501 -0.691466
C38   C     C_3   0.204923 0.842024 0.510927 -0.355299
C39   C     C_3   0.166725 0.853781 0.400522 -0.303401
C40   C     C_3   0.049359 0.828667 0.386609 -0.763310
C41   C     C_3   0.793424 0.956676 0.698283 -0.384102
C42   C     C_3   0.894041 0.959914 0.645008 -0.322585
C43   C     C_3   0.987571 0.957211 0.720523 -0.670488
C44   C     C_R   0.674634 0.819507 0.613349 0.247450
C45   C     C_R   0.698336 0.922293 0.633231 0.088835
C46   C     C_R   0.627694 0.992980 0.599392 -0.216954
C47   C     C_R   0.526693 0.961559 0.560037 0.037457
C48   C     C_R   0.497514 0.857825 0.561260 -0.039584
H1    H     H_    0.286952 0.641922 0.329915 0.163685
H2    H     H_    0.739825 0.430699 0.307317 0.257924
H3    H     H_    0.737888 0.585697 0.410089 0.259828
H4    H     H_    0.858007 0.628280 0.395136 0.159545
H5    H     H_    0.160471 0.468776 0.102670 0.266478
H6    H     H_    0.132156 0.541673 0.987304 0.289759
H7    H     H_    0.088650 0.408902 0.999919 0.277958
H8    H     H_    0.241744 0.433590 0.900121 0.267283
H9    H     H_    0.271120 0.363042 0.015765 0.240555
H10   H     H_    0.348980 0.526242 0.088903 0.223204
H11   H     H_    0.326663 0.592257 0.971371 0.240278
H12   H     H_    0.970500 0.585856 0.315404 0.203375
H13   H     H_    0.026463 0.755187 0.425700 0.251504
H14   H     H_    0.006965 0.887168 0.417254 0.281944
H15   H     H_    0.024865 0.825433 0.306494 0.280274
H16   H     H_    0.186424 0.930614 0.366919 0.254405
H17   H     H_    0.207507 0.803484 0.357741 0.223773
H18   H     H_    0.200873 0.759119 0.529358 0.225241
H19   H     H_    0.152022 0.870539 0.561086 0.247880
H20   H     H_    0.990118 0.021364 0.769750 0.289218
H21   H     H_    0.983187 0.884792 0.766560 0.259926
H22   H     H_    0.060233 0.962675 0.681922 0.278968
H23   H     H_    0.249624 0.227137 0.460884 0.215791
H24   H     H_    0.893793 0.895033 0.597075 0.249344
H25   H     H_    0.901640 0.030568 0.596473 0.267174
H26   H     H_    0.786444 0.033481 0.724396 0.222495
H27   H     H_    0.797185 0.905479 0.766552 0.245880
H28   H     H_    0.563738 0.158744 0.510081 0.175179
H29   H     H_    0.649294 0.071148 0.614687 0.173713
H30   H     H_    0.706130 0.603124 0.218903 0.251015
H31   H     H_    0.842033 0.622467 0.200014 0.270146
H32   H     H_    0.765543 0.518504 0.144995 0.293072
H33   H     H_    0.870264 0.455031 0.294123 0.222673
N1    N     N_R   0.773270 0.445590 0.549770 -0.166637
N2    N     N_R   0.227520 0.553880 0.450750 -0.127687
O1    O     O_R   0.631100 0.627590 0.523760 -0.601621
O2    O     O_R   0.455900 0.662370 0.491970 -0.609430
O3    O     O_R   0.600200 0.480080 0.377830 -0.640212
O4    O     O_R   0.425000 0.514870 0.346040 -0.620846
O5    O     O_R   0.544100 0.337630 0.508030 -0.598847
O6    O     O_R   0.368900 0.372410 0.476240 -0.595726
O7    O     O_R   0.575000 0.485130 0.653960 -0.549741
O8    O     O_R   0.399800 0.519920 0.622170 -0.549845
Zn1   Zn    Zn3+2 0.616980 0.476780 0.521230 1.003713
Zn2   Zn    Zn3+2 0.383020 0.523220 0.478770 0.993060

loop_
_geom_bond_atom_site_label_1
_geom_bond_atom_site_label_2
_ccdc_geom_bond_type
C46   C47   A    
C31   H3    S    
O4    Zn2   S    
C32   C33   S    
C14   H12   S    
C15   C18   A    
C16   C34   S    
C41   H27   S    
C44   C45   A    
C47   C48   A    
C11   N2    A    
C41   C45   S    
C37   H5    S    
C19   C20   A    
C15   C17   A    
C38   H19   S    
C24   N1    A    
Br3   C24   S    
C17   N2    A    
Br6   C13   S    
C22   C31   S    
C25   C26   S    
C9    C44   A    
C12   C29   T    
C40   H15   S    
C25   O8    A    
C14   C15   A    
C43   H22   S    
C42   H24   S    
Br4   C20   S    
N2    Zn2   S    
C32   H33   S    
Br7   C21   S    
C3    C23   A    
C6    C48   A    
N1    Zn1   S    
C43   H21   S    
C41   H26   S    
C25   O7    A    
C4    O4    A    
C18   C22   A    
C42   C43   S    
Br8   C23   S    
C39   H17   S    
C32   H2    S    
C10   C24   A    
O1    Zn1   S    
C1    O1    A    
C36   C37   S    
C8    H23   S    
C31   H4    S    
C37   H7    S    
C26   C30   T    
C8    C34   A    
C28   C29   S    
C10   C19   A    
C2    C7    A    
C9    C48   A    
C38   C39   S    
C7    C34   A    
O8    Zn2   S    
C41   C42   S    
C4    C12   S    
Br2   C6    S    
C42   H25   S    
C16   O5    A    
C31   C32   S    
O7    Zn1   S    
C11   C13   A    
C17   C21   A    
C22   N1    A    
C40   H13   S    
C36   H8    S    
C7    H28   S    
C27   C35   S    
C33   H31   S    
C11   H1    S    
C43   H20   S    
C36   H9    S    
C35   C36   S    
C45   C46   A    
C27   C28   D    
C13   C14   A    
C39   H16   S    
C27   C30   S    
C3    C5    A    
C2    C3    A    
C5    C38   S    
Br5   C10   S    
Br1   C28   S    
C37   H6    S    
C33   H32   S    
C46   H29   S    
C38   H18   S    
O6    Zn2   S    
C4    O3    A    
C1    C9    S    
C39   C40   S    
C35   H11   S    
C20   C21   A    
C16   O6    A    
Br9   C44   S    
O2    Zn2   S    
C40   H14   S    
C18   C19   A    
C8    C23   A    
C1    O2    A    
C5    C6    A    
C35   H10   S    
C33   H30   S    
O5    Zn1   S    
C2    C47   A    
O3    Zn1   S    
