data_mof_unit_7399.cif
_audit_creation_date              2012-12-10T17:49:41-0500
_audit_creation_method            fapswitch 2.2
_symmetry_space_group_name_H-M    P1
_symmetry_Int_Tables_number       1
_space_group_crystal_system       triclinic
_cell_length_a                    14.74981
_cell_length_b                    14.634786
_cell_length_c                    15.918482
_cell_angle_alpha                 75.93054
_cell_angle_beta                  103.086558
_cell_angle_gamma                 115.021862
_cell_volume                      2990.25612565

loop_
_atom_site_label
_atom_site_type_symbol
_atom_type_description
_atom_site_fract_x
_atom_site_fract_y
_atom_site_fract_z
_atom_type_partial_charge
C1    C     C_R   0.880124 0.311506 0.510493 0.855024
C2    C     C_3   0.089748 0.480237 0.070553 -0.114689
C3    C     C_3   0.998514 0.503212 0.082096 -0.078825
C4    C     C_3   0.010100 0.612434 0.027572 0.579795
C5    C     C_3   0.017294 0.614216 0.929610 -0.127202
C6    C     C_1   0.999502 0.501759 0.175031 0.114132
C7    C     C_1   0.998932 0.502031 0.823744 0.125792
C8    C     C_1   0.999982 0.500740 0.748890 -0.127743
C9    C     C_R   0.811887 0.201616 0.514335 -0.218352
C10   C     C_R   0.186061 0.797823 0.490135 -0.174407
C11   C     C_R   0.784248 0.020533 0.557276 0.098217
C12   C     C_R   0.999993 0.499989 0.659628 0.812122
C13   C     C_R   0.849809 0.124311 0.547110 0.574699
C14   C     C_R   0.707285 0.173088 0.485304 0.045112
C15   C     C_R   0.640038 0.072227 0.513607 0.039168
C16   C     C_R   0.678420 0.994291 0.542725 -0.066637
C17   C     C_R   0.535590 0.047058 0.513312 -0.006257
C18   C     C_R   0.466546 0.943971 0.519683 -0.025567
C19   C     C_R   0.506285 0.866717 0.544821 0.576920
C20   C     C_R   0.610007 0.892135 0.557427 -0.223024
C21   C     C_R   0.500947 0.122104 0.515925 -0.173390
C22   C     C_R   0.398771 0.100529 0.513234 0.155739
C23   C     C_R   0.119427 0.688581 0.488237 0.831007
C24   C     C_R   0.326647 0.999573 0.507195 -0.024439
C25   C     C_R   0.361062 0.922239 0.506786 -0.001872
C26   C     C_R   0.221509 0.972784 0.502926 0.604631
C27   C     C_R   0.151580 0.871918 0.498026 0.046882
C28   C     C_R   0.289149 0.825893 0.490584 -0.191346
C29   C     C_R   0.710374 0.665001 0.348903 -0.292924
C30   C     C_R   0.790602 0.633133 0.370263 0.354810
C31   C     C_R   0.719448 0.519171 0.494352 0.025115
C32   C     C_R   0.636184 0.551072 0.475199 -0.005003
C33   C     C_R   0.631878 0.623928 0.399136 0.096925
C34   C     C_R   0.000022 0.500182 0.340328 0.812314
C35   C     C_R   0.555464 0.510579 0.526760 -0.153716
C36   C     C_R   0.465463 0.530975 0.494392 -0.009256
C37   C     C_R   0.465720 0.604340 0.418837 -0.109995
C38   C     C_R   0.548263 0.653123 0.372945 0.161978
C39   C     C_R   0.563299 0.455203 0.611764 0.484452
C40   C     C_R   0.479718 0.404352 0.655275 0.556418
C41   C     C_R   0.384491 0.405583 0.615417 -0.118871
C42   C     C_R   0.378406 0.477693 0.539306 -0.096986
C43   C     C_R   0.296325 0.339603 0.652366 0.106660
C44   C     C_R   0.208576 0.361984 0.626205 0.363001
C45   C     C_3   0.084797 0.475198 0.972917 0.388557
C46   C     C_R   0.285508 0.492761 0.511785 0.081024
C47   C     C_3   0.895562 0.420022 0.947529 0.510631
C48   C     C_3   0.896790 0.422096 0.045541 0.382591
C49   C     C_1   0.000010 0.500827 0.250731 -0.161875
C50   C     C_3   0.996834 0.503903 0.915224 -0.094819
Cu1   Cu    Cu3+1 0.081750 0.475690 0.522550 0.997308
Cu2   Cu    Cu3+1 0.918250 0.524310 0.477450 0.941906
H1    H     H_    0.160614 0.545244 0.089078 0.258218
H2    H     H_    0.635790 0.830079 0.580033 0.191043
H3    H     H_    0.312256 0.771535 0.475670 0.222154
H4    H     H_    0.073237 0.397137 0.965527 0.187423
H5    H     H_    0.554762 0.197992 0.525167 0.166531
H6    H     H_    0.276314 0.548750 0.456459 0.127260
H7    H     H_    0.708404 0.720322 0.290188 0.167643
H8    H     H_    0.723136 0.458382 0.547146 0.204223
H9    H     H_    0.402449 0.626374 0.394122 0.130374
H10   H     H_    0.833393 0.440055 0.053045 0.076517
H11   H     H_    0.097772 0.661452 0.920662 0.277581
N1    N     N_R   0.795410 0.560790 0.443550 -0.194027
N2    N     N_R   0.204590 0.439170 0.556520 -0.194301
O1    O     O_R   0.977910 0.338120 0.529720 -0.532779
O2    O     O_R   0.839850 0.379180 0.491640 -0.587965
O3    O     O_R   0.069060 0.479460 0.639610 -0.577638
O4    O     O_R   0.931000 0.520530 0.601530 -0.568543
O5    O     O_R   0.160150 0.620820 0.508360 -0.567085
O6    O     O_R   0.022090 0.661880 0.470280 -0.593927
O7    O     O_R   0.069000 0.479470 0.398470 -0.576780
O8    O     O_R   0.930940 0.520540 0.360390 -0.585480
C51   C     C_3   0.100788 0.384260 0.130614 -0.748912
H12   H     H_    0.172669 0.381117 0.123743 0.230166
H13   H     H_    0.103955 0.386601 0.200392 0.246345
H14   H     H_    0.038489 0.312897 0.112965 0.307347
F1    F     F_    0.176830 0.540294 0.944540 -0.649136
C52   C     C_3   0.926958 0.646343 0.037102 -0.766881
H15   H     H_    0.921437 0.639199 0.106940 0.220538
H16   H     H_    0.946251 0.728310 0.008451 0.262209
H17   H     H_    0.851584 0.601805 0.004370 0.174061
C53   C     C_3   0.041637 0.845464 0.502650 -0.704900
H18   H     H_    0.015407 0.781307 0.557177 0.223294
H19   H     H_    0.028183 0.909732 0.515119 0.270723
H20   H     H_    0.994821 0.824537 0.439745 0.230033
C54   C     C_3   0.370936 0.188102 0.515551 -0.712814
H21   H     H_    0.321231 0.202111 0.454480 0.267881
H22   H     H_    0.332724 0.170546 0.573360 0.264957
H23   H     H_    0.438153 0.260793 0.520546 0.174988
C55   C     C_3   0.828054 0.939322 0.586476 -0.767734
H24   H     H_    0.911810 0.971817 0.593746 0.282385
H25   H     H_    0.805572 0.894443 0.650814 0.226518
H26   H     H_    0.799958 0.887490 0.537381 0.219355
F2    F     F_    0.951001 0.149466 0.565699 -0.671209
C56   C     C_3   0.671128 0.240923 0.408927 -0.760953
H27   H     H_    0.598053 0.196021 0.372491 0.232057
H28   H     H_    0.662195 0.302560 0.430998 0.232112
H29   H     H_    0.725961 0.276262 0.361104 0.238188
F3    F     F_    0.447898 0.766748 0.569101 -0.674472
F4    F     F_    0.185445 0.043395 0.505114 -0.680968
C57   C     C_3   0.543422 0.734294 0.294305 -0.842178
H30   H     H_    0.473684 0.749279 0.284979 0.239008
H31   H     H_    0.608769 0.807480 0.302922 0.239791
H32   H     H_    0.544309 0.709494 0.233991 0.243481
C58   C     C_3   0.123963 0.300604 0.681620 -0.664121
H33   H     H_    0.057654 0.318947 0.666046 0.266072
H34   H     H_    0.094771 0.218397 0.677683 0.249621
H35   H     H_    0.153643 0.310335 0.750910 0.192806
F5    F     F_    0.495366 0.361510 0.740298 -0.620864
C59   C     C_3   0.863901 0.675885 0.304328 -0.761421
H36   H     H_    0.943367 0.701377 0.334128 0.253364
H37   H     H_    0.845536 0.619021 0.261603 0.229789
H38   H     H_    0.857670 0.745081 0.259933 0.188842
C60   C     C_3   0.798167 0.428024 0.891387 -0.666762
H39   H     H_    0.733010 0.354677 0.905550 0.279560
H40   H     H_    0.780121 0.487683 0.906511 0.162999
H41   H     H_    0.802491 0.442307 0.820420 0.264344
F6    F     F_    0.653470 0.457490 0.657856 -0.657520
C61   C     C_3   0.292755 0.242054 0.716128 -0.722221
H42   H     H_    0.224044 0.175759 0.697550 0.219541
H43   H     H_    0.354627 0.218949 0.714421 0.267082
H44   H     H_    0.294233 0.250964 0.783766 0.257804
F7    F     F_    0.891088 0.324908 0.941566 -0.606632
F8    F     F_    0.879815 0.325891 0.095320 -0.597466
C62   C     C_3   0.961876 0.673331 0.858597 -0.852876
H45   H     H_    0.991156 0.753743 0.869154 0.259732
H46   H     H_    0.976979 0.676749 0.792476 0.247992
H47   H     H_    0.879409 0.640221 0.858103 0.253586
F9    F     F_    0.100691 0.683744 0.061480 -0.644708

loop_
_geom_bond_atom_site_label_1
_geom_bond_atom_site_label_2
_ccdc_geom_bond_type
C10   C27   A    
C12   O4    A    
C62   H45   S    
C30   N1    A    
C41   C42   A    
C36   C42   A    
C35   C36   A    
C54   H21   S    
C3    C6    S    
C7    C8    T    
C25   C28   A    
C47   C60   S    
C12   O3    A    
C26   C27   A    
C37   C38   A    
C51   H13   S    
C13   F2    S    
C53   H18   S    
C36   C37   A    
C24   C26   A    
C26   F4    S    
Cu1   N2    S    
C58   H33   S    
C15   C16   A    
C56   H29   S    
C29   C33   A    
C3    C48   S    
C5    H11   S    
C57   H32   S    
C18   C19   A    
C42   C46   A    
C9    C13   A    
Cu2   O4    S    
C48   F8    S    
C29   H7    S    
C45   H4    S    
C60   H40   S    
C51   H14   S    
C56   H28   S    
C5    C62   S    
C45   F1    S    
Cu1   O5    S    
C2    C51   S    
C61   H44   S    
C16   C20   A    
C43   C61   S    
C21   C22   A    
C46   H6    S    
C41   C43   A    
C23   O5    A    
C44   N2    A    
C18   C25   A    
C14   C56   S    
C28   H3    S    
C61   H43   S    
C17   C18   A    
C47   C50   S    
C2    C45   S    
C51   H12   S    
Cu1   Cu2   S    
C32   C35   A    
C23   O6    A    
C1    C9    S    
C24   C25   A    
C46   N2    A    
C20   H2    S    
Cu2   O8    S    
Cu2   N1    S    
C55   H24   S    
C52   H16   S    
C40   F5    S    
C62   H47   S    
C17   C21   A    
Cu1   O1    S    
C31   H8    S    
C35   C39   A    
C9    C14   A    
C21   H5    S    
C29   C30   A    
C55   H25   S    
C11   C16   A    
C48   H10   S    
C47   C48   S    
C8    C12   S    
C60   H41   S    
C56   H27   S    
C1    O1    A    
C59   H37   S    
C22   C54   S    
C57   H31   S    
Cu2   O2    S    
C4    C52   S    
C40   C41   A    
C53   H19   S    
C54   H22   S    
C43   C44   A    
C22   C24   A    
C5    C50   S    
Cu1   O7    S    
C3    C4    S    
C34   O7    A    
C39   C40   A    
C61   H42   S    
C10   C28   A    
C15   C17   A    
C34   C49   S    
C62   H46   S    
C37   H9    S    
C59   H36   S    
C31   N1    A    
C31   C32   A    
C7    C50   S    
C4    C5    S    
C2    H1    S    
C52   H17   S    
C4    F9    S    
C19   F3    S    
C44   C58   S    
C10   C23   S    
C33   C38   A    
C30   C59   S    
C32   C33   A    
C19   C20   A    
C27   C53   S    
C2    C3    S    
C38   C57   S    
Cu2   O6    S    
C55   H26   S    
C11   C13   A    
C47   F7    S    
C58   H34   S    
C45   C50   S    
C39   F6    S    
C1    O2    A    
C59   H38   S    
Cu1   O3    S    
C6    C49   T    
C57   H30   S    
C34   O8    A    
C52   H15   S    
C11   C55   S    
C53   H20   S    
C54   H23   S    
C14   C15   A    
C60   H39   S    
C58   H35   S    
