data_mof_unit_38932.cif
_audit_creation_date              2013-03-05T16:09:49-0500
_audit_creation_method            fapswitch 2.2
_symmetry_space_group_name_H-M    P1
_symmetry_Int_Tables_number       1
_space_group_crystal_system       triclinic
_cell_length_a                    8.195253
_cell_length_b                    15.143731
_cell_length_c                    26.923048
_cell_angle_alpha                 98.974454
_cell_angle_beta                  92.82539
_cell_angle_gamma                 80.607971
_cell_volume                      3255.20943891

loop_
_atom_site_label
_atom_site_type_symbol
_atom_site_description
_atom_site_fract_x
_atom_site_fract_y
_atom_site_fract_z
_atom_type_partial_charge
P1    P     P_3+3 0.071950 0.575820 0.612140 0.457198
O1    O     O_2   0.906480 0.548660 0.619050 -0.381766
O2    O     O_3   0.138490 0.548590 0.558870 -0.404197
O3    O     O_3   0.686300 0.382310 0.585700 -0.397947
O4    O     O_2   0.852651 0.425288 0.669989 -0.375946
O5    O     O_3   0.029387 0.693943 0.626977 -0.584759
O6    O     O_3   0.683360 0.294467 0.671303 -0.482558
H1    H     H_    0.803377 0.233478 0.604957 0.174506
C1    C     C_3   0.748038 0.133282 0.645768 -0.890492
H2    H     H_    0.774921 0.080770 0.612226 0.210208
H3    H     H_    0.859330 0.131824 0.671002 0.271936
P2    P     P_3+3 0.664370 0.290050 0.457240 0.480513
P3    P     P_3+3 0.146885 0.219840 0.560516 0.438292
O7    O     O_2   0.844040 0.276390 0.471470 -0.386735
O8    O     O_3   0.101510 0.335500 0.560330 -0.347882
O9    O     O_2   0.010780 0.177418 0.527952 -0.401959
O10   O     O_3   0.660086 0.261616 0.391759 -0.544915
O11   O     O_3   0.112879 0.200730 0.621335 -0.539109
C2    C     C_3   0.260502 0.200935 0.650056 0.163384
H4    H     H_    0.302789 0.267926 0.653445 0.108031
H5    H     H_    0.358194 0.146814 0.632805 0.063921
C3    C     C_3   0.228622 0.181455 0.702461 -0.070161
H6    H     H_    0.157219 0.242533 0.724479 0.141840
H7    H     H_    0.153529 0.125757 0.698805 0.135575
C4    C     C_3   0.217976 0.266023 0.413195 0.401910
H8    H     H_    0.333567 0.290911 0.427030 0.090683
H9    H     H_    0.127151 0.281684 0.443731 0.109394
C5    C     C_3   0.252107 0.163443 0.397552 -0.627628
H10   H     H_    0.281737 0.130069 0.431421 0.174720
H11   H     H_    0.139649 0.139337 0.379062 0.246445
Ba1   Ba    Ba6+2 0.860050 0.456430 0.522530 1.552417
C6    C     C_3   0.975868 0.732294 0.583868 0.409160
H12   H     H_    0.862328 0.707211 0.568418 0.099860
H13   H     H_    0.071186 0.715320 0.554770 0.146693
C7    C     C_3   0.941323 0.834784 0.598226 -0.988702
H14   H     H_    0.838987 0.854159 0.625279 0.278599
H15   H     H_    0.906083 0.867708 0.564492 0.227938
H16   H     H_    0.054002 0.859732 0.615777 0.256407
C8    C     C_3   0.718126 0.326979 0.369268 0.241366
H17   H     H_    0.838116 0.341253 0.386342 0.100773
H18   H     H_    0.625909 0.389889 0.373694 0.073742
C9    C     C_3   0.740399 0.291229 0.313215 -0.101860
H19   H     H_    0.779702 0.343740 0.294163 0.074482
H20   H     H_    0.620465 0.276055 0.295693 0.128602
P4    P     P_3+3 0.117760 0.424110 0.387850 0.487085
O12   O     O_2   0.283210 0.451310 0.380920 -0.360480
O13   O     O_3   0.051220 0.451340 0.441120 -0.408204
O14   O     O_3   0.503410 0.617620 0.414290 -0.380676
O15   O     O_3   0.155798 0.306288 0.371448 -0.546631
P5    P     P_3+3 0.051737 0.780561 0.437077 0.447344
O16   O     O_3   0.617150 0.609960 0.527100 -0.384940
O17   O     O_3   0.088210 0.664420 0.439670 -0.360152
O18   O     O_2   0.184780 0.822420 0.471232 -0.392568
O19   O     O_3   0.099127 0.795310 0.376641 -0.501073
Ba2   Ba    Ba6+2 0.329780 0.543490 0.477460 1.551043
P6    P     P_3+3 0.682306 0.399777 0.651360 0.493067
C10   C     C_3   0.702582 0.225933 0.629196 0.497307
H21   H     H_    0.585074 0.227789 0.607034 0.001735
H22   H     H_    0.644657 0.116776 0.665657 0.277655
O20   O     O_3   0.572560 0.389960 0.472890 -0.380223
C11   C     C_3   0.552466 0.696967 0.636474 0.341529
H23   H     H_    0.620223 0.631292 0.618411 0.135722
C12   C     C_3   0.644444 0.721306 0.686807 -0.545015
H24   H     H_    0.648977 0.665841 0.709726 0.173746
H25   H     H_    0.773900 0.726643 0.679385 0.252707
P7    P     P_3+3 0.534053 0.724693 0.542084 0.416511
O21   O     O_2   0.345660 0.723580 0.528500 -0.377567
O22   O     O_3   0.548821 0.765830 0.606749 -0.599820
C13   C     C_3   0.963400 0.780316 0.344501 0.361502
H26   H     H_    0.930081 0.712165 0.345428 0.089764
H27   H     H_    0.856228 0.833944 0.355157 0.058772
C14   C     C_3   0.007985 0.785538 0.291045 -0.815445
H28   H     H_    0.107212 0.728688 0.277769 0.269691
H29   H     H_    0.897304 0.781505 0.265901 0.250180
H30   H     H_    0.051609 0.850757 0.289541 0.252479
P8    P     P_3+3 0.505051 0.602188 0.348549 0.490743
C15   C     C_3   0.517928 0.772985 0.368220 0.535749
H31   H     H_    0.647732 0.756199 0.381514 -0.020480
O23   O     O_2   0.341458 0.568500 0.329841 -0.373691
O24   O     O_3   0.483243 0.707707 0.327835 -0.500203
H32   H     H_    0.432372 0.777590 0.399619 0.153783
H33   H     H_    0.527107 0.916646 0.382160 0.218642
C16   C     C_3   0.494181 0.865156 0.350876 -1.005823
H34   H     H_    0.362960 0.884715 0.339257 0.284907
H35   H     H_    0.574301 0.863257 0.318526 0.267990
C17   C     C_R   0.033237 0.433183 0.177513 0.525955
O25   O     O_2   0.078185 0.365733 0.197390 -0.566644
N1    N     N_R   0.937502 0.508107 0.203986 -0.164838
C18   C     C_R   0.882672 0.583415 0.180608 0.523813
C19   C     C_2   0.732807 0.528625 0.270321 -0.172465
C20   C     C_3   0.688382 0.520565 0.323327 0.112710
C21   C     C_1   0.981896 0.482473 0.342492 0.291740
C22   C     C_2   0.023057 0.480607 0.294996 -0.156979
C23   C     C_2   0.893049 0.507082 0.255947 0.114869
C24   C     C_R   0.020960 0.509022 0.103103 -0.063748
C25   C     C_R   0.077306 0.433139 0.127229 -0.064961
C26   C     C_R   0.175248 0.358098 0.100428 -0.078333
C27   C     C_R   0.922544 0.584488 0.130094 -0.055527
C28   C     C_2   0.836773 0.525035 0.358725 -0.467743
H36   H     H_    0.150979 0.460297 0.284170 0.178125
H37   H     H_    0.219719 0.298361 0.117696 0.173442
C29   C     C_2   0.354908 0.479081 0.641458 -0.410898
C30   C     C_R   0.209619 0.434435 0.974955 0.040742
C31   C     C_R   0.038717 0.584737 0.976198 0.041080
C32   C     C_R   0.144427 0.509607 0.950258 0.086492
C33   C     C_R   0.318610 0.362857 0.947893 -0.201030
C34   C     C_R   0.358663 0.364012 0.898362 -0.060445
C35   C     C_R   0.292657 0.436581 0.873209 -0.075864
C36   C     C_R   0.185546 0.509613 0.899029 -0.061035
C37   C     C_R   0.119906 0.582651 0.873622 -0.056241
C38   C     C_R   0.161915 0.581649 0.822969 0.520946
N2    N     N_R   0.266635 0.509010 0.797714 -0.168407
C39   C     C_R   0.332149 0.437185 0.822677 0.530932
C40   C     C_2   0.466375 0.489670 0.729754 -0.152315
C41   C     C_3   0.506203 0.489006 0.675022 0.127931
C42   C     C_1   0.209744 0.520627 0.658026 0.303679
C43   C     C_2   0.171797 0.524542 0.705883 -0.186908
C44   C     C_2   0.306631 0.507603 0.745040 0.121723
O26   O     O_2   0.424220 0.372985 0.800762 -0.526588
C45   C     C_R   0.164881 0.433242 0.025578 0.042101
C46   C     C_R   0.062542 0.509315 0.051945 0.085528
C47   C     C_R   0.001094 0.585601 0.027725 0.040616
C48   C     C_R   0.218138 0.357999 0.050977 -0.199234
H38   H     H_    0.567609 0.480577 0.756969 0.159511
H39   H     H_    0.442609 0.307067 0.879705 0.184562
H40   H     H_    0.377664 0.304669 0.963978 0.131927
H41   H     H_    0.291873 0.296633 0.033561 0.131142
O27   O     O_2   0.799626 0.649994 0.203837 -0.601425
C49   C     C_R   0.866199 0.659907 0.106137 -0.079803
H42   H     H_    0.634403 0.544097 0.243038 0.166566
H43   H     H_    0.791388 0.719409 0.125949 0.169926
C50   C     C_R   0.973628 0.656483 0.949272 -0.200199
C51   C     C_R   0.013460 0.655343 0.899375 -0.082683
O28   O     O_2   0.106806 0.646188 0.801666 -0.590849
C52   C     C_R   0.904141 0.660589 0.056311 -0.198825
H44   H     H_    0.889181 0.714788 0.965406 0.129993
H45   H     H_    0.959627 0.712304 0.880896 0.171375
H46   H     H_    0.043360 0.538510 0.716742 0.174240
H47   H     H_    0.856437 0.722054 0.041579 0.129892
H48   H     H_    0.826231 0.565686 0.395743 0.170640
H49   H     H_    0.365524 0.440054 0.603992 0.163121
C53   C     C_R   0.843075 0.830262 0.460856 0.144328
C54   C     C_R   0.777593 0.923663 0.465894 -0.022902
C55   C     C_R   0.645801 0.111823 0.479308 -0.044752
C56   C     C_R   0.788445 0.076996 0.450902 -0.042233
C57   C     C_R   0.855058 0.985184 0.445327 -0.195932
C58   C     C_R   0.580868 0.205838 0.487844 0.268762
H50   H     H_    0.852276 0.119777 0.432877 0.181430
H51   H     H_    0.966700 0.962875 0.424063 0.170536
C59   C     C_R   0.437634 0.235694 0.515636 -0.540924
C60   C     C_R   0.611540 0.802597 0.506275 0.251132
C61   C     C_R   0.546684 0.895541 0.512975 -0.019049
C62   C     C_R   0.628867 0.956320 0.492349 0.015431
C63   C     C_R   0.402972 0.929579 0.540542 -0.068872
C64   C     C_R   0.337300 0.020386 0.546165 -0.206822
C65   C     C_R   0.416622 0.082067 0.526560 -0.014436
C66   C     C_R   0.564499 0.050266 0.499673 0.015801
C67   C     C_R   0.351711 0.174789 0.533242 0.152122
C68   C     C_R   0.755326 0.770992 0.479359 -0.530200
H52   H     H_    0.224673 0.041271 0.566982 0.174596
H53   H     H_    0.336824 0.886966 0.557909 0.174956
H54   H     H_    0.387014 0.307007 0.521050 0.179737
H55   H     H_    0.805634 0.699764 0.476050 0.174977
N3    N     N_3   0.391094 0.138262 0.363586 -0.145955
H56   H     H_    0.417587 0.067638 0.356866 0.157700
H57   H     H_    0.353014 0.158988 0.328994 0.221289
N4    N     N_R   0.864142 0.209522 0.305657 0.281213
O29   O     O_R   0.834718 0.134673 0.318876 -0.383873
O30   O     O_R   0.998015 0.208959 0.281499 -0.345342
N5    N     N_3   0.384626 0.685776 0.645687 -0.225450
H58   H     H_    0.313150 0.749640 0.654779 0.151919
H59   H     H_    0.338911 0.657683 0.611125 0.144284
N6    N     N_3   0.568589 0.806661 0.715970 -0.161387
H60   H     H_    0.550815 0.857774 0.693339 0.205149
H61   H     H_    0.453401 0.799216 0.728352 0.158103
N7    N     N_R   0.383814 0.154794 0.729051 0.242084
O31   O     O_R   0.487634 0.211529 0.740750 -0.311322
O32   O     O_R   0.418500 0.074291 0.741797 -0.396075

loop_
_geom_bond_atom_site_label_1
_geom_bond_atom_site_label_2
_geom_bond_distance
_ccdc_geom_bond_type
C35   C39   1.415611 A    
C54   C57   1.402244 A    
P7    O22   1.760441 S    
C12   H25   1.107226 S    
C51   H45   1.083644 S    
C22   C23   1.510899 S    
O14   Ba2   2.744647 S    
O14   P8    1.749224 S    
C63   H53   1.078072 S    
O5    C6    1.397753 S    
C24   C25   1.409193 A    
P8    O23   1.545277 D    
C53   C68   1.398727 A    
C56   C57   1.396048 A    
C10   H21   1.106323 S    
C24   C27   1.408003 A    
C29   H49   1.086382 S    
C8    H18   1.109702 S    
C15   H31   1.107673 S    
C35   C36   1.407267 A    
C4    C5    1.527905 S    
C52   H47   1.075953 S    
C5    H10   1.108068 S    
P5    O19   1.747078 S    
P3    O11   1.749799 S    
P2    C58   1.855204 S    
N3    H56   1.044720 S    
C7    H15   1.106936 S    
C68   H55   1.081632 S    
O11   C2    1.403496 S    
P1    O2    1.530853 S    
C14   H30   1.110872 S    
C17   N1    1.386797 Am   
C54   C62   1.420004 A    
C31   C47   1.433493 A    
C33   C34   1.392332 A    
C15   C16   1.519853 S    
C49   C52   1.393851 A    
P1    Ba1   3.369859 S    
C42   C43   1.330421 D    
C13   H27   1.110237 S    
P1    O1    1.507807 D    
O10   C8    1.393455 S    
C11   C12   1.540933 S    
P4    C21   1.842190 S    
C37   C38   1.420086 A    
C31   C32   1.422243 A    
C29   C41   1.511458 S    
O4    P6    1.547969 D    
C39   O26   1.219907 D    
O2    Ba2   2.741163 S    
P6    C41   1.870872 S    
C2    H4    1.113715 S    
C50   C51   1.394874 A    
P2    O10   1.748322 S    
P5    O17   1.747075 S    
C34   C35   1.400359 A    
C12   N6    1.463893 S    
C2    C3    1.528823 S    
P1    C42   1.837549 S    
P4    O15   1.749848 S    
C1    H2    1.111211 S    
O7    Ba1   2.875810 S    
O16   Ba2   2.896454 S    
C45   C48   1.416984 A    
C50   H44   1.076001 S    
C40   H38   1.085536 S    
C24   C46   1.435926 A    
N7    O32   1.301015 A    
P7    O21   1.571196 D    
Ba1   O13   2.740594 S    
Ba2   O20   2.793673 S    
O3    P6    1.747306 S    
C19   H42   1.085558 S    
C11   H23   1.108822 S    
C9    H20   1.111582 S    
O6    P6    1.758941 S    
C55   C58   1.423285 A    
N2    C39   1.387421 Am   
C19   C23   1.360736 D    
C8    C9    1.530957 S    
P4    O13   1.530855 S    
C59   H54   1.081785 S    
N1    C23   1.465904 S    
P5    O18   1.543080 D    
P1    O5    1.751657 S    
C6    C7    1.522731 S    
C58   C59   1.396424 A    
C34   H39   1.083777 S    
N4    O30   1.300904 A    
Ba1   O16   2.794241 S    
C8    H17   1.104004 S    
C17   O25   1.222181 D    
C55   C56   1.410916 A    
C4    H8    1.102778 S    
P4    O12   1.508032 D    
O8    Ba1   2.739598 S    
O1    Ba1   2.791412 S    
C1    H22   1.105722 S    
O16   P7    1.751454 S    
C6    H13   1.105427 S    
Ba1   O20   2.897286 S    
O12   Ba2   2.791781 S    
C13   C14   1.519173 S    
H1    C10   1.108368 S    
C57   H51   1.081379 S    
C48   H41   1.075790 S    
C16   H34   1.110781 S    
C15   H32   1.111387 S    
C60   C61   1.407914 A    
C25   C26   1.399966 A    
C7    H16   1.110807 S    
C46   C47   1.423447 A    
C30   C32   1.423406 A    
N1    C18   1.388350 Am   
O2    Ba1   2.916399 S    
C1    H3    1.109484 S    
C22   H36   1.084211 S    
C63   C64   1.380272 A    
C40   C44   1.363509 D    
N6    H61   1.045192 S    
C17   C25   1.418115 A    
C14   H29   1.108783 S    
N7    O31   1.299629 A    
C16   H35   1.110374 S    
P2    O7    1.492432 D    
P3    O8    1.730923 S    
P2    Ba1   3.416002 S    
C31   C50   1.417394 A    
C3    H7    1.112381 S    
C28   H48   1.086001 S    
C9    H19   1.107421 S    
P3    C67   1.847645 S    
N4    O29   1.301212 A    
C56   H50   1.078235 S    
C45   C46   1.422223 A    
C5    N3    1.459844 S    
O13   Ba2   2.917143 S    
C15   O24   1.402187 S    
C32   C36   1.435871 A    
C65   C66   1.418380 A    
C59   C67   1.397328 A    
C38   N2    1.387437 Am   
C2    H5    1.110021 S    
C64   H52   1.080062 S    
C53   C54   1.416550 A    
P8    O24   1.752537 S    
C61   C63   1.404396 A    
C14   H28   1.111023 S    
C43   H46   1.084660 S    
C3    N7    1.458044 S    
O17   Ba2   2.740015 S    
C38   O28   1.222072 D    
C40   C41   1.523075 S    
C11   N5    1.450880 S    
C4    H9    1.108156 S    
C33   H40   1.075844 S    
C18   C27   1.417414 A    
C20   C28   1.511370 S    
C6    H12   1.100475 S    
C65   C67   1.404932 A    
Ba2   O21   2.876113 S    
C26   C48   1.393343 A    
C36   C37   1.409339 A    
N2    C44   1.467367 S    
C11   O22   1.405979 S    
C19   C20   1.517924 S    
O19   C13   1.401358 S    
N5    H59   1.039898 S    
C27   C49   1.400725 A    
N3    H57   1.045878 S    
C21   C22   1.333400 D    
C30   C45   1.432277 A    
C5    H11   1.112805 S    
C30   C33   1.416122 A    
C1    C10   1.521449 S    
C62   C66   1.420922 A    
C13   H26   1.114005 S    
C4    O15   1.396693 S    
C47   C52   1.416462 A    
O3    Ba1   2.745161 S    
C29   C42   1.315511 D    
P8    C20   1.865190 S    
N6    H60   1.045575 S    
C12   H24   1.112161 S    
P2    O20   1.579132 S    
C9    N4    1.460518 S    
P7    C60   1.839648 S    
C61   C62   1.416976 A    
P4    Ba2   3.370340 S    
H33   C16   1.109787 S    
N5    H58   1.045838 S    
P3    O9    1.545072 D    
C64   C65   1.399826 A    
C3    H6    1.111686 S    
C37   C51   1.400594 A    
C7    H14   1.110483 S    
Ba1   Ba2   4.543762 S    
C55   C66   1.418357 A    
C43   C44   1.508372 S    
O6    C10   1.408654 S    
C26   H37   1.083637 S    
P5    C53   1.854207 S    
C21   C28   1.316848 D    
C60   C68   1.390909 A    
C49   H43   1.083652 S    
C18   O27   1.221547 D    
