data_mof_unit_68599.cif
_audit_creation_date              2012-12-11T16:06:28-0500
_audit_creation_method            fapswitch 2.2
_symmetry_space_group_name_H-M    P1
_symmetry_Int_Tables_number       1
_space_group_crystal_system       triclinic
_cell_length_a                    7.264603
_cell_length_b                    14.870818
_cell_length_c                    15.893619
_cell_angle_alpha                 89.999696
_cell_angle_beta                  89.757139
_cell_angle_gamma                 89.999119
_cell_volume                      1716.98159813

loop_
_atom_site_label
_atom_site_type_symbol
_atom_type_description
_atom_site_fract_x
_atom_site_fract_y
_atom_site_fract_z
_atom_type_partial_charge
O1    O     O_R   0.388780 0.834790 0.412340 -0.494439
O2    O     O_R   0.111220 0.165210 0.912340 -0.507463
O3    O     O_R   0.888780 0.665210 0.587660 -0.507486
O4    O     O_R   0.611220 0.334790 0.087660 -0.494473
O5    O     O_R   0.059040 0.845930 0.587040 -0.533444
O6    O     O_R   0.440960 0.154070 0.087040 -0.519506
O7    O     O_R   0.559040 0.654070 0.412960 -0.519518
O8    O     O_R   0.940960 0.345930 0.912960 -0.533419
C1    C     C_R   0.226752 0.867303 0.615607 0.768669
C2    C     C_R   0.273144 0.129711 0.113315 0.695371
C3    C     C_R   0.726857 0.629707 0.386689 0.695421
C4    C     C_R   0.773245 0.367300 0.884390 0.768648
O9    O     O_R   0.059070 0.845930 0.412970 -0.549202
O10   O     O_R   0.440930 0.154070 0.912970 -0.532349
O11   O     O_R   0.559070 0.654070 0.587030 -0.532337
O12   O     O_R   0.940930 0.345930 0.087030 -0.549239
O13   O     O_R   0.888760 0.665210 0.412340 -0.545054
O14   O     O_R   0.611240 0.334790 0.912340 -0.527957
O15   O     O_R   0.388760 0.834790 0.587660 -0.527914
O16   O     O_R   0.111240 0.165210 0.087660 -0.545063
C5    C     C_R   0.229005 0.864845 0.382689 0.802527
C6    C     C_R   0.270595 0.131721 0.885002 0.688287
C7    C     C_R   0.729404 0.631718 0.614995 0.688257
C8    C     C_R   0.770996 0.364848 0.117309 0.802425
O17   O     O_3   0.222280 0.690700 0.500000 -0.369047
O18   O     O_3   0.277720 0.309300 0.000000 -0.356756
O19   O     O_3   0.722280 0.809300 0.500000 -0.356721
O20   O     O_3   0.777720 0.190700 0.000000 -0.369030
V1    V     V_3+5 0.947430 0.761000 0.500000 1.611533
V2    V     V_3+5 0.552570 0.239000 0.000000 1.662694
V3    V     V_3+5 0.447430 0.739000 0.500000 1.662772
V4    V     V_3+5 0.052570 0.261000 0.000000 1.611486
C9    C     C_3   0.956787 0.553367 0.723117 0.136226
C10   C     C_3   0.549307 0.433050 0.233651 0.121427
C11   C     C_3   0.450667 0.933004 0.266317 0.121275
C12   C     C_3   0.043194 0.053372 0.776880 0.136212
C13   C     C_3   0.965032 0.475187 0.791137 -0.246736
C14   C     C_3   0.558159 0.492019 0.316060 -0.202062
C15   C     C_3   0.441811 0.992004 0.183925 -0.202026
C16   C     C_3   0.034948 0.975186 0.708864 -0.246716
H1    H     H_    0.014391 0.502748 0.851809 0.148031
H2    H     H_    0.585002 0.445190 0.368570 0.148495
H3    H     H_    0.414932 0.945205 0.131400 0.148424
H4    H     H_    0.985572 0.002736 0.648191 0.148012
H5    H     H_    0.761508 0.334365 0.712210 0.222314
H6    H     H_    0.613304 0.632809 0.213109 0.235845
H7    H     H_    0.386755 0.132849 0.286849 0.236020
H8    H     H_    0.238521 0.834370 0.787784 0.222324
C17   C     C_3   0.676508 0.465327 0.657686 -0.201824
C18   C     C_3   0.800086 0.531684 0.159608 -0.196584
C19   C     C_3   0.200123 0.031702 0.340438 -0.196648
C20   C     C_3   0.323496 0.965333 0.842307 -0.201883
C21   C     C_3   0.615008 0.583498 0.762288 0.052360
C22   C     C_3   0.897979 0.414719 0.261306 0.081808
C23   C     C_3   0.101947 0.914778 0.238737 0.081861
C24   C     C_3   0.384960 0.083510 0.737700 0.052314
C25   C     C_3   0.749242 0.561024 0.686545 -0.112970
C26   C     C_3   0.751079 0.432842 0.190434 -0.119885
C27   C     C_3   0.248938 0.932850 0.309576 -0.119877
C28   C     C_3   0.250747 0.061030 0.813450 -0.112900
H9    H     H_    0.470447 0.573958 0.741552 0.171964
H10   H     H_    0.036171 0.412769 0.231685 0.184002
H11   H     H_    0.963790 0.912870 0.268383 0.184033
H12   H     H_    0.529532 0.073970 0.758429 0.171941
C29   C     C_3   0.768563 0.436946 0.812016 -0.109222
C30   C     C_3   0.730057 0.556513 0.316600 -0.083489
C31   C     C_3   0.269946 0.056520 0.183409 -0.083614
C32   C     C_3   0.231423 0.936953 0.687978 -0.109179
C33   C     C_3   0.686010 0.395774 0.730990 -0.307624
C34   C     C_3   0.746900 0.601202 0.228892 -0.326040
C35   C     C_3   0.253169 0.101210 0.271115 -0.325826
C36   C     C_3   0.314001 0.895785 0.769001 -0.307567
C37   C     C_3   0.647287 0.518703 0.837294 -0.330862
C38   C     C_3   0.898066 0.493084 0.326927 -0.376027
C39   C     C_3   0.101892 0.993129 0.173108 -0.376018
C40   C     C_3   0.352664 0.018721 0.662691 -0.331025
H13   H     H_    0.718479 0.555822 0.887724 0.226314
H14   H     H_    0.905218 0.466829 0.392298 0.208433
H15   H     H_    0.094704 0.966863 0.107740 0.208408
H16   H     H_    0.281443 0.055847 0.612263 0.226405
H17   H     H_    0.512455 0.496568 0.863064 0.220694
H18   H     H_    0.020255 0.534101 0.315124 0.207757
H19   H     H_    0.979733 0.034175 0.184917 0.207804
H20   H     H_    0.487495 0.996591 0.636913 0.220671
H21   H     H_    0.527424 0.474318 0.644613 0.177437
H22   H     H_    0.952344 0.535405 0.152069 0.165792
H23   H     H_    0.047892 0.035472 0.348088 0.165585
H24   H     H_    0.472581 0.974329 0.855382 0.177434
H25   H     H_    0.544735 0.373163 0.745002 0.199628
H26   H     H_    0.852990 0.654909 0.230757 0.200983
H27   H     H_    0.147026 0.154895 0.269264 0.200809
H28   H     H_    0.455281 0.873183 0.754985 0.199643
Br1   Br    Br    0.146853 0.533706 0.634103 -0.450553
Br2   Br    Br    0.360617 0.477919 0.155111 -0.492122
Br3   Br    Br    0.639510 0.977782 0.344824 -0.492368
Br4   Br    Br    0.853118 0.033719 0.865892 -0.450593
C41   C     C_2   0.018560 0.642120 0.764100 0.825817
O21   O     O_2   0.084523 0.701794 0.720650 -0.541450
O22   O     O_R   0.005630 0.655774 0.851176 -0.643183
H29   H     H_    0.058221 0.715607 0.869840 0.366629
C42   C     C_2   0.473125 0.341305 0.259911 0.795613
O23   O     O_2   0.535889 0.271204 0.232272 -0.523089
O24   O     O_R   0.326682 0.338046 0.317130 -0.635204
H30   H     H_    0.298002 0.275098 0.336998 0.345944
C43   C     C_2   0.526693 0.841239 0.240017 0.795725
O25   O     O_2   0.463932 0.771157 0.267698 -0.523071
O26   O     O_R   0.673008 0.837938 0.182727 -0.635042
H31   H     H_    0.701536 0.774990 0.162818 0.345790
C44   C     C_2   0.981410 0.142127 0.735898 0.825870
O27   O     O_2   0.915540 0.201818 0.779359 -0.541460
O28   O     O_R   0.994202 0.155765 0.648806 -0.643014
H32   H     H_    0.941571 0.215594 0.630140 0.366597
C45   C     C_2   0.106336 0.402477 0.773186 0.898766
O29   O     O_2   0.093813 0.353922 0.711631 -0.481195
O30   O     O_R   0.247752 0.389055 0.830990 -0.664391
H33   H     H_    0.308097 0.328280 0.824607 0.308044
C46   C     C_2   0.375763 0.532674 0.340869 0.883986
O31   O     O_2   0.313396 0.597025 0.302420 -0.515832
O32   O     O_R   0.290367 0.501932 0.414608 -0.608589
H34   H     H_    0.184119 0.540916 0.433515 0.316922
C47   C     C_2   0.624215 0.032652 0.159128 0.884002
O33   O     O_2   0.686548 0.097016 0.197569 -0.515885
O34   O     O_R   0.709661 0.001892 0.085410 -0.608567
H35   H     H_    0.815890 0.040884 0.066495 0.316910
C48   C     C_2   0.893659 0.902470 0.726822 0.898699
O35   O     O_2   0.906196 0.853921 0.788383 -0.481266
O36   O     O_R   0.752238 0.889034 0.669021 -0.664381
H36   H     H_    0.691913 0.828256 0.675408 0.308045
C49   C     C_2   0.744612 0.423865 0.576431 0.831802
O37   O     O_2   0.904917 0.401832 0.566900 -0.478793
O38   O     O_R   0.614860 0.398187 0.516583 -0.634727
H37   H     H_    0.668518 0.355381 0.473384 0.333521
C50   C     C_2   0.731631 0.563283 0.074781 0.824403
O39   O     O_2   0.642164 0.514202 0.029093 -0.558787
O40   O     O_R   0.776596 0.650237 0.048174 -0.622495
H38   H     H_    0.719132 0.666618 0.992294 0.355495
C51   C     C_2   0.269021 0.063277 0.425206 0.824668
O41   O     O_2   0.358093 0.014067 0.470919 -0.558928
O42   O     O_R   0.225356 0.150421 0.451656 -0.622666
H39   H     H_    0.283296 0.166737 0.507443 0.355456
C52   C     C_2   0.255393 0.923864 0.923561 0.831840
O43   O     O_2   0.095066 0.901861 0.933101 -0.478805
O44   O     O_R   0.385153 0.898148 0.983398 -0.634648
H40   H     H_    0.331428 0.855383 0.026620 0.333515
Br5   Br    Br    0.605454 0.706465 0.802262 -0.548716
Br6   Br    Br    0.885895 0.298551 0.318222 -0.477728
Br7   Br    Br    0.113813 0.798604 0.181828 -0.477457
Br8   Br    Br    0.394476 0.206478 0.697723 -0.548808

loop_
_geom_bond_atom_site_label_1
_geom_bond_atom_site_label_2
_ccdc_geom_bond_type
O17   V3    S    
O1    C5    A    
C42   O23   D    
C24   C40   S    
C23   C27   S    
O19   V1    S    
O13   V1    S    
C43   O25   D    
O3    C7    A    
O28   H32   S    
O15   V3    S    
C40   H20   S    
C35   H27   S    
C41   O21   D    
C17   C25   S    
O34   H35   S    
C2    C31   S    
O7    C3    A    
C43   O26   S    
C20   C36   S    
O2    V4    S    
O9    V1    S    
O10   V2    S    
C5    C27   S    
C44   O28   S    
C6    C28   S    
C36   H28   S    
C13   C45   S    
O30   H33   S    
C30   C38   S    
O1    V3    S    
C29   C37   S    
C11   C27   S    
O3    V1    S    
C20   C28   S    
C22   C38   S    
C14   C46   S    
C21   H9    S    
C1    O15   A    
C14   C30   S    
C2    O16   A    
C23   H11   S    
O2    C6    A    
O26   H31   S    
C24   H12   S    
O14   V2    S    
O40   H38   S    
C31   C35   S    
C3    C30   S    
O8    C4    A    
C22   Br6   S    
C23   C39   S    
O11   C7    A    
C48   O35   D    
C51   O41   D    
O12   C8    A    
C17   C33   S    
C13   H1    S    
C34   H26   S    
C19   C35   S    
C38   H18   S    
C33   H25   S    
C37   H17   S    
C41   O22   S    
O5    V1    S    
O42   H39   S    
C10   C42   S    
O7    V3    S    
H5    C33   S    
C18   C26   S    
C17   H21   S    
C20   H24   S    
C19   H23   S    
C21   C25   S    
O18   V4    S    
C15   H3    S    
C22   H10   S    
C17   C49   S    
C9    C13   S    
C24   C28   S    
C13   C29   S    
C52   O44   S    
O8    V4    S    
C24   Br8   S    
C11   C15   S    
O5    C1    A    
C11   C43   S    
C51   O42   S    
C12   Br4   S    
C23   Br7   S    
O22   H29   S    
C12   C16   S    
C32   C36   S    
C21   Br5   S    
O9    C5    A    
C32   C40   S    
H7    C35   S    
C47   O33   D    
C19   C51   S    
O6    V2    S    
C10   Br2   S    
C38   H14   S    
C50   O39   D    
C22   C26   S    
C31   C39   S    
H8    C36   S    
O38   H37   S    
C12   C44   S    
C47   O34   S    
C10   C26   S    
C45   O29   D    
O16   V4    S    
C7    C25   S    
C3    O13   A    
C9    C25   S    
C10   C14   S    
C15   C31   S    
C21   C37   S    
C40   H16   S    
C12   C28   S    
C18   C50   S    
C9    Br1   S    
O6    C2    A    
O32   H34   S    
O11   V3    S    
O36   H36   S    
C11   Br3   S    
O12   V4    S    
C4    C29   S    
C46   O31   D    
C20   C52   S    
C15   C47   S    
C42   O24   S    
O10   C6    A    
C46   O32   S    
C49   O37   D    
C1    C32   S    
C52   O43   D    
C39   H19   S    
C30   C34   S    
O4    C8    A    
C29   C33   S    
C16   C48   S    
O20   V2    S    
C9    C41   S    
C18   C34   S    
H6    C34   S    
C18   H22   S    
C14   H2    S    
C16   H4    S    
C19   C27   S    
C8    C26   S    
C16   C32   S    
C4    O14   A    
O24   H30   S    
C48   O36   S    
C50   O40   S    
C37   H13   S    
C49   O38   S    
C44   O27   D    
C39   H15   S    
O4    V2    S    
O44   H40   S    
C45   O30   S    
