data_mof_unit_25396.cif
_audit_creation_date              2012-12-11T17:14:11-0500
_audit_creation_method            fapswitch 2.2
_symmetry_space_group_name_H-M    P1
_symmetry_Int_Tables_number       1
_space_group_crystal_system       triclinic
_cell_length_a                    18.206511
_cell_length_b                    7.094258
_cell_length_c                    13.016659
_cell_angle_alpha                 90.425941
_cell_angle_beta                  72.276399
_cell_angle_gamma                 89.950992
_cell_volume                      1601.4020464

loop_
_atom_site_label
_atom_site_type_symbol
_atom_type_description
_atom_site_fract_x
_atom_site_fract_y
_atom_site_fract_z
_atom_type_partial_charge
O1    O     O_R   0.453880 0.506200 0.150010 -0.539639
O2    O     O_R   0.546120 0.006200 0.849990 -0.549292
O3    O     O_R   0.604080 0.177770 0.007280 -0.543289
O4    O     O_R   0.395920 0.677770 0.992720 -0.533827
C1    C     C_R   0.635923 0.344463 0.001972 0.753965
C2    C     C_R   0.364070 0.844569 0.998010 0.747787
O5    O     O_R   0.458010 0.176640 0.159130 -0.540982
O6    O     O_R   0.541990 0.676640 0.840870 -0.527157
O7    O     O_R   0.399010 0.004010 0.002930 -0.538598
O8    O     O_R   0.600990 0.504010 0.997070 -0.530103
C3    C     C_R   0.443186 0.345892 0.201435 0.762029
C4    C     C_R   0.556513 0.844049 0.798297 0.759475
O9    O     O_3   0.480810 0.338440 0.948570 -0.365455
O10   O     O_3   0.519190 0.838440 0.051430 -0.368922
V1    V     V_3+5 0.503560 0.064490 0.009540 1.500757
V2    V     V_3+5 0.496440 0.564490 0.990460 1.542045
C5    C     C_R   0.576511 0.761543 0.506515 -0.276552
C6    C     C_R   0.427392 0.350297 0.495129 -0.281900
H1    H     H_    0.540560 0.715490 0.458692 0.157337
H2    H     H_    0.465372 0.359904 0.544534 0.153197
C7    C     C_R   0.588040 0.844609 0.680822 -0.139451
C8    C     C_R   0.411482 0.354780 0.318539 -0.128260
C9    C     C_R   0.946778 0.871591 0.383880 -0.253503
C10   C     C_R   0.053894 0.328838 0.617193 -0.246728
C11   C     C_R   0.916226 0.848020 0.493798 -0.193687
C12   C     C_R   0.085528 0.282256 0.509610 -0.194614
C13   C     C_R   0.836444 0.827400 0.542370 0.465303
C14   C     C_R   0.165837 0.272788 0.461932 0.464110
C15   C     C_R   0.785676 0.837689 0.477315 0.000077
C16   C     C_R   0.215638 0.321047 0.524717 0.001665
C17   C     C_R   0.817918 0.844223 0.362138 -0.039080
C18   C     C_R   0.183011 0.345927 0.639083 -0.040398
C19   C     C_R   0.703615 0.834620 0.523669 0.091807
C20   C     C_R   0.297291 0.338448 0.477172 0.091061
C21   C     C_R   0.656224 0.792589 0.457944 0.012681
C22   C     C_R   0.346438 0.344881 0.543348 0.014913
C23   C     C_R   0.688386 0.787823 0.345150 -0.091471
C24   C     C_R   0.314483 0.348887 0.656139 -0.085449
C25   C     C_R   0.767124 0.827641 0.297314 -0.120460
C26   C     C_R   0.233973 0.356350 0.703999 -0.121304
C27   C     C_R   0.666731 0.876096 0.633738 -0.245660
C28   C     C_R   0.331683 0.358741 0.364952 -0.243676
C29   C     C_R   0.542165 0.786508 0.617697 0.455773
C30   C     C_R   0.460435 0.345942 0.382629 0.449959
C31   C     C_R   0.899811 0.863778 0.317222 -0.074174
C32   C     C_R   0.100640 0.353837 0.683255 -0.076017
H3    H     H_    0.697798 0.933926 0.685077 0.167048
H4    H     H_    0.297874 0.383265 0.311293 0.163857
H5    H     H_    0.008776 0.884993 0.349571 0.126849
H6    H     H_    0.991597 0.331364 0.651209 0.128059
H7    H     H_    0.956079 0.837080 0.540428 0.135848
H8    H     H_    0.046397 0.243820 0.464967 0.133856
C33   C     C_1   0.216342 0.858792 0.000120 -0.161513
C34   C     C_1   0.783652 0.358913 0.999908 -0.155946
C35   C     C_1   0.283662 0.852690 0.998857 -0.160088
C36   C     C_1   0.716334 0.352544 0.001158 -0.152431
O11   O     O_R   0.899030 0.205490 0.002790 -0.526295
O12   O     O_R   0.100970 0.705490 0.997210 -0.524429
O13   O     O_R   0.042000 0.536370 0.840840 -0.544289
O14   O     O_R   0.958000 0.036370 0.159160 -0.545588
C37   C     C_R   0.059898 0.367561 0.798849 0.711528
C38   C     C_R   0.940097 0.869363 0.201265 0.711645
O15   O     O_R   0.895930 0.535070 0.992690 -0.529921
O16   O     O_R   0.104070 0.035070 0.007310 -0.532218
O17   O     O_R   0.953870 0.707520 0.150040 -0.538697
O18   O     O_R   0.046130 0.207520 0.849960 -0.540245
C39   C     C_R   0.864131 0.366843 0.998773 0.727598
C40   C     C_R   0.135873 0.866727 0.001256 0.725756
O19   O     O_3   0.019200 0.374340 0.051340 -0.368460
O20   O     O_3   0.980800 0.874340 0.948660 -0.369940
V3    V     V_3+5 0.996440 0.648350 0.990470 1.474157
V4    V     V_3+5 0.003560 0.148350 0.009530 1.466626
O21   O     O_3   0.465161 0.743722 0.667696 -0.553243
C41   C     C_3   0.417079 0.846722 0.621253 -0.257819
H9    H     H_    0.413287 0.776025 0.546657 0.153060
H10   H     H_    0.436138 0.995518 0.604601 0.129581
H11   H     H_    0.358040 0.850188 0.679194 0.168327
O22   O     O_3   0.539701 0.353068 0.332395 -0.556975
C42   C     C_3   0.580215 0.231230 0.381372 -0.243760
H12   H     H_    0.550071 0.094382 0.404506 0.131758
H13   H     H_    0.590969 0.301058 0.452057 0.150114
H14   H     H_    0.637298 0.199873 0.322363 0.168190
C43   C     C_1   0.639407 0.754546 0.276813 0.305773
N1    N     N_1   0.600579 0.728708 0.222367 -0.300013
C44   C     C_1   0.364700 0.347632 0.724445 0.305510
N2    N     N_1   0.404595 0.346239 0.778668 -0.297819
O23   O     O_3   0.809129 0.761888 0.647714 -0.561280
C45   C     C_3   0.838012 0.869100 0.718941 -0.286659
H15   H     H_    0.842451 0.022194 0.699336 0.124497
H16   H     H_    0.894512 0.812304 0.720518 0.155426
H17   H     H_    0.797481 0.855530 0.801668 0.175941
O24   O     O_3   0.195990 0.182236 0.362613 -0.561349
C46   C     C_3   0.162743 0.249928 0.284853 -0.283768
H18   H     H_    0.151725 0.404788 0.291991 0.130421
H19   H     H_    0.109047 0.171720 0.289440 0.145853
H20   H     H_    0.203739 0.222667 0.203502 0.172926
C47   C     C_1   0.792248 0.853284 0.181316 0.280073
N3    N     N_1   0.810352 0.873703 0.088884 -0.318443
C48   C     C_1   0.207026 0.367557 0.820873 0.281332
N4    N     N_1   0.187652 0.375587 0.914082 -0.314711

loop_
_geom_bond_atom_site_label_1
_geom_bond_atom_site_label_2
_ccdc_geom_bond_type
C29   O21   S    
C16   C18   A    
O23   C45   S    
C46   H18   S    
C9    C31   A    
C13   C15   A    
O21   C41   S    
C1    C36   S    
O1    C3    A    
C2    C35   S    
O2    C4    A    
C2    O7    A    
C5    C29   A    
C47   N3    T    
C44   N2    T    
O5    C3    A    
C41   H10   S    
O16   C40   A    
C21   C23   A    
C10   C12   A    
C6    C30   A    
O12   V3    S    
C9    H5    S    
O14   V4    S    
C15   C19   A    
C31   C38   S    
O14   C38   A    
O6    V2    S    
O19   V3    S    
C33   C40   S    
C5    H1    S    
C7    C29   A    
C37   O18   A    
C8    C30   A    
C48   N4    T    
O18   V4    S    
C41   H11   S    
C20   C28   A    
O20   V3    S    
C20   C22   A    
O5    V1    S    
C46   H19   S    
O11   C39   A    
C26   C48   S    
O15   C39   A    
C33   C35   T    
C10   H6    S    
C34   C36   T    
O13   C37   A    
C41   H9    S    
C16   C20   A    
C32   C37   S    
O4    C2    A    
C42   H13   S    
O22   C42   S    
C34   C39   S    
C24   C44   S    
O17   V3    S    
C4    C7    S    
O4    V2    S    
O19   V4    S    
C11   H7    S    
C12   H8    S    
C43   N1    T    
C45   H17   S    
O6    C4    A    
C27   H3    S    
C14   O24   S    
O1    V2    S    
C28   H4    S    
C13   O23   S    
O2    V1    S    
C7    C27   A    
O12   C40   A    
O15   V3    S    
C46   H20   S    
C22   C24   A    
C18   C26   A    
O3    V1    S    
C38   O17   A    
C18   C32   A    
C45   H16   S    
O3    C1    A    
C42   H14   S    
C11   C13   A    
C3    C8    S    
C12   C14   A    
C19   C27   A    
C14   C16   A    
O7    V1    S    
C10   C32   A    
C1    O8    A    
C15   C17   A    
O8    V2    S    
C24   C26   A    
C8    C28   A    
C30   O22   S    
O24   C46   S    
C19   C21   A    
C17   C25   A    
C6    H2    S    
O16   V4    S    
O11   V4    S    
C25   C47   S    
C42   H12   S    
C9    C11   A    
C45   H15   S    
C23   C25   A    
C17   C31   A    
O9    V2    S    
O10   V1    S    
C23   C43   S    
O20   V4    S    
C5    C21   A    
C6    C22   A    
O13   V3    S    
