data_mof_unit_43203.cif
_audit_creation_date              2012-12-10T17:53:13-0500
_audit_creation_method            fapswitch 2.2
_symmetry_space_group_name_H-M    P1
_symmetry_Int_Tables_number       1
_space_group_crystal_system       triclinic
_cell_length_a                    23.436632
_cell_length_b                    10.71818
_cell_length_c                    9.939423
_cell_angle_alpha                 88.385377
_cell_angle_beta                  89.845823
_cell_angle_gamma                 93.932552
_cell_volume                      2489.86914133

loop_
_atom_site_label
_atom_site_type_symbol
_atom_type_description
_atom_site_fract_x
_atom_site_fract_y
_atom_site_fract_z
_atom_type_partial_charge
C1    C     C_R   0.502581 0.259866 0.502909 0.892243
C2    C     C_R   0.121733 0.570865 0.560585 0.582127
C3    C     C_R   0.236112 0.520486 0.391285 -0.109929
C4    C     C_R   0.389432 0.502285 0.500076 0.873173
C5    C     C_R   0.295325 0.538102 0.387992 0.430741
C6    C     C_R   0.326878 0.500528 0.501644 -0.199955
C7    C     C_R   0.297854 0.454147 0.618399 -0.301314
C8    C     C_R   0.238289 0.439532 0.623203 -0.000169
C9    C     C_R   0.207609 0.473121 0.507300 0.147046
C10   C     C_R   0.758859 0.446473 0.620261 -0.017003
C11   C     C_R   0.699794 0.455407 0.617655 -0.185431
C12   C     C_R   0.963001 0.265124 0.407395 0.487895
C13   C     C_R   0.672456 0.492855 0.500066 -0.086273
C14   C     C_R   0.704076 0.521670 0.382613 -0.225440
C15   C     C_R   0.763394 0.515878 0.381419 -0.007603
C16   C     C_R   0.494547 0.738202 0.498580 0.868891
C17   C     C_R   0.790795 0.477613 0.501353 0.153798
C18   C     C_R   0.493327 0.100096 0.762460 -0.107947
C19   C     C_R   0.468009 0.031481 0.870939 -0.150220
C20   C     C_R   0.439614 0.915690 0.850099 -0.098410
C21   C     C_R   0.441623 0.863398 0.723684 -0.098907
C22   C     C_R   0.471722 0.928033 0.616103 0.103234
C23   C     C_R   0.022891 0.266996 0.408019 -0.256168
C24   C     C_R   0.489917 0.053901 0.629937 0.092002
C25   C     C_R   0.504048 0.125581 0.509963 -0.131796
C26   C     C_R   0.511415 0.066917 0.387782 -0.204781
C27   C     C_R   0.504867 0.939430 0.382418 -0.201126
C28   C     C_R   0.610502 0.499320 0.499853 0.896093
C29   C     C_R   0.486722 0.869600 0.496814 -0.124460
C30   C     C_R   0.421453 0.342782 0.152730 -0.118476
C31   C     C_R   0.378982 0.268705 0.093839 -0.232248
C32   C     C_R   0.376224 0.265076 0.956674 -0.234863
C33   C     C_R   0.416784 0.334141 0.874819 0.456551
C34   C     C_R   0.055867 0.368531 0.459052 -0.043581
C35   C     C_R   0.459745 0.420035 0.932314 0.071559
C36   C     C_R   0.460697 0.421750 0.077048 0.105496
C37   C     C_R   0.537358 0.575079 0.069490 -0.136413
C38   C     C_R   0.537570 0.575564 0.926858 -0.011759
C39   C     C_R   0.882784 0.575223 0.553907 0.606750
C40   C     C_R   0.876017 0.372256 0.458343 0.672199
C41   C     C_R   0.935732 0.367782 0.458934 -0.042361
C42   C     C_R   0.968914 0.470050 0.512650 -0.123217
C43   C     C_R   0.942322 0.573076 0.565738 -0.112049
C44   C     C_2   0.795115 0.552151 0.254151 0.966137
C45   C     C_R   0.028960 0.469958 0.512192 -0.016824
C46   C     C_2   0.579724 0.661233 0.855946 0.973887
C47   C     C_2   0.209866 0.389073 0.749762 0.957385
C48   C     C_2   0.785801 0.404702 0.748440 0.940977
C49   C     C_R   0.062229 0.572049 0.563618 -0.094576
C50   C     C_R   0.035681 0.671883 0.618730 -0.136778
C51   C     C_R   0.976426 0.671685 0.624557 0.459823
C52   C     C_R   0.115630 0.371343 0.458328 0.607338
H1    H     H_    0.674692 0.430480 0.707323 0.217437
H2    H     H_    0.043641 0.188714 0.367822 0.196104
H3    H     H_    0.421950 0.334292 0.258887 0.220624
H4    H     H_    0.348757 0.211103 0.155379 0.183759
H5    H     H_    0.343229 0.202940 0.913362 0.171208
H6    H     H_    0.060849 0.749374 0.661733 0.218014
H7    H     H_    0.211631 0.549236 0.304835 0.171567
H8    H     H_    0.321832 0.427171 0.705983 0.234187
H9    H     H_    0.956675 0.101569 0.324748 0.346006
H10   H     H_    0.790924 0.591724 0.054649 0.378701
H11   H     H_    0.384664 0.244787 0.719802 0.312146
H12   H     H_    0.682340 0.551331 0.292354 0.208694
H13   H     H_    0.598576 0.833597 0.774578 0.347228
H14   H     H_    0.924213 0.729692 0.753821 0.370402
H15   H     H_    0.353891 0.648819 0.302227 0.339033
H16   H     H_    0.218152 0.342073 0.946712 0.361824
H17   H     H_    0.853691 0.336005 0.842572 0.367095
H18   H     H_    0.523460 0.119385 0.296061 0.178665
H19   H     H_    0.517104 0.186078 0.786667 0.175527
H20   H     H_    0.469844 0.069087 0.970934 0.141149
H21   H     H_    0.418089 0.864165 0.932965 0.147300
H22   H     H_    0.420057 0.771928 0.711084 0.147716
H23   H     H_    0.515384 0.895654 0.289399 0.178044
H24   H     H_    0.567799 0.636425 0.122208 0.152896
N1    N     N_R   0.851530 0.474918 0.504213 -0.338870
N2    N     N_R   0.146851 0.471174 0.509320 -0.335120
N3    N     N_R   0.499460 0.498800 0.142780 -0.117371
N4    N     N_R   0.499440 0.498720 0.857170 -0.151122
O1    O     O_R   0.500000 0.316780 0.614690 -0.572423
O2    O     O_R   0.583850 0.500050 0.614640 -0.606163
O3    O     O_R   0.583840 0.500030 0.385310 -0.617197
O4    O     O_2   0.855864 0.677101 0.588159 -0.507802
O5    O     O_3   0.930883 0.164489 0.356029 -0.664193
O6    O     O_2   0.847123 0.571574 0.253433 -0.618436
O7    O     O_R   0.764981 0.565981 0.133888 -0.758103
O8    O     O_3   0.415002 0.310450 0.740989 -0.730632
O9    O     O_2   0.627848 0.628639 0.835406 -0.602226
O10   O     O_R   0.565882 0.782616 0.821298 -0.795093
O11   O     O_3   0.953775 0.767961 0.691012 -0.688520
O12   O     O_2   0.842220 0.276016 0.411950 -0.458284
O13   O     O_3   0.320149 0.595235 0.274227 -0.735585
O14   O     O_2   0.158900 0.355951 0.751830 -0.607670
O15   O     O_R   0.241915 0.377978 0.867579 -0.806534
O16   O     O_2   0.759339 0.406667 0.854571 -0.582712
O17   O     O_R   0.840687 0.361182 0.749078 -0.808294
O18   O     O_2   0.142481 0.275380 0.407836 -0.542057
O19   O     O_2   0.154458 0.668124 0.608629 -0.546523
O20   O     O_R   0.500000 0.316750 0.385360 -0.650712
O21   O     O_R   0.416160 0.499970 0.614690 -0.560700
O22   O     O_R   0.416150 0.499950 0.385360 -0.632003
O23   O     O_R   0.500000 0.683250 0.614640 -0.601879
O24   O     O_R   0.500000 0.683220 0.385310 -0.626557
Zn1   Zn    Zn3+2 0.500000 0.500020 0.653130 1.005722
Zn2   Zn    Zn3+2 0.500000 0.499980 0.346870 0.956461

loop_
_geom_bond_atom_site_label_1
_geom_bond_atom_site_label_2
_ccdc_geom_bond_type
C22   C29   A    
H11   O8    S    
C27   C29   A    
C41   C42   A    
C35   C36   A    
O24   Zn2   S    
C7    C8    A    
C46   O9    D    
C48   O17   S    
C37   N3    A    
C12   C23   A    
C26   C27   A    
C12   C41   A    
C12   O5    S    
C3    C9    A    
C39   N1    A    
C33   O8    S    
C15   C44   S    
C30   C31   A    
C52   N2    A    
C10   C17   A    
C1    O1    A    
C35   N4    A    
C18   C19   A    
O2    Zn1   S    
C51   O11   S    
C16   O24   A    
C19   C20   A    
C8    C9    A    
C4    O22   A    
C13   C28   S    
C18   C24   A    
C31   H4    S    
C44   O7    S    
C11   H1    S    
C13   C14   A    
C28   O3    A    
C1    C25   S    
C19   H20   S    
C32   H5    S    
C44   O6    D    
C1    O20   A    
O21   Zn1   S    
H13   O10   S    
O1    Zn1   S    
H16   O15   S    
C28   O2    A    
C50   H6    S    
C24   C25   A    
C4    C6    S    
C39   C43   A    
C3    C5    A    
C16   C29   S    
N4    Zn1   S    
N3    Zn2   S    
C42   C45   A    
C37   C38   A    
C2    N2    A    
C2    C49   A    
C16   O23   A    
C31   C32   A    
C45   C49   A    
C23   C34   A    
C14   H12   S    
C4    O21   A    
C17   N1    S    
C50   C51   A    
O23   Zn1   S    
C34   C45   A    
C40   O12   S    
C6    C7    A    
H9    O5    S    
C40   C41   A    
C37   H24   S    
C2    O19   S    
C10   C48   S    
C26   H18   S    
C22   C24   A    
C42   C43   A    
C7    H8    S    
C23   H2    S    
H10   O7    S    
C18   H19   S    
C15   C17   A    
C48   O16   D    
C14   C15   A    
C34   C52   A    
C27   H23   S    
C36   N3    A    
C39   O4    S    
C5    O13   S    
H14   O11   S    
C46   O10   S    
C30   H3    S    
O20   Zn2   S    
O3    Zn2   S    
C30   C36   A    
C32   C33   A    
C25   C26   A    
C8    C47   S    
C11   C13   A    
C43   C51   A    
C5    C6    A    
C38   N4    A    
C21   H22   S    
C52   O18   S    
C33   C35   A    
C47   O14   D    
C20   H21   S    
O22   Zn2   S    
C9    N2    S    
C38   C46   S    
C10   C11   A    
C20   C21   A    
C49   C50   A    
H15   O13   S    
C47   O15   S    
C40   N1    A    
C21   C22   A    
C3    H7    S    
H17   O17   S    
