data_mof_unit_39376.cif
_audit_creation_date              2012-12-10T18:14:39-0500
_audit_creation_method            fapswitch 2.2
_symmetry_space_group_name_H-M    P1
_symmetry_Int_Tables_number       1
_space_group_crystal_system       triclinic
_cell_length_a                    18.464067
_cell_length_b                    18.460912
_cell_length_c                    36.072684
_cell_angle_alpha                 89.999269
_cell_angle_beta                  89.995567
_cell_angle_gamma                 89.997875
_cell_volume                      12295.8618553

loop_
_atom_site_label
_atom_site_type_symbol
_atom_type_description
_atom_site_fract_x
_atom_site_fract_y
_atom_site_fract_z
_atom_type_partial_charge
C1    C     C_R   0.565736 0.999236 0.480654 -0.084776
C2    C     C_R   0.934267 0.500986 0.019346 -0.084454
C3    C     C_R   0.803796 0.696131 0.749993 -0.064494
C4    C     C_R   0.696716 0.196549 0.249921 -0.068302
C5    C     C_R   0.303914 0.803695 0.749952 -0.065448
C6    C     C_R   0.803295 0.696659 0.250033 -0.062120
C7    C     C_R   0.196114 0.303823 0.750017 -0.064614
C8    C     C_R   0.303295 0.196659 0.750033 -0.062120
C9    C     C_R   0.696114 0.803823 0.250017 -0.064617
C10   C     C_R   0.196716 0.696549 0.749921 -0.068300
C11   C     C_R   0.803915 0.303695 0.249952 -0.065444
C12   C     C_R   0.696640 0.803319 0.749994 -0.069366
C13   C     C_R   0.498837 0.065743 0.980658 -0.084707
C14   C     C_R   0.303795 0.196131 0.249993 -0.064502
C15   C     C_R   0.803344 0.303354 0.750008 -0.068815
C16   C     C_R   0.196151 0.696205 0.250000 -0.064560
C17   C     C_R   0.501182 0.934257 0.019342 -0.084449
C18   C     C_R   0.934263 0.500989 0.980662 -0.084939
C19   C     C_R   0.065736 0.499002 0.019337 -0.084381
C20   C     C_R   0.501178 0.934257 0.980659 -0.084999
C21   C     C_R   0.498832 0.065743 0.019341 -0.084349
C22   C     C_1   0.499993 0.999994 0.421685 -0.013799
C23   C     C_1   0.500007 0.999997 0.578314 -0.012258
C24   C     C_1   0.000005 0.499999 0.421686 -0.013828
C25   C     C_R   0.434264 0.000746 0.519346 -0.084449
C26   C     C_1   0.000005 0.500001 0.578314 -0.012290
C27   C     C_1   0.999993 0.499994 0.921685 -0.013806
C28   C     C_1   0.000007 0.499997 0.078314 -0.012261
C29   C     C_1   0.500005 0.999999 0.921686 -0.013831
C30   C     C_1   0.500005 0.000001 0.078314 -0.012290
C31   C     C_1   0.000007 0.499999 0.111585 0.070089
C32   C     C_1   0.999993 0.499996 0.888415 0.068441
C33   C     C_1   0.500003 0.000001 0.111584 0.070119
C34   C     C_1   0.500003 0.999999 0.888416 0.068287
C35   C     C_1   0.500007 0.999999 0.611585 0.070092
C36   C     C_R   0.998841 0.565743 0.480658 -0.084707
C37   C     C_1   0.499993 0.999996 0.388415 0.068446
C38   C     C_1   0.000003 0.500001 0.611584 0.070120
C39   C     C_1   0.000003 0.499999 0.388416 0.068290
C40   C     C_R   0.000001 0.500000 0.348911 0.521056
C41   C     C_R   0.000000 0.500000 0.651089 0.523163
C42   C     C_R   0.499998 0.999999 0.348909 0.521566
C43   C     C_R   0.500002 0.000000 0.651091 0.522906
C44   C     C_R   0.500001 1.000000 0.848911 0.521052
C45   C     C_R   0.500000 0.000000 0.151089 0.523162
C46   C     C_R   0.999998 0.499999 0.848909 0.521569
C47   C     C_R   0.001177 0.434257 0.519342 -0.084447
C48   C     C_R   0.000002 0.500000 0.151091 0.522906
C49   C     C_R   0.140304 0.359695 0.250001 0.551938
C50   C     C_R   0.859874 0.640116 0.749999 0.574607
C51   C     C_R   0.640308 0.140281 0.249982 0.553450
C52   C     C_R   0.359889 0.859849 0.749995 0.573608
C53   C     C_R   0.859684 0.640308 0.250009 0.551242
C54   C     C_R   0.140105 0.359881 0.750001 0.573890
C55   C     C_R   0.359703 0.859693 0.250004 0.552367
C56   C     C_R   0.640120 0.140130 0.750000 0.573867
C57   C     C_R   0.140308 0.640281 0.749982 0.553456
C58   C     C_R   0.434260 0.000749 0.480662 -0.084934
C59   C     C_R   0.859889 0.359849 0.249995 0.573615
C60   C     C_R   0.640304 0.859695 0.750001 0.551925
C61   C     C_R   0.359874 0.140116 0.249999 0.574582
C62   C     C_R   0.859703 0.359694 0.750004 0.552372
C63   C     C_R   0.140120 0.640130 0.250000 0.573875
C64   C     C_R   0.359684 0.140308 0.750009 0.551240
C65   C     C_R   0.640105 0.859881 0.250001 0.573885
C66   C     C_R   0.248449 0.698897 0.221320 0.174100
C67   C     C_R   0.740741 0.310352 0.772765 0.197948
C68   C     C_R   0.300976 0.248291 0.221253 0.173997
C69   C     C_R   0.565739 0.999242 0.519337 -0.084378
C70   C     C_R   0.689749 0.740798 0.772826 0.199919
C71   C     C_R   0.751392 0.301267 0.221371 0.173584
C72   C     C_R   0.259561 0.689244 0.772452 0.205308
C73   C     C_R   0.699276 0.752001 0.221136 0.175240
C74   C     C_R   0.309823 0.258880 0.773119 0.160385
C75   C     C_R   0.247871 0.300663 0.778923 0.179072
C76   C     C_R   0.741071 0.690065 0.226967 0.160017
C77   C     C_R   0.301538 0.750984 0.778460 0.209889
C78   C     C_R   0.689591 0.259351 0.227325 0.155505
C79   C     C_R   0.751593 0.698907 0.778718 0.209969
C80   C     C_R   0.001173 0.434256 0.480659 -0.084996
C81   C     C_R   0.259130 0.310168 0.227146 0.156167
C82   C     C_R   0.698812 0.248534 0.778674 0.208069
C83   C     C_R   0.310294 0.740761 0.227242 0.156478
C84   C     C_R   0.748452 0.198895 0.721321 0.174102
C85   C     C_R   0.240743 0.810349 0.272767 0.197947
C86   C     C_R   0.800971 0.748285 0.721251 0.173999
C87   C     C_R   0.189742 0.240792 0.272821 0.199936
C88   C     C_R   0.251390 0.801269 0.721373 0.173586
C89   C     C_R   0.759559 0.189246 0.272453 0.205309
C90   C     C_R   0.199277 0.252002 0.721135 0.175239
C91   C     C_R   0.998837 0.565743 0.519341 -0.084349
C92   C     C_R   0.809825 0.758881 0.273118 0.160386
C93   C     C_R   0.747873 0.800665 0.278923 0.179068
C94   C     C_R   0.241072 0.190066 0.726966 0.160015
C95   C     C_R   0.801535 0.250987 0.278461 0.209895
C96   C     C_R   0.189588 0.759353 0.727327 0.155509
C97   C     C_R   0.251584 0.198901 0.278714 0.209971
C98   C     C_R   0.759127 0.810163 0.727142 0.156167
C99   C     C_R   0.198815 0.748530 0.278676 0.208073
C100  C     C_R   0.810296 0.240760 0.727243 0.156479
C101  C     C_R   0.499996 0.999993 0.461338 0.035607
C102  C     C_R   0.065733 0.498997 0.980654 -0.084773
C103  C     C_R   0.500004 0.999995 0.538662 0.035726
C104  C     C_R   0.000007 0.500000 0.461338 0.035604
C105  C     C_R   0.000007 0.500000 0.538662 0.035714
C106  C     C_R   0.999996 0.499993 0.961337 0.035604
C107  C     C_R   0.000003 0.499995 0.038662 0.035725
C108  C     C_R   0.500007 1.000000 0.961338 0.035601
C109  C     C_R   0.500007 0.000001 0.038662 0.035714
C110  C     C_R   0.303345 0.803354 0.250008 -0.068817
C111  C     C_R   0.696150 0.196206 0.750000 -0.064563
C112  C     C_R   0.196639 0.303318 0.249993 -0.069351
H1    H     H_    0.116786 0.498235 0.034147 0.145756
H2    H     H_    0.383208 0.001339 0.465853 0.144104
H3    H     H_    0.997926 0.616798 0.534154 0.145738
H4    H     H_    0.002077 0.383201 0.465846 0.144029
H5    H     H_    0.383214 0.001329 0.534162 0.145616
H6    H     H_    0.616785 0.998647 0.465838 0.144587
H7    H     H_    0.002088 0.383202 0.534156 0.145586
H8    H     H_    0.997938 0.616798 0.465844 0.144808
H9    H     H_    0.273634 0.680679 0.120862 0.377813
H10   H     H_    0.604160 0.437761 0.808133 0.386429
H11   H     H_    0.318728 0.272893 0.120737 0.377690
H12   H     H_    0.883213 0.501765 0.965853 0.144101
H13   H     H_    0.562547 0.604234 0.808405 0.379972
H14   H     H_    0.725480 0.320219 0.120997 0.377872
H15   H     H_    0.396863 0.561241 0.806448 0.379848
H16   H     H_    0.682421 0.728528 0.120510 0.377789
H17   H     H_    0.378458 0.405686 0.776411 0.359548
H18   H     H_    0.271023 0.317345 0.879575 0.375885
H19   H     H_    0.594334 0.621362 0.223972 0.363428
H20   H     H_    0.321318 0.723863 0.878708 0.374000
H21   H     H_    0.620822 0.406044 0.225807 0.362177
H22   H     H_    0.726340 0.680462 0.879161 0.373601
H23   H     H_    0.497917 0.116798 0.034154 0.145739
H24   H     H_    0.405837 0.378879 0.224857 0.362892
H25   H     H_    0.680083 0.274047 0.879092 0.374481
H26   H     H_    0.379001 0.594040 0.225276 0.362640
H27   H     H_    0.773646 0.180669 0.620864 0.377804
H28   H     H_    0.104166 0.937755 0.308143 0.386424
H29   H     H_    0.818705 0.772865 0.620733 0.377692
H30   H     H_    0.062528 0.104220 0.308380 0.379966
H31   H     H_    0.225468 0.820228 0.620999 0.377863
H32   H     H_    0.896858 0.061249 0.306458 0.379846
H33   H     H_    0.182427 0.228535 0.620509 0.377794
H34   H     H_    0.502085 0.883202 0.965847 0.144032
H35   H     H_    0.878460 0.905687 0.276406 0.359551
H36   H     H_    0.771031 0.817352 0.379573 0.375893
H37   H     H_    0.094335 0.121363 0.723969 0.363429
H38   H     H_    0.821306 0.223877 0.378711 0.373992
H39   H     H_    0.120820 0.906045 0.725815 0.362173
H40   H     H_    0.226076 0.180248 0.379128 0.373639
H41   H     H_    0.905833 0.878874 0.724840 0.362899
H42   H     H_    0.180094 0.774031 0.379094 0.374474
H43   H     H_    0.879003 0.094038 0.725283 0.362633
H44   H     H_    0.883220 0.501755 0.034162 0.145618
H45   H     H_    0.116780 0.498221 0.965838 0.144586
H46   H     H_    0.502097 0.883203 0.034156 0.145587
H47   H     H_    0.497929 0.116798 0.965844 0.144809
H48   H     H_    0.616792 0.998661 0.534147 0.145754
O1    O     O_3   0.000000 0.500000 0.250000 -0.533768
O2    O     O_R   1.000000 0.560700 0.668450 -0.504775
O3    O     O_3   0.389684 0.617662 0.201229 -0.386267
O4    O     O_2   0.751977 0.083248 0.675532 -0.158340
O5    O     O_2   0.654198 0.171157 0.666126 -0.277653
O6    O     O_3   0.782980 0.206304 0.644507 -0.443611
O7    O     O_2   0.246546 0.917305 0.323616 -0.181176
O8    O     O_2   0.216651 0.952250 0.259758 -0.237197
O9    O     O_3   0.117737 0.889288 0.298621 -0.419030
O10   O     O_2   0.916386 0.751568 0.675311 -0.159056
O11   O     O_2   0.828493 0.653687 0.666172 -0.277058
O12   O     O_3   0.793191 0.782349 0.644395 -0.443682
O13   O     O_R   0.560700 0.000000 0.331550 -0.504453
O14   O     O_2   0.082985 0.246720 0.323759 -0.180322
O15   O     O_2   0.047841 0.216585 0.259957 -0.235015
O16   O     O_3   0.110972 0.117811 0.298845 -0.439337
O17   O     O_2   0.247534 0.917243 0.675805 -0.157722
O18   O     O_2   0.345243 0.829398 0.666039 -0.276807
O19   O     O_3   0.216311 0.794413 0.644610 -0.443653
O20   O     O_2   0.754779 0.081552 0.322932 -0.175387
O21   O     O_2   0.783211 0.047511 0.258777 -0.267341
O22   O     O_3   0.883041 0.109903 0.297286 -0.441110
O23   O     O_2   0.084245 0.249225 0.674935 -0.158721
O24   O     O_R   0.439300 1.000000 0.668450 -0.504536
O25   O     O_2   0.172221 0.347195 0.666271 -0.281567
O26   O     O_3   0.207711 0.218765 0.644204 -0.445205
O27   O     O_2   0.915937 0.752170 0.324380 -0.140409
O28   O     O_2   0.952304 0.783564 0.261095 -0.240682
O29   O     O_3   0.888617 0.881415 0.300343 -0.422334
O30   O     O_2   0.750502 0.915629 0.325186 -0.174880
O31   O     O_2   0.652512 0.827634 0.333719 -0.281780
O32   O     O_3   0.780845 0.792082 0.355877 -0.447775
O33   O     O_2   0.247540 0.083796 0.675771 -0.134110
O34   O     O_2   0.216544 0.047582 0.739131 -0.276855
O35   O     O_R   0.500000 0.060700 0.831550 -0.505880
O36   O     O_3   0.118452 0.111143 0.699997 -0.385130
O37   O     O_2   0.917742 0.246648 0.323808 -0.158453
O38   O     O_2   0.830030 0.344337 0.333984 -0.287261
O39   O     O_3   0.795133 0.215205 0.355158 -0.457236
O40   O     O_2   0.082284 0.754208 0.676679 -0.131811
O41   O     O_2   0.047348 0.783274 0.740458 -0.279131
O42   O     O_3   0.109978 0.882632 0.701734 -0.386240
O43   O     O_2   0.248087 0.083276 0.324503 -0.159732
O44   O     O_2   0.345969 0.171093 0.333859 -0.287266
O45   O     O_3   0.217279 0.206357 0.355563 -0.458335
O46   O     O_R   0.500000 0.939300 0.168450 -0.504498
O47   O     O_2   0.753297 0.916923 0.676196 -0.132557
O48   O     O_2   0.783366 0.952548 0.739754 -0.278075
O49   O     O_3   0.882058 0.889408 0.700817 -0.385602
O50   O     O_2   0.083040 0.752159 0.324361 -0.145078
O51   O     O_2   0.170860 0.654331 0.333891 -0.289051
O52   O     O_3   0.205974 0.783137 0.355497 -0.458210
O53   O     O_2   0.917320 0.246281 0.676427 -0.132422
O54   O     O_2   0.952601 0.216634 0.740084 -0.278209
O55   O     O_3   0.889688 0.117658 0.701235 -0.386274
O56   O     O_R   0.939300 0.500000 0.831550 -0.505363
O57   O     O_R   0.060700 0.500000 0.168450 -0.504576
O58   O     O_R   0.500000 0.939300 0.831550 -0.505515
O59   O     O_R   0.500000 0.060700 0.168450 -0.504775
O60   O     O_R   0.060700 0.500000 0.831550 -0.504453
O61   O     O_3   0.000000 0.500000 0.750000 -0.533590
O62   O     O_R   0.939300 0.500000 0.168450 -0.504536
O63   O     O_R   0.085400 0.353840 0.271430 -0.477369
O64   O     O_R   0.914600 0.646160 0.728570 -0.469635
O65   O     O_R   0.646160 0.085400 0.271430 -0.476170
O66   O     O_R   0.353840 0.914600 0.728570 -0.469636
O67   O     O_R   0.914600 0.646160 0.271430 -0.478563
O68   O     O_R   0.085400 0.353840 0.728570 -0.468229
O69   O     O_R   0.353840 0.914600 0.271430 -0.477292
O70   O     O_R   0.646160 0.085400 0.728570 -0.469614
O71   O     O_R   0.085400 0.646160 0.728570 -0.476652
O72   O     O_3   0.500000 0.000000 0.250000 -0.533590
O73   O     O_R   0.914600 0.353840 0.271430 -0.463478
O74   O     O_R   0.646160 0.914600 0.728570 -0.476136
O75   O     O_R   0.353840 0.085400 0.271430 -0.463479
O76   O     O_R   0.914600 0.353840 0.728570 -0.476194
O77   O     O_R   0.085400 0.646160 0.271430 -0.464135
O78   O     O_R   0.353840 0.085400 0.728570 -0.476831
O79   O     O_R   0.646160 0.914600 0.271430 -0.466815
O80   O     O_R   0.585400 0.853840 0.771430 -0.477377
O81   O     O_R   0.414600 0.146160 0.228570 -0.469635
O82   O     O_R   0.146160 0.585400 0.771430 -0.476170
O83   O     O_3   0.500000 0.000000 0.750000 -0.533767
O84   O     O_R   0.853840 0.414600 0.228570 -0.469637
O85   O     O_R   0.414600 0.146160 0.771430 -0.478562
O86   O     O_R   0.585400 0.853840 0.228570 -0.468228
O87   O     O_R   0.853840 0.414600 0.771430 -0.477296
O88   O     O_R   0.146160 0.585400 0.228570 -0.469612
O89   O     O_R   0.585400 0.146160 0.228570 -0.476651
O90   O     O_R   0.414600 0.853840 0.771430 -0.463481
O91   O     O_R   0.146160 0.414600 0.228570 -0.476141
O92   O     O_R   0.853840 0.585400 0.771430 -0.463482
O93   O     O_R   0.414600 0.853840 0.228570 -0.476193
O94   O     O_R   0.000000 0.560700 0.331550 -0.505880
O95   O     O_R   0.585400 0.146160 0.771430 -0.464135
O96   O     O_R   0.853840 0.585400 0.228570 -0.476832
O97   O     O_R   0.146160 0.414600 0.771430 -0.466815
O98   O     O_2   0.251970 0.583253 0.175529 -0.158347
O99   O     O_2   0.154191 0.671164 0.166126 -0.277648
O100  O     O_3   0.282970 0.706313 0.144506 -0.443609
O101  O     O_2   0.746538 0.417314 0.823611 -0.181152
O102  O     O_2   0.716652 0.452252 0.759751 -0.237225
O103  O     O_3   0.617732 0.389294 0.798612 -0.419030
O104  O     O_2   0.416399 0.251584 0.175319 -0.159037
O105  O     O_R   1.000000 0.439300 0.668450 -0.504499
O106  O     O_2   0.328507 0.153705 0.166170 -0.277053
O107  O     O_3   0.293210 0.282372 0.144399 -0.443690
O108  O     O_2   0.583004 0.746741 0.823770 -0.180275
O109  O     O_2   0.547847 0.716581 0.759973 -0.235018
O110  O     O_3   0.610989 0.617824 0.798867 -0.439266
O111  O     O_2   0.747541 0.417238 0.175802 -0.157728
O112  O     O_2   0.845251 0.329392 0.166040 -0.276798
O113  O     O_3   0.716322 0.294405 0.144608 -0.443651
O114  O     O_2   0.254785 0.581545 0.822928 -0.175373
O115  O     O_2   0.283210 0.547510 0.758772 -0.267352
O116  O     O_R   0.439300 0.000000 0.331550 -0.505364
O117  O     O_3   0.383045 0.609898 0.797280 -0.441103
O118  O     O_2   0.584242 0.749221 0.174937 -0.158714
O119  O     O_2   0.672218 0.847191 0.166271 -0.281569
O120  O     O_3   0.707707 0.718759 0.144205 -0.445215
O121  O     O_2   0.415933 0.252166 0.824382 -0.140411
O122  O     O_2   0.452303 0.283565 0.761099 -0.240675
O123  O     O_3   0.388614 0.381412 0.800347 -0.422329
O124  O     O_2   0.250498 0.415625 0.825188 -0.174881
O125  O     O_2   0.152507 0.327630 0.833719 -0.281791
O126  O     O_3   0.280838 0.292077 0.855878 -0.447780
O127  O     O_R   0.560700 1.000000 0.668450 -0.504572
O128  O     O_2   0.747537 0.583793 0.175773 -0.134114
O129  O     O_2   0.716544 0.547582 0.239134 -0.276858
O130  O     O_3   0.618449 0.611140 0.200001 -0.385134
O131  O     O_2   0.417749 0.746641 0.823804 -0.158447
O132  O     O_2   0.330037 0.844329 0.833985 -0.287258
O133  O     O_3   0.295143 0.715195 0.855156 -0.457224
O134  O     O_2   0.582291 0.254200 0.176675 -0.131814
O135  O     O_2   0.547349 0.283275 0.240452 -0.279121
O136  O     O_3   0.609983 0.382628 0.201726 -0.386230
O137  O     O_2   0.748115 0.583296 0.824518 -0.159555
O138  O     O_R   0.000000 0.439300 0.331550 -0.505516
O139  O     O_2   0.845997 0.671121 0.833854 -0.287491
O140  O     O_3   0.717311 0.706385 0.855568 -0.458353
O141  O     O_2   0.253313 0.416937 0.176204 -0.132551
O142  O     O_2   0.283364 0.452551 0.239766 -0.278083
O143  O     O_3   0.382068 0.389419 0.200833 -0.385609
O144  O     O_2   0.583033 0.252167 0.824357 -0.145069
O145  O     O_2   0.670853 0.154341 0.833891 -0.289055
O146  O     O_3   0.705964 0.283150 0.855495 -0.458197
O147  O     O_2   0.417314 0.746287 0.176424 -0.132427
O148  O     O_2   0.452600 0.716633 0.240079 -0.278201
S1    S     S_3+6 0.232723 0.662349 0.176203 0.107702
S2    S     S_3+6 0.707114 0.605473 0.210194 0.135052
S3    S     S_3+6 0.338675 0.765957 0.823517 0.105302
S4    S     S_3+6 0.604619 0.293655 0.211278 0.133337
S5    S     S_3+6 0.767430 0.662376 0.823833 0.104347
S6    S     S_3+6 0.293257 0.394948 0.210716 0.134151
S7    S     S_3+6 0.662112 0.232875 0.823771 0.107529
S8    S     S_3+6 0.395153 0.706548 0.210973 0.133485
S9    S     S_3+6 0.732730 0.162343 0.676204 0.107698
S10   S     S_3+6 0.206672 0.895206 0.289085 0.136235
S11   S     S_3+6 0.837315 0.732298 0.676114 0.107670
S12   S     S_3+6 0.706668 0.395211 0.789079 0.136234
S13   S     S_3+6 0.104976 0.206729 0.289241 0.135745
S14   S     S_3+6 0.266786 0.838144 0.676292 0.108148
S15   S     S_3+6 0.793896 0.104128 0.288253 0.124134
S16   S     S_3+6 0.163314 0.268475 0.675966 0.103702
S17   S     S_3+6 0.894336 0.792796 0.290009 0.140382
S18   S     S_3+6 0.731252 0.836551 0.324096 0.098042
S19   S     S_3+6 0.207116 0.105475 0.710191 0.135057
S20   S     S_3+6 0.838669 0.265964 0.323518 0.105294
S21   S     S_3+6 0.104615 0.793658 0.711283 0.133325
S22   S     S_3+6 0.267406 0.162356 0.323828 0.104375
S23   S     S_3+6 0.337328 0.232313 0.176117 0.107676
S24   S     S_3+6 0.793250 0.894939 0.710706 0.134160
S25   S     S_3+6 0.162118 0.732867 0.323773 0.107524
S26   S     S_3+6 0.895157 0.206546 0.710977 0.133478
S27   S     S_3+6 0.604988 0.706738 0.789255 0.135812
S28   S     S_3+6 0.766793 0.338139 0.176291 0.108153
S29   S     S_3+6 0.293899 0.604124 0.788249 0.124131
S30   S     S_3+6 0.663311 0.768472 0.175967 0.103701
S31   S     S_3+6 0.394334 0.292794 0.790011 0.140385
S32   S     S_3+6 0.231247 0.336548 0.824097 0.098033
Zn1   Zn    Zn3+2 0.086700 0.500000 0.219560 1.081877
Zn2   Zn    Zn3+2 0.413300 0.000000 0.280440 1.083595
Zn3   Zn    Zn3+2 0.000000 0.586700 0.719560 1.081988
Zn4   Zn    Zn3+2 0.000000 0.413300 0.280440 1.082735
Zn5   Zn    Zn3+2 0.413300 0.000000 0.719560 1.081346
Zn6   Zn    Zn3+2 0.586700 0.000000 0.280440 1.080791
Zn7   Zn    Zn3+2 0.000000 0.413300 0.719560 1.082609
Zn8   Zn    Zn3+2 0.000000 0.586700 0.280440 1.082834
Zn9   Zn    Zn3+2 0.913300 0.500000 0.780440 1.083600
Zn10  Zn    Zn3+2 0.500000 0.086700 0.219560 1.081982
Zn11  Zn    Zn3+2 0.500000 0.913300 0.780440 1.082724
Zn12  Zn    Zn3+2 0.913300 0.500000 0.219560 1.081347
Zn13  Zn    Zn3+2 0.086700 0.500000 0.780440 1.080796
Zn14  Zn    Zn3+2 0.500000 0.913300 0.219560 1.082606
Zn15  Zn    Zn3+2 0.500000 0.086700 0.780440 1.082829
Zn16  Zn    Zn3+2 0.586700 0.000000 0.719560 1.081874

loop_
_geom_bond_atom_site_label_1
_geom_bond_atom_site_label_2
_ccdc_geom_bond_type
O83   Zn15  S    
O61   Zn3   S    
C33   C45   S    
C41   O105  A    
C3    C79   A    
O70   Zn16  S    
C50   O64   A    
C68   C81   A    
H37   O36   S    
O44   S22   D    
O124  S32   D    
C19   H1    S    
C69   H48   S    
C37   C42   S    
H17   O123  S    
H42   O52   S    
C5    C88   A    
O52   S25   S    
O15   S13   D    
C23   C103  S    
C80   H4    S    
C47   C105  A    
C29   C108  S    
C60   O80   A    
O42   S21   S    
C64   O78   A    
C42   O116  A    
O11   S11   D    
O58   Zn11  S    
C41   O2    A    
C26   C105  S    
O1    Zn4   S    
C48   O57   A    
C61   O81   A    
O141  S6    D    
C30   C109  S    
C89   S15   S    
C44   O58   A    
O67   Zn8   S    
C85   C110  A    
C26   C38   T    
C87   C112  A    
C14   C97   A    
C4    C78   A    
C57   O82   A    
O16   S13   S    
O111  S28   D    
C8    C74   A    
C13   C21   A    
C58   C101  A    
H22   O140  S    
C36   C91   A    
O117  S29   S    
C31   C48   S    
C20   H34   S    
C5    C77   A    
C1    C101  A    
H38   O39   S    
C50   O92   A    
C87   S13   S    
C3    C50   S    
C4    C89   A    
O1    Zn8   S    
C34   C44   S    
O85   Zn15  S    
C2    H44   S    
C70   C79   A    
O76   Zn7   S    
O83   Zn5   S    
O19   S14   S    
C17   C109  A    
C63   O77   A    
O37   S20   D    
C72   S29   S    
C82   C111  A    
O123  S31   S    
C53   O67   A    
O82   Zn13  S    
O95   Zn15  S    
O20   S15   D    
C48   O62   A    
O27   S17   D    
C6    C92   A    
C98   S24   S    
O50   S25   D    
O126  S32   S    
C9    C65   S    
O103  S12   S    
H9    O100  S    
C81   S6    S    
O65   Zn6   S    
O61   Zn9   S    
C52   O90   A    
C21   H23   S    
C20   C108  A    
C65   O86   A    
O109  S27   D    
H28   O9    S    
C91   C105  A    
H18   O126  S    
O105  Zn7   S    
H24   O143  S    
O39   S20   S    
O59   Zn10  S    
O28   S17   D    
O118  S30   D    
O143  S6    S    
O2    Zn3   S    
O21   S15   D    
O71   Zn3   S    
C73   S30   S    
O114  S29   D    
O120  S30   S    
O68   Zn7   S    
O89   Zn10  S    
C53   O96   A    
H31   O19   S    
C35   C43   S    
O23   S16   D    
C70   S27   S    
O51   S25   D    
C59   O73   A    
C47   C80   A    
C13   C108  A    
C86   C98   A    
O72   Zn10  S    
O43   S22   D    
O94   Zn8   S    
O49   S24   S    
C69   C103  A    
C46   O60   A    
C4    C51   S    
O131  S3    D    
C38   C41   S    
O97   Zn13  S    
C39   C40   S    
O1    Zn1   S    
C27   C106  S    
C7    C90   A    
O104  S23   D    
C55   O93   A    
O101  S12   D    
C59   O84   A    
O133  S3    S    
C18   C106  A    
C85   C99   A    
O135  S4    D    
C81   C112  A    
C82   S7    S    
C15   C67   A    
O54   S26   D    
C83   C110  A    
O127  Zn16  S    
C68   S23   S    
C8    C64   S    
C76   S2    S    
C52   O66   A    
C77   S3    S    
O60   Zn13  S    
C78   S4    S    
O12   S11   S    
C61   O75   A    
O138  Zn4   S    
O17   S14   D    
O93   Zn14  S    
O83   Zn11  S    
O7    S10   D    
C12   C70   A    
C32   C46   S    
C21   C109  A    
C6    C76   A    
H13   O110  S    
C40   O94   A    
O77   Zn8   S    
H35   O29   S    
O24   Zn5   S    
O53   S26   D    
O25   S16   D    
C92   S17   S    
O1    Zn12  S    
O61   Zn13  S    
C96   S21   S    
C94   S19   S    
C58   H2    S    
C24   C39   T    
C13   H47   S    
O142  S6    D    
C10   C72   A    
O84   Zn12  S    
C88   C96   A    
O122  S31   D    
O119  S30   D    
C15   C100  A    
C93   S18   S    
O86   Zn14  S    
C45   O46   A    
C22   C101  S    
C80   C104  A    
O146  S7    S    
O91   Zn1   S    
C19   C102  A    
C11   C71   A    
H10   O103  S    
C17   C20   A    
H20   O133  S    
H21   O136  S    
C100  S26   S    
C66   C83   A    
C66   S1    S    
H26   O3    S    
C16   C63   S    
C56   C111  S    
C12   C98   A    
C30   C33   T    
O83   Zn16  S    
O73   Zn4   S    
C49   O63   A    
C3    C86   A    
C11   C59   S    
C90   C94   A    
C84   C111  A    
C60   O74   A    
O92   Zn9   S    
O125  S32   D    
O66   Zn5   S    
H30   O16   S    
C22   C37   T    
C29   C34   T    
C1    C69   A    
O112  S28   D    
C84   C100  A    
C89   C95   A    
O55   S26   S    
O35   Zn15  S    
O140  S5    S    
O6    S9    S    
O45   S22   S    
O96   Zn12  S    
C56   O70   A    
O110  S27   S    
H15   O117  S    
H43   O55   S    
C54   O68   A    
O9    S10   S    
C49   C112  S    
O130  S2    S    
C46   O56   A    
O90   Zn11  S    
O80   Zn11  S    
O74   Zn16  S    
C75   S32   S    
C16   C66   A    
H39   O42   S    
C88   S14   S    
O144  S7    D    
O57   Zn1   S    
C44   O35   A    
O22   S15   S    
C27   C32   T    
C28   C31   T    
O98   S1    D    
O79   Zn6   S    
O34   S19   D    
O145  S7    D    
O31   S18   D    
O61   Zn7   S    
O132  S3    D    
H41   O49   S    
O48   S24   D    
C99   S25   S    
O26   S16   S    
C92   C93   A    
C15   C62   S    
C91   H3    S    
C36   H8    S    
O81   Zn10  S    
O137  S5    D    
C49   O91   A    
H11   O107  S    
O134  S4    D    
O29   S17   S    
O121  S31   D    
C54   O97   A    
C14   C68   A    
O56   Zn9   S    
C79   S5    S    
C7    C54   S    
C95   S20   S    
O5    S9    D    
H36   O32   S    
O46   Zn14  S    
O63   Zn4   S    
O100  S1    S    
C2    C18   A    
O99   S1    D    
C55   O69   A    
C86   S11   S    
C63   O88   A    
O64   Zn3   S    
O36   S19   S    
C57   O71   A    
C28   C107  S    
O108  S27   D    
C2    C107  A    
O102  S12   D    
O78   Zn5   S    
C71   S28   S    
O38   S20   D    
O148  S8    D    
C85   S10   S    
O10   S11   D    
C64   O85   A    
O136  S4    S    
O116  Zn2   S    
C51   O65   A    
C5    C52   S    
C74   S31   S    
C97   S22   S    
C47   H7    S    
O75   Zn2   S    
C9    C73   A    
C102  H45   S    
O128  S2    D    
C43   O127  A    
H32   O22   S    
C83   S8    S    
C62   O76   A    
C74   C75   A    
H40   O45   S    
C10   C57   S    
O8    S10   D    
O30   S18   D    
C25   C103  A    
C7    C75   A    
C14   C61   S    
O113  S28   S    
O4    S9    D    
C24   C104  S    
H27   O6    S    
C72   C77   A    
O32   S18   S    
O106  S23   D    
H29   O12   S    
C10   C96   A    
O69   Zn2   S    
O72   Zn6   S    
C17   H46   S    
H14   O113  S    
O47   S24   D    
C55   C110  S    
C45   O59   A    
C25   C58   A    
C8    C94   A    
C9    C93   A    
O87   Zn9   S    
C90   S16   S    
O14   S13   D    
C11   C95   A    
O129  S2    D    
C67   S12   S    
H19   O130  S    
O33   S19   D    
O3    S8    S    
C42   O13   A    
C25   H5    S    
C16   C99   A    
O72   Zn14  S    
C43   O24   A    
C23   C35   T    
H33   O26   S    
C36   C104  A    
C40   O138  A    
O72   Zn2   S    
C84   S9    S    
O107  S23   S    
O62   Zn12  S    
O13   Zn6   S    
O18   S14   D    
C62   O87   A    
C73   C76   A    
H16   O120  S    
C102  C106  A    
C1    H6    S    
C51   O89   A    
O139  S5    D    
C12   C60   S    
C67   C82   A    
C56   O95   A    
C18   H12   S    
C65   O79   A    
O147  S8    D    
C6    C53   S    
O88   Zn1   S    
O115  S29   D    
O41   S21   D    
C71   C78   A    
H25   O146  S    
C19   C107  A    
O40   S21   D    
C87   C97   A    
