data_mof_unit_50512.cif
_audit_creation_date              2012-12-10T21:32:09-0500
_audit_creation_method            fapswitch 2.2
_symmetry_space_group_name_H-M    P1
_symmetry_Int_Tables_number       1
_space_group_crystal_system       triclinic
_cell_length_a                    15.243031
_cell_length_b                    16.174922
_cell_length_c                    16.520016
_cell_angle_alpha                 90.804689
_cell_angle_beta                  90.373602
_cell_angle_gamma                 109.784207
_cell_volume                      3832.01895902

loop_
_atom_site_label
_atom_site_type_symbol
_atom_type_description
_atom_site_fract_x
_atom_site_fract_y
_atom_site_fract_z
_atom_type_partial_charge
C1    C     C_R   0.507060 0.492845 0.345996 0.910920
C2    C     C_R   0.548082 0.464170 0.786450 -0.073136
C3    C     C_R   0.597125 0.597002 0.146029 -0.232975
C4    C     C_R   0.581951 0.490511 0.864092 -0.242084
C5    C     C_R   0.617543 0.529914 0.105245 0.218980
C6    C     C_R   0.565505 0.560878 0.903594 0.169886
C7    C     C_R   0.610329 0.452103 0.145291 -0.121310
C8    C     C_R   0.512735 0.605350 0.864716 -0.063478
C9    C     C_R   0.574737 0.439131 0.225100 0.371894
C10   C     C_R   0.479502 0.580986 0.785370 0.344246
C11   C     C_R   0.558394 0.782459 0.527333 -0.064877
C12   C     C_R   0.497511 0.508779 0.654239 0.838458
C13   C     C_R   0.436932 0.216079 0.480178 -0.058675
C14   C     C_R   0.562023 0.870133 0.518208 0.319838
C15   C     C_R   0.435472 0.128757 0.487873 0.319650
C16   C     C_R   0.326130 0.445903 0.508121 0.857441
C17   C     C_R   0.673777 0.554615 0.495520 0.931292
C18   C     C_R   0.488003 0.887284 0.478012 0.140191
C19   C     C_R   0.514498 0.112944 0.519203 0.163460
C20   C     C_R   0.417690 0.815959 0.442264 -0.422721
C21   C     C_R   0.589172 0.185070 0.547487 -0.474464
C22   C     C_R   0.420367 0.729399 0.446826 0.635884
C23   C     C_R   0.936610 0.469336 0.635931 0.387771
C24   C     C_R   0.586297 0.271537 0.543562 0.607648
C25   C     C_R   0.228788 0.418144 0.536274 -0.187444
C26   C     C_R   0.775078 0.590025 0.491064 -0.098829
C27   C     C_R   0.105715 0.347149 0.631024 -0.188246
C28   C     C_R   0.917858 0.690438 0.437809 -0.311482
C29   C     C_R   0.192525 0.355687 0.597884 0.424151
C30   C     C_R   0.820282 0.659945 0.440396 0.439293
C31   C     C_R   0.178683 0.472602 0.514238 -0.271528
C32   C     C_R   0.826079 0.549344 0.535645 -0.317142
C33   C     C_R   0.102713 0.476408 0.559371 0.069293
C34   C     C_R   0.116082 0.625832 0.511066 0.372625
C35   C     C_R   0.923585 0.578973 0.534464 0.071446
C36   C     C_R   0.060481 0.407992 0.613733 -0.051187
C37   C     C_R   0.970220 0.650118 0.483538 -0.003436
C38   C     C_R   0.065556 0.544738 0.547965 -0.102205
C39   C     C_R   0.974439 0.532030 0.574357 -0.093785
C40   C     C_R   0.931594 0.336329 0.711978 0.175651
C41   C     C_R   0.932041 0.357184 0.794807 -0.083714
C42   C     C_R   0.887671 0.291808 0.849929 -0.165044
C43   C     C_R   0.842804 0.205394 0.822737 -0.137800
C44   C     C_R   0.841730 0.184303 0.740283 -0.148477
C45   C     C_R   0.977619 0.405560 0.653114 -0.049956
C46   C     C_R   0.885638 0.249570 0.684929 -0.198597
C47   C     C_R   0.120438 0.757542 0.432593 0.209854
C48   C     C_R   0.123695 0.840464 0.461884 -0.197370
C49   C     C_R   0.167673 0.915630 0.417168 -0.111604
C50   C     C_R   0.209778 0.908676 0.343660 -0.052590
C51   C     C_R   0.206947 0.826332 0.314271 -0.219150
C52   C     C_R   0.162176 0.750858 0.358430 -0.143753
C53   C     C_R   0.354525 0.228332 0.442047 0.231141
C54   C     C_R   0.269084 0.202486 0.482757 -0.062595
C55   C     C_R   0.189323 0.209048 0.445110 -0.142582
C56   C     C_R   0.067934 0.677120 0.476939 -0.045320
C57   C     C_R   0.193970 0.239947 0.366144 -0.141115
C58   C     C_R   0.277795 0.262141 0.324056 -0.185049
C59   C     C_R   0.357333 0.254753 0.361382 -0.094831
C60   C     C_R   0.633033 0.768014 0.576315 0.233996
C61   C     C_R   0.723626 0.790068 0.545634 -0.043910
C62   C     C_R   0.796330 0.783740 0.594504 -0.162491
C63   C     C_R   0.779393 0.756956 0.674641 -0.135519
C64   C     C_R   0.690518 0.739468 0.706792 -0.163907
C65   C     C_R   0.618187 0.746987 0.658243 -0.088168
C66   C     C_R   0.547969 0.376100 0.759548 0.182495
C67   C     C_R   0.540715 0.502693 0.261268 -0.158498
C68   C     C_R   0.462719 0.308697 0.743317 -0.110618
C69   C     C_R   0.459916 0.222220 0.730605 -0.157429
C70   C     C_R   0.541743 0.201836 0.736178 -0.144257
C71   C     C_R   0.626780 0.268234 0.752489 -0.141839
C72   C     C_R   0.630171 0.355053 0.763792 -0.084113
C73   C     C_R   0.512674 0.650232 0.244039 0.202772
C74   C     C_R   0.421467 0.640561 0.219006 -0.089924
C75   C     C_R   0.390131 0.712389 0.222188 -0.149315
C76   C     C_R   0.449422 0.794048 0.250740 -0.127567
C77   C     C_R   0.539660 0.803689 0.277377 -0.172144
C78   C     C_R   0.504355 0.515163 0.743322 -0.219704
C79   C     C_R   0.571460 0.732180 0.273746 -0.123434
C80   C     C_R   0.632072 0.382255 0.099401 0.116489
C81   C     C_R   0.565742 0.326789 0.045478 -0.136889
C82   C     C_R   0.588630 0.265412 0.997332 -0.144186
C83   C     C_R   0.677549 0.258810 0.003065 -0.110348
C84   C     C_R   0.743695 0.313572 0.056970 -0.142402
C85   C     C_R   0.721263 0.375453 0.104848 -0.159266
C86   C     C_R   0.486374 0.673026 0.910265 0.193878
C87   C     C_R   0.555779 0.747571 0.942952 -0.169299
C88   C     C_R   0.531307 0.808316 0.990640 -0.134862
C89   C     C_R   0.552792 0.582354 0.219820 -0.102242
C90   C     C_R   0.437551 0.795160 0.006020 -0.098326
C91   C     C_R   0.368080 0.721395 0.973482 -0.168200
C92   C     C_R   0.392233 0.660426 0.925807 -0.078125
H1    H     H_    0.361895 0.828178 0.409364 0.198681
H2    H     H_    0.888117 0.308122 0.913716 0.128428
H3    H     H_    0.808462 0.154895 0.865477 0.126602
H4    H     H_    0.806451 0.117499 0.719219 0.156123
H5    H     H_    0.883937 0.232676 0.621121 0.135453
H6    H     H_    0.090769 0.846521 0.518505 0.131167
H7    H     H_    0.168826 0.979263 0.439404 0.166053
H8    H     H_    0.244167 0.967032 0.309321 0.150040
H9    H     H_    0.239008 0.820937 0.257100 0.128571
H10   H     H_    0.158658 0.687190 0.334325 0.125673
H11   H     H_    0.264478 0.177150 0.543493 0.155775
H12   H     H_    0.649281 0.173739 0.573914 0.174743
H13   H     H_    0.123979 0.190199 0.477170 0.143694
H14   H     H_    0.132314 0.245337 0.337143 0.134460
H15   H     H_    0.280864 0.283924 0.262162 0.135878
H16   H     H_    0.420465 0.268054 0.327062 0.187717
H17   H     H_    0.737806 0.812861 0.484221 0.145378
H18   H     H_    0.865860 0.799958 0.570370 0.136923
H19   H     H_    0.835558 0.751656 0.712285 0.136000
H20   H     H_    0.678091 0.721572 0.769627 0.138723
H21   H     H_    0.550941 0.737784 0.684522 0.188583
H22   H     H_    0.346645 0.012528 0.504179 0.352036
H23   H     H_    0.787716 0.490986 0.567695 0.248618
H24   H     H_    0.656125 0.984482 0.507813 0.340834
H25   H     H_    0.311370 0.682066 0.377153 0.330009
H26   H     H_    0.708757 0.320599 0.594555 0.325459
H27   H     H_    0.810413 0.742509 0.359095 0.316358
H28   H     H_    0.307591 0.336840 0.627193 0.335304
H29   H     H_    0.866983 0.534702 0.688546 0.330649
H30   H     H_    0.234612 0.636410 0.561610 0.350776
H31   H     H_    0.398191 0.322772 0.743129 0.134203
H32   H     H_    0.394042 0.170733 0.718019 0.141758
H33   H     H_    0.539381 0.134689 0.727292 0.149719
H34   H     H_    0.203689 0.516880 0.464394 0.226282
H35   H     H_    0.690083 0.252478 0.756418 0.164373
H36   H     H_    0.696384 0.405468 0.777970 0.164509
H37   H     H_    0.376390 0.578647 0.193342 0.111418
H38   H     H_    0.320320 0.705033 0.201545 0.116829
H39   H     H_    0.425255 0.849710 0.252792 0.131208
H40   H     H_    0.585415 0.866922 0.299675 0.134932
H41   H     H_    0.642897 0.741456 0.290806 0.157496
H42   H     H_    0.497127 0.332329 0.039738 0.131828
H43   H     H_    0.537699 0.223440 0.955161 0.140321
H44   H     H_    0.695273 0.211488 0.965569 0.121680
H45   H     H_    0.078404 0.297168 0.675974 0.173819
H46   H     H_    0.812601 0.308569 0.061162 0.121881
H47   H     H_    0.773436 0.418590 0.145432 0.133960
H48   H     H_    0.628740 0.758051 0.932136 0.125176
H49   H     H_    0.585064 0.865324 0.016072 0.129916
H50   H     H_    0.418750 0.841954 0.043363 0.124239
H51   H     H_    0.295517 0.711060 0.985785 0.127573
H52   H     H_    0.337786 0.602621 0.902385 0.137861
H53   H     H_    0.602723 0.330130 0.239048 0.338801
H54   H     H_    0.379746 0.579827 0.711239 0.335509
H55   H     H_    0.951901 0.743172 0.397093 0.147127
H56   H     H_    0.614526 0.450522 0.896453 0.178891
H57   H     H_    0.605247 0.657984 0.115208 0.173218
H58   H     H_    0.966769 0.423889 0.816521 0.132442
N1    N     N_2   0.625317 0.531226 0.019962 -0.169299
N2    N     N_2   0.580522 0.574187 0.987975 -0.178740
N3    N     N_R   0.489120 0.713640 0.490430 -0.147702
N4    N     N_R   0.510880 0.286360 0.509570 -0.136117
N5    N     N_2   0.482639 0.973835 0.470150 -0.136061
N6    N     N_2   0.520006 0.026581 0.526867 -0.134431
O1    O     O_R   0.503890 0.423710 0.387290 -0.562103
O2    O     O_3   0.639405 0.936666 0.547771 -0.769070
O3    O     O_3   0.355772 0.660128 0.406353 -0.718117
O4    O     O_3   0.658383 0.341522 0.575035 -0.736399
O5    O     O_3   0.767964 0.694198 0.391130 -0.806238
O6    O     O_3   0.240028 0.305249 0.631139 -0.810141
O7    O     O_3   0.864666 0.472748 0.684805 -0.803307
O8    O     O_3   0.212169 0.660694 0.514125 -0.772619
O9    O     O_3   0.570679 0.365235 0.268217 -0.780091
O10   O     O_3   0.421098 0.620818 0.751655 -0.784356
O11   O     O_R   0.496110 0.576290 0.612710 -0.609605
O12   O     O_R   0.496910 0.560910 0.381140 -0.581470
O13   O     O_R   0.503090 0.439090 0.618860 -0.594474
O14   O     O_R   0.373240 0.392210 0.504830 -0.625908
O15   O     O_R   0.626760 0.607790 0.495170 -0.588127
O16   O     O_R   0.366260 0.529410 0.498680 -0.549178
O17   O     O_R   0.633740 0.470590 0.501320 -0.552912
O18   O     O_3   0.355262 0.061090 0.465801 -0.790448
Zn1   Zn    Zn3+2 0.504660 0.408390 0.504100 1.004835
Zn2   Zn    Zn3+2 0.495340 0.591610 0.495900 1.005287

loop_
_geom_bond_atom_site_label_1
_geom_bond_atom_site_label_2
_ccdc_geom_bond_type
C25   C31   A    
C66   C68   A    
C87   C88   A    
C34   C56   A    
C23   C45   A    
H25   O3    S    
C41   C42   A    
C14   C18   A    
H26   O4    S    
C87   H48   S    
C75   C76   A    
C61   H17   S    
H27   O5    S    
C12   O11   A    
C81   C82   A    
C53   C59   A    
C81   H42   S    
H53   O9    S    
C53   C54   A    
C26   C32   A    
N3    Zn2   S    
C52   H10   S    
C80   C85   A    
N4    Zn1   S    
C55   H13   S    
C2    C78   A    
C17   C26   S    
C35   C37   A    
C34   O8    S    
C38   C39   A    
C76   H39   S    
C64   H20   S    
C27   C29   A    
C22   O3    S    
C4    H56   S    
C9    O9    S    
C67   C89   A    
C33   C36   A    
H30   O8    S    
O12   Zn2   S    
C58   H15   S    
C73   C74   A    
C82   H43   S    
C1    C67   S    
C37   C56   A    
C91   H51   S    
C66   C72   A    
C83   C84   A    
C44   C46   A    
C68   C69   A    
C12   C78   S    
C43   H3    S    
N1    N2    D    
C31   C33   A    
C70   C71   A    
C85   H47   S    
C23   O7    S    
C75   H38   S    
H28   O6    S    
C6    N2    S    
O17   Zn1   S    
C57   H14   S    
H54   O10   S    
C84   H46   S    
C34   C38   A    
C19   N6    S    
C21   H12   S    
C71   H35   S    
C61   C62   A    
C10   C78   A    
C68   H31   S    
C17   O17   A    
C13   C53   S    
O14   Zn1   S    
C77   C79   A    
C25   C29   A    
C40   C45   S    
C79   H41   S    
C3    H57   S    
C74   C75   A    
C12   O13   A    
C51   C52   A    
C32   C35   A    
C54   H11   S    
C76   C77   A    
C4    C6    A    
C91   C92   A    
C5    C7    A    
C86   C87   A    
C6    C8    A    
C41   H58   S    
C24   N4    A    
C1    O12   A    
C3    C5    A    
C58   C59   A    
C82   C83   A    
C60   C61   A    
C77   H40   S    
C15   C19   A    
C43   C44   A    
C9    C67   A    
H24   O2    S    
C62   C63   A    
C44   H4    S    
C35   C39   A    
C49   H7    S    
C16   O16   A    
C47   C48   A    
C62   H18   S    
C10   O10   S    
C24   O4    S    
C50   C51   A    
C73   C79   A    
C36   C45   A    
C69   H32   S    
C27   H45   S    
C84   C85   A    
C83   H44   S    
C90   H50   S    
O1    Zn1   S    
C70   H33   S    
C48   C49   A    
C46   H5    S    
C14   O2    S    
C60   C65   A    
C26   C30   A    
C13   C15   A    
C21   C24   A    
C51   H9    S    
C42   C43   A    
C40   C46   A    
C11   C60   S    
C88   H49   S    
C16   C25   S    
C7    C9    A    
C54   C55   A    
C40   C41   A    
C28   H55   S    
C88   C90   A    
C15   O18   S    
C19   C21   A    
C42   H2    S    
C65   H21   S    
C29   O6    S    
C33   C38   A    
C20   C22   A    
C80   C81   A    
C2    C66   S    
C17   O15   A    
C47   C52   A    
C27   C36   A    
O13   Zn1   S    
C48   H6    S    
O15   Zn2   S    
C50   H8    S    
C59   H16   S    
C5    N1    S    
C3    C89   A    
C64   C65   A    
C55   C57   A    
C73   C89   S    
C71   C72   A    
C86   C92   A    
C8    C86   S    
C90   C91   A    
C28   C37   A    
C23   C39   A    
C2    C4    A    
C1    O1    A    
C11   C14   A    
C28   C30   A    
C18   C20   A    
C32   H23   S    
C63   H19   S    
C69   C70   A    
C92   H52   S    
C20   H1    S    
C13   N4    A    
C11   N3    A    
C63   C64   A    
C16   O14   A    
H22   O18   S    
C8    C10   A    
C49   C50   A    
C74   H37   S    
N5    N6    D    
C72   H36   S    
C7    C80   S    
C31   H34   S    
O11   Zn2   S    
C30   O5    S    
C57   C58   A    
C18   N5    S    
O16   Zn2   S    
C47   C56   S    
C22   N3    A    
H29   O7    S    
