data_mof_unit_60033.cif
_audit_creation_date              2012-10-26T17:13:39-0400
_audit_creation_method            fapswitch 2.2
_symmetry_space_group_name_H-M    P1
_symmetry_Int_Tables_number       1
_space_group_crystal_system       triclinic
_cell_length_a                    18.74596
_cell_length_b                    19.179234
_cell_length_c                    19.0687
_cell_angle_alpha                 110.030454
_cell_angle_beta                  109.056291
_cell_angle_gamma                 109.197024
_cell_volume                      5285.7278908

loop_
_atom_site_label
_atom_site_type_symbol
_atom_type_description
_atom_site_fract_x
_atom_site_fract_y
_atom_site_fract_z
_atom_type_partial_charge
C1    C     C_R   0.382986 0.883408 0.001047 0.544254
C2    C     C_R   0.002239 0.384254 0.882918 0.561735
C3    C     C_R   0.117597 0.614083 0.997016 0.549619
C4    C     C_R   0.882445 0.386267 0.003274 0.556132
C5    C     C_2   0.992755 0.315843 0.743071 -0.160593
C6    C     C_2   0.075536 0.751393 0.255703 -0.155392
C7    C     C_2   0.009015 0.322011 0.819421 -0.112551
C8    C     C_2   0.003609 0.690389 0.180327 -0.113466
C9    C     C_2   0.004710 0.255012 0.682185 -0.160169
C10   C     C_2   0.075619 0.824262 0.316362 -0.160862
C11   C     C_2   0.989847 0.179810 0.677429 -0.114820
C12   C     C_R   0.618499 0.116630 0.000291 0.544935
C13   C     C_2   0.003771 0.814789 0.321539 -0.117905
C14   C     C_R   0.621912 0.004197 0.116665 0.552488
C15   C     C_R   0.377826 0.994942 0.882742 0.550675
C16   C     C_2   0.820000 0.072691 0.320127 -0.175353
C17   C     C_2   0.178355 0.000391 0.753327 -0.170720
C18   C     C_2   0.809337 0.000773 0.323186 -0.020742
C19   C     C_2   0.190268 0.014111 0.691966 -0.020471
C20   C     C_2   0.748816 0.075267 0.259954 -0.178299
C21   C     C_2   0.249151 0.011098 0.827137 -0.183207
C22   C     C_2   0.697446 0.010715 0.178651 -0.115403
C23   C     C_2   0.314657 0.820806 0.002870 0.256110
C24   C     C_2   0.301981 0.981723 0.814356 -0.111331
C25   C     C_2   0.267199 0.702219 0.031739 -0.134059
C26   C     C_2   0.733114 0.299122 0.970618 -0.135007
C27   C     C_2   0.181532 0.670526 0.986211 -0.076453
C28   C     C_2   0.818829 0.330540 0.014864 -0.072378
C29   C     C_2   0.328163 0.761976 0.019328 -0.121693
C30   C     C_2   0.673373 0.239374 0.984167 -0.119248
C31   C     C_R   0.722035 0.922619 0.275931 0.045498
C32   C     C_R   0.708611 0.843380 0.219944 -0.087459
C33   C     C_R   0.626769 0.770256 0.174481 -0.110621
C34   C     C_2   0.686854 0.179429 0.998380 0.269300
C35   C     C_R   0.558006 0.775503 0.185063 -0.106127
C36   C     C_R   0.571151 0.853734 0.241751 -0.112445
C37   C     C_R   0.652934 0.926970 0.287567 -0.075001
C38   C     C_R   0.278387 0.054152 0.701085 0.044811
C39   C     C_R   0.294101 0.013224 0.635803 -0.088758
C40   C     C_R   0.376557 0.049899 0.644215 -0.108940
C41   C     C_R   0.443663 0.127901 0.717391 -0.097594
C42   C     C_R   0.428255 0.169772 0.781975 -0.112615
C43   C     C_R   0.345842 0.133504 0.773727 -0.076375
C44   C     C_3   0.209141 0.852533 0.944505 0.003084
C45   C     C_R   0.997411 0.116823 0.615559 0.553468
C46   C     C_3   0.122071 0.842834 0.936062 -0.257384
C47   C     C_3   0.078479 0.863504 0.869170 -0.485426
C48   C     C_3   0.787609 0.133731 0.041006 0.001985
C49   C     C_3   0.833180 0.196852 0.137916 -0.293118
C50   C     C_3   0.887450 0.169902 0.190132 -0.473745
C51   C     C_R   0.001967 0.882697 0.384284 0.554070
C52   C     C_R   0.881327 0.000775 0.384182 0.547703
C53   C     C_R   0.118577 0.003004 0.619665 0.547688
C54   C     C_R   0.001749 0.619610 0.117061 0.559892
Cu1   Cu    Cu3+1 0.500010 0.938980 0.938990 0.924520
Cu2   Cu    Cu3+1 0.499990 0.061020 0.061010 0.920040
Cu3   Cu    Cu3+1 0.061010 0.061020 0.499990 0.932420
Cu4   Cu    Cu3+1 0.938990 0.938980 0.500010 0.936165
Cu5   Cu    Cu3+1 0.061030 0.500010 0.061020 0.931410
Cu6   Cu    Cu3+1 0.938970 0.499990 0.938980 0.927695
H1    H     H_    0.881656 0.131806 0.364552 0.134570
H2    H     H_    0.256968 0.042028 0.890756 0.137526
H3    H     H_    0.713375 0.960984 0.155196 0.119621
H4    H     H_    0.287191 0.943003 0.749139 0.126126
H5    H     H_    0.293095 0.682859 0.076888 0.130927
H6    H     H_    0.706412 0.318333 0.925644 0.130328
H7    H     H_    0.155745 0.683840 0.935520 0.143898
H8    H     H_    0.845153 0.317390 0.065349 0.143230
H9    H     H_    0.387975 0.760562 0.028714 0.091199
H10   H     H_    0.614161 0.241336 0.976757 0.086906
H11   H     H_    0.975275 0.359126 0.726890 0.142984
H12   H     H_    0.115839 0.983111 0.750660 0.136214
H13   H     H_    0.136168 0.750286 0.271413 0.145893
H14   H     H_    0.761217 0.838598 0.210736 0.100387
H15   H     H_    0.616587 0.709542 0.130829 0.106730
H16   H     H_    0.494606 0.718915 0.149541 0.104634
H17   H     H_    0.517943 0.857623 0.250174 0.112483
H18   H     H_    0.662322 0.987130 0.331543 0.116588
H19   H     H_    0.242762 0.952533 0.578986 0.100196
H20   H     H_    0.388480 0.017737 0.594055 0.108992
H21   H     H_    0.507521 0.156054 0.723921 0.114403
H22   H     H_    0.480168 0.230383 0.838408 0.101162
H23   H     H_    0.035620 0.285331 0.839460 0.107309
H24   H     H_    0.334660 0.166871 0.824036 0.114269
H25   H     H_    0.197072 0.807412 0.880832 0.112684
H26   H     H_    0.251524 0.919330 0.962814 0.160839
H27   H     H_    0.078407 0.776136 0.916907 0.170501
H28   H     H_    0.132602 0.886673 0.999144 0.181408
H29   H     H_    0.120058 0.930717 0.888288 0.145503
H30   H     H_    0.015132 0.855142 0.863974 0.150183
H31   H     H_    0.066683 0.819993 0.805330 0.152241
H32   H     H_    0.836699 0.122678 0.025899 0.159605
H33   H     H_    0.738193 0.070296 0.023667 0.153842
H34   H     H_    0.945726 0.696468 0.160379 0.103581
H35   H     H_    0.876865 0.261791 0.153255 0.165058
H36   H     H_    0.783883 0.199581 0.157283 0.153235
H37   H     H_    0.847330 0.102760 0.171930 0.156929
H38   H     H_    0.913390 0.211984 0.259646 0.151582
H39   H     H_    0.942964 0.175538 0.178644 0.149980
H40   H     H_    0.021375 0.270388 0.637896 0.142741
H41   H     H_    0.136396 0.884324 0.360546 0.142589
H42   H     H_    0.963951 0.160347 0.715016 0.108882
H43   H     H_    0.945795 0.752225 0.284227 0.105552
H44   H     H_    0.739836 0.130291 0.282212 0.146422
O1    O     O_R   0.410990 0.859440 0.948490 -0.531914
O2    O     O_R   0.589020 0.037500 0.948470 -0.499029
O3    O     O_R   0.589050 0.948480 0.037510 -0.517670
O4    O     O_R   0.410950 0.051520 0.962490 -0.510256
O5    O     O_R   0.589030 0.051540 0.140550 -0.503745
O6    O     O_R   0.410970 0.948460 0.859450 -0.506306
O7    O     O_R   0.051510 0.140560 0.589010 -0.505932
O8    O     O_R   0.948490 0.859440 0.410990 -0.508271
O9    O     O_R   0.948470 0.037500 0.589020 -0.509215
O10   O     O_R   0.051530 0.962500 0.410980 -0.501665
O11   O     O_R   0.962480 0.051520 0.410960 -0.513731
O12   O     O_R   0.589010 0.140560 0.051510 -0.535083
O13   O     O_R   0.037520 0.948480 0.589040 -0.511954
O14   O     O_R   0.859440 0.948460 0.410980 -0.499847
O15   O     O_R   0.140560 0.051540 0.589020 -0.501084
O16   O     O_R   0.051520 0.589040 0.140540 -0.504464
O17   O     O_R   0.948480 0.410960 0.859460 -0.502907
O18   O     O_3   0.247851 0.834837 0.008630 -0.575267
O19   O     O_3   0.753255 0.166001 0.989827 -0.578700
O20   O     O_R   0.948450 0.589020 0.037490 -0.509180
O21   O     O_R   0.051550 0.410980 0.962510 -0.507510
O22   O     O_R   0.140550 0.589040 0.051520 -0.508522
O23   O     O_R   0.859450 0.410960 0.948480 -0.505333
O24   O     O_R   0.037480 0.589020 0.948460 -0.516764
O25   O     O_R   0.962520 0.410980 0.051540 -0.510317
O26   O     O_R   0.410980 0.962500 0.051530 -0.495229

loop_
_geom_bond_atom_site_label_1
_geom_bond_atom_site_label_2
_ccdc_geom_bond_type
C14   O5    A    
C7    H23   S    
Cu1   Cu2   S    
C51   O8    A    
C54   O16   A    
C41   C42   A    
C2    C7    S    
C42   H22   S    
C48   O19   S    
C3    O22   A    
C18   C52   S    
Cu3   O11   S    
Cu5   O22   S    
C50   H39   S    
Cu5   O16   S    
Cu1   O1    S    
Cu4   O8    S    
C23   C29   D    
C36   C37   A    
C28   H8    S    
C36   H17   S    
C32   H14   S    
C38   C39   A    
C53   O13   A    
C2    O17   A    
Cu4   O14   S    
Cu6   O20   S    
Cu2   O4    S    
C4    C28   S    
C22   H3    S    
C13   C51   S    
C33   H15   S    
C35   C36   A    
Cu4   O9    S    
C40   H20   S    
C13   H43   S    
C29   H9    S    
Cu3   O15   S    
C19   C53   S    
Cu5   Cu6   S    
C24   H4    S    
C43   H24   S    
C47   H29   S    
C15   O6    A    
C44   H26   S    
C30   H10   S    
C44   C46   S    
C23   O18   S    
C46   H28   S    
Cu6   O23   S    
C25   C29   S    
C35   H16   S    
C50   H38   S    
C51   O10   A    
C48   H33   S    
C30   C34   D    
Cu1   O2    S    
C26   H6    S    
Cu6   O24   S    
C8    H34   S    
C1    O26   A    
C8    C54   S    
C39   C40   A    
C5    C7    D    
C3    O24   A    
C17   C19   D    
C6    C8    D    
Cu4   O13   S    
C17   C21   S    
C31   C37   A    
Cu1   O3    S    
C39   H19   S    
C15   O4    A    
C5    C9    S    
C19   C38   S    
C31   C32   A    
C16   C20   S    
C41   H21   S    
C45   O7    A    
Cu2   O12   S    
C25   H5    S    
C15   C24   S    
C49   H35   S    
C9    C11   D    
C21   H2    S    
Cu3   O10   S    
C40   C41   A    
C20   C22   D    
C26   C30   S    
C9    H40   S    
Cu1   O6    S    
C48   H32   S    
C47   H30   S    
C11   C45   S    
Cu5   O21   S    
C16   H1    S    
C12   C34   S    
C44   H25   S    
C14   O3    A    
Cu2   O5    S    
C6    H13   S    
C46   H27   S    
C52   O11   A    
C54   O20   A    
C46   C47   S    
Cu5   O25   S    
C50   H37   S    
C4    O23   A    
C47   H31   S    
C10   H41   S    
C10   C13   D    
C6    C10   S    
C53   O15   A    
C1    C23   S    
C4    O25   A    
C20   H44   S    
C25   C27   D    
C37   H18   S    
C26   C28   D    
C32   C33   A    
C14   C22   S    
C3    C27   S    
C38   C43   A    
C5    H11   S    
C12   O2    A    
Cu3   Cu4   S    
Cu3   O7    S    
C48   C49   S    
C44   O18   S    
C33   C35   A    
C11   H42   S    
C49   H36   S    
Cu6   O17   S    
C27   H7    S    
C2    O21   A    
C45   O9    A    
C17   H12   S    
C16   C18   D    
C49   C50   S    
C42   C43   A    
C21   C24   D    
C34   O19   S    
C18   C31   S    
Cu2   O26   S    
C1    O1    A    
C12   O12   A    
C52   O14   A    
