data_mof_unit_40875.cif
_audit_creation_date              2012-12-11T15:59:51-0500
_audit_creation_method            fapswitch 2.2
_symmetry_space_group_name_H-M    P1
_symmetry_Int_Tables_number       1
_space_group_crystal_system       triclinic
_cell_length_a                    10.856784
_cell_length_b                    10.794904
_cell_length_c                    16.94438
_cell_angle_alpha                 99.947547
_cell_angle_beta                  99.628053
_cell_angle_gamma                 60.197278
_cell_volume                      1689.58205774

loop_
_atom_site_label
_atom_site_type_symbol
_atom_type_description
_atom_site_fract_x
_atom_site_fract_y
_atom_site_fract_z
_atom_type_partial_charge
C1    C     C_R   0.350404 0.783141 0.404754 0.526259
C2    C     C_R   0.737575 0.386406 0.305829 0.003743
C3    C     C_R   0.314198 0.870464 0.173346 -0.005739
C4    C     C_R   0.406787 0.374561 0.356478 0.553883
C5    C     C_R   0.434620 0.859834 0.225093 0.029740
C6    C     C_R   0.430268 0.874724 0.309205 0.030189
C7    C     C_R   0.196469 0.892068 0.288263 -0.151023
C8    C     C_R   0.194822 0.891012 0.207229 -0.144494
C9    C     C_R   0.561548 0.827573 0.195954 -0.097821
C10   C     C_R   0.673239 0.831445 0.248131 -0.138210
C11   C     C_R   0.659587 0.870156 0.330145 -0.108431
C12   C     C_R   0.745314 0.272640 0.167559 -0.032308
C13   C     C_R   0.539690 0.888884 0.361064 -0.067384
C14   C     C_R   0.319928 0.867233 0.338322 -0.001818
C15   C     C_R   0.279026 0.261425 0.790862 -0.007804
C16   C     C_R   0.713309 0.410481 0.391295 0.551823
C17   C     C_R   0.381838 0.145288 0.741992 -0.027422
C18   C     C_R   0.384577 0.164152 0.662224 0.016866
C19   C     C_R   0.196878 0.410464 0.680645 -0.153891
C20   C     C_R   0.176524 0.390010 0.756402 0.240346
C21   C     C_R   0.484163 0.010556 0.769044 -0.122852
C22   C     C_R   0.582999 0.902123 0.719766 -0.131882
C23   C     C_R   0.747398 0.265618 0.250262 -0.031553
C24   C     C_R   0.579183 0.920449 0.640571 -0.081240
C25   C     C_R   0.473643 0.045993 0.610459 -0.070041
C26   C     C_R   0.307307 0.302836 0.637464 -0.043908
C27   C     C_1   0.846039 0.328657 0.705200 -0.042736
C28   C     C_R   0.358321 0.767817 0.627418 0.564064
C29   C     C_1   0.892960 0.293162 0.771841 -0.038970
C30   C     C_1   0.339474 0.806777 0.709760 -0.039961
C31   C     C_1   0.314027 0.834619 0.778185 -0.070059
C32   C     C_R   0.884858 0.315460 0.083889 0.578694
C33   C     C_R   0.321056 0.302694 0.119278 0.536852
C34   C     C_R   0.742335 0.497547 0.277091 -0.146584
C35   C     C_R   0.290131 0.899031 0.088836 0.532180
C36   C     C_R   0.942897 0.272977 0.854412 0.545362
C37   C     C_R   0.276699 0.249036 0.876882 0.548137
C38   C     C_R   0.279612 0.883468 0.857967 0.520481
C39   C     C_R   0.363897 0.342483 0.578867 0.555641
C40   C     C_R   0.777353 0.378556 0.628849 0.561415
C41   C     C_1   0.375543 0.362602 0.271931 -0.029009
C42   C     C_1   0.348982 0.344646 0.201010 -0.035366
C43   C     C_R   0.791312 0.362287 0.147872 -0.003812
C44   C     C_3   0.967413 0.620784 0.768491 -0.006517
C45   C     C_R   0.776821 0.482050 0.200465 -0.162005
C46   C     C_3   0.023566 0.728814 0.783995 -0.264396
C47   C     C_3   0.919680 0.867553 0.746492 -0.446908
C48   C     C_3   0.575804 0.317962 0.011673 0.014256
C49   C     C_3   0.560214 0.346297 0.923615 -0.226887
C50   C     C_3   0.581849 0.472787 0.916886 -0.443960
C51   C     C_3   0.816632 0.874230 0.011979 0.023994
C52   C     C_3   0.723309 0.819292 0.033620 -0.299378
C53   C     C_3   0.673626 0.748054 0.959851 -0.454916
C54   C     C_R   0.733552 0.167877 0.108430 0.302203
C55   C     C_R   0.800899 0.027646 0.131235 0.306520
C56   C     C_R   0.824441 0.011927 0.213724 -0.160005
C57   C     C_R   0.783892 0.130346 0.272159 -0.154861
Cr1   Cr    Cr6+3 0.608100 0.610860 0.522250 0.972412
Cr2   Cr    Cr6+3 0.288890 0.599990 0.488420 1.008604
Cr3   Cr    Cr6+3 0.603040 0.289190 0.489390 0.997565
Cr4   Cr    Cr6+3 0.053960 0.052250 0.967380 1.043314
Cr5   Cr    Cr6+3 0.059890 0.373160 0.992710 1.018023
Cr6   Cr    Cr6+3 0.373370 0.061690 0.991710 0.954034
H1    H     H_    0.733858 0.590724 0.316439 0.163088
H2    H     H_    0.805081 0.556989 0.184971 0.142546
H3    H     H_    0.889619 0.906350 0.233447 0.112052
H4    H     H_    0.807867 0.105978 0.333551 0.164060
H5    H     H_    0.105868 0.897115 0.310316 0.139133
H6    H     H_    0.579020 0.787302 0.133998 0.113149
H7    H     H_    0.098099 0.905645 0.171128 0.202067
H8    H     H_    0.871378 0.667588 0.801411 0.141909
H9    H     H_    0.931095 0.602464 0.704368 0.139991
H10   H     H_    0.039390 0.753657 0.850085 0.193770
H11   H     H_    0.128196 0.682423 0.759682 0.171853
H12   H     H_    0.773268 0.794835 0.225027 0.103373
H13   H     H_    0.890762 0.844017 0.681781 0.138241
H14   H     H_    0.969686 0.936928 0.751160 0.184131
H15   H     H_    0.822230 0.927263 0.778918 0.148929
H16   H     H_    0.568025 0.413248 0.052556 0.102620
H17   H     H_    0.484042 0.306931 0.020810 0.183164
H18   H     H_    0.636770 0.249035 0.888097 0.205189
H19   H     H_    0.451256 0.372918 0.895601 0.155406
H20   H     H_    0.490861 0.573865 0.940303 0.130799
H21   H     H_    0.586823 0.479293 0.852886 0.150092
H22   H     H_    0.682048 0.460345 0.952265 0.196958
H23   H     H_    0.746062 0.875196 0.370295 0.102990
H24   H     H_    0.899543 0.786355 0.975086 0.145801
H25   H     H_    0.754566 0.961770 0.972840 0.177407
H26   H     H_    0.784971 0.739731 0.078000 0.161270
H27   H     H_    0.629064 0.911716 0.060179 0.195917
H28   H     H_    0.627737 0.818049 0.910696 0.141249
H29   H     H_    0.591987 0.726175 0.975744 0.158490
H30   H     H_    0.764862 0.646518 0.938514 0.182781
H31   H     H_    0.534064 0.911969 0.425348 0.111201
H32   H     H_    0.134276 0.512562 0.656428 0.126992
H33   H     H_    0.491366 0.982242 0.827064 0.172935
H34   H     H_    0.657250 0.800240 0.741892 0.103530
H35   H     H_    0.652581 0.834037 0.601264 0.120335
H36   H     H_    0.464414 0.051679 0.546566 0.118820
O1    O     O_R   0.749810 0.499790 0.438040 -0.512982
O2    O     O_R   0.411730 0.181020 0.091530 -0.528937
O3    O     O_R   0.365010 0.944360 0.063320 -0.512645
O4    O     O_R   0.477660 0.726260 0.439290 -0.531439
O5    O     O_R   0.159380 0.906670 0.876210 -0.529256
O6    O     O_R   0.930820 0.177420 0.886730 -0.497314
O7    O     O_R   0.910360 0.395420 0.895720 -0.525731
O8    O     O_R   0.186010 0.361730 0.919870 -0.446031
O9    O     O_R   0.400000 0.173010 0.914630 -0.567226
O10   O     O_R   0.354140 0.936940 0.899340 -0.543345
O11   O     O_3   0.162410 0.162370 0.983930 -0.284468
O12   O     O_R   0.298970 0.468800 0.557390 -0.496903
O13   O     O_R   0.260150 0.743000 0.412270 -0.524971
O14   O     O_R   0.297740 0.466550 0.394720 -0.487693
O15   O     O_R   0.488080 0.253500 0.386430 -0.513633
O16   O     O_R   0.722670 0.303800 0.421940 -0.527444
O17   O     O_R   0.751130 0.502220 0.613520 -0.522364
O18   O     O_R   0.478890 0.728510 0.601960 -0.499521
O19   O     O_R   0.261470 0.745430 0.587750 -0.517290
O20   O     O_3   0.066324 0.492645 0.802364 -0.544102
O21   O     O_3   0.703704 0.189043 0.027022 -0.570688
O22   O     O_3   0.889296 0.909888 0.081417 -0.574340
O23   O     O_R   0.489400 0.255930 0.561910 -0.520034
O24   O     O_R   0.723890 0.306050 0.584610 -0.488135
O25   O     O_3   0.500010 0.500010 0.500020 -0.281682
O26   O     O_R   0.171100 0.914680 0.053100 -0.487910
O27   O     O_R   0.941680 0.184840 0.050710 -0.426264
O28   O     O_R   0.922080 0.403420 0.072610 -0.547226
O29   O     O_R   0.196880 0.369150 0.083850 -0.485113

loop_
_geom_bond_atom_site_label_1
_geom_bond_atom_site_label_2
_ccdc_geom_bond_type
C55   C56   A    
C55   O22   S    
C54   O21   S    
C27   C29   T    
C41   C42   T    
C52   H27   S    
C19   C20   A    
C18   C26   A    
Cr6   O2    S    
C35   O3    A    
C50   H21   S    
C7    C8    A    
C48   O21   S    
C40   O17   A    
C29   C36   S    
C39   O23   A    
C33   O2    A    
C33   C42   S    
C48   H16   S    
C4    O15   A    
C9    H6    S    
C47   H13   S    
C37   O8    A    
C12   C43   A    
C28   O18   A    
C1    O13   A    
C30   C31   T    
C26   C39   S    
C4    C41   S    
C11   H23   S    
C49   H18   S    
C56   C57   A    
C44   H8    S    
C35   O26   A    
C32   O27   A    
Cr3   O25   S    
C19   C26   A    
C15   C37   S    
C38   O5    A    
C50   H22   S    
C7    H5    S    
C54   C55   A    
Cr3   O15   S    
C25   H36   S    
C7    C14   A    
C53   H28   S    
Cr2   O12   S    
Cr4   O27   S    
Cr4   O6    S    
C9    C10   A    
C1    O4    A    
C2    C34   A    
C39   O12   A    
C22   H34   S    
C21   C22   A    
Cr1   O17   S    
C52   H26   S    
C18   C25   A    
C57   H4    S    
Cr6   O3    S    
Cr4   O11   S    
C44   C46   S    
C50   H20   S    
C17   C18   A    
C15   C20   A    
C53   H30   S    
C51   C52   S    
C4    O14   A    
Cr4   O5    S    
Cr1   O1    S    
C24   C25   A    
Cr1   O4    S    
C37   O9    A    
C3    C8    A    
C51   H24   S    
C16   O1    A    
C12   C23   A    
Cr5   O8    S    
C44   O20   S    
C36   O7    A    
Cr1   O18   S    
C17   C21   A    
C49   H19   S    
Cr6   O10   S    
Cr3   O24   S    
C5    C9    A    
C20   O20   S    
C6    C14   A    
C10   H12   S    
Cr5   O11   S    
C3    C35   S    
C27   C40   S    
Cr2   O14   S    
C53   H29   S    
C34   H1    S    
Cr2   O13   S    
C34   C45   A    
C38   O10   A    
Cr3   O23   S    
C43   C45   A    
C48   C49   S    
Cr2   O19   S    
C45   H2    S    
C51   O22   S    
C24   H35   S    
C47   H14   S    
C16   O16   A    
C46   H11   S    
C19   H32   S    
C52   C53   S    
C32   O28   A    
Cr2   O25   S    
C23   C57   A    
C40   O24   A    
C46   C47   S    
C36   O6    A    
Cr1   O25   S    
C3    C5    A    
C51   H25   S    
C15   C17   A    
Cr5   O7    S    
C21   H33   S    
C2    C16   S    
C8    H7    S    
C31   C38   S    
C13   H31   S    
C48   H17   S    
Cr6   O11   S    
C28   C30   S    
C28   O19   A    
C6    C13   A    
Cr5   O29   S    
C11   C13   A    
C5    C6    A    
C56   H3    S    
C32   C43   S    
C44   H9    S    
C22   C24   A    
C33   O29   A    
C10   C11   A    
Cr5   O28   S    
C49   C50   S    
C2    C23   A    
Cr3   O16   S    
Cr4   O26   S    
C1    C14   S    
C47   H15   S    
Cr6   O9    S    
C46   H10   S    
C12   C54   A    
