data_mof_unit_17494.cif
_audit_creation_date              2012-12-10T17:25:34-0500
_audit_creation_method            fapswitch 2.2
_symmetry_space_group_name_H-M    P1
_symmetry_Int_Tables_number       1
_space_group_crystal_system       triclinic
_cell_length_a                    10.178456
_cell_length_b                    10.648538
_cell_length_c                    23.442867
_cell_angle_alpha                 90.237412
_cell_angle_beta                  80.897668
_cell_angle_gamma                 94.961654
_cell_volume                      2499.35596911

loop_
_atom_site_label
_atom_site_type_symbol
_atom_type_description
_atom_site_fract_x
_atom_site_fract_y
_atom_site_fract_z
_atom_type_partial_charge
C1    C     C_R   0.556057 0.733842 0.497749 0.905310
C2    C     C_R   0.384354 0.519972 0.304801 -0.206533
C3    C     C_R   0.616005 0.481347 0.754099 -0.149842
C4    C     C_R   0.385188 0.518843 0.245600 -0.138840
C5    C     C_R   0.499706 0.503591 0.791644 0.308186
C6    C     C_R   0.501493 0.495608 0.208266 0.307201
C7    C     C_2   0.588954 0.868448 0.502998 0.034974
C8    C     C_2   0.412625 0.131793 0.516955 0.028758
C9    C     C_2   0.498297 0.932898 0.535947 -0.161907
C10   C     C_2   0.507949 0.068876 0.534653 -0.155777
C11   C     C_2   0.926174 0.507585 0.505656 0.067608
C12   C     C_R   0.444132 0.266135 0.505750 0.902167
C13   C     C_2   0.074437 0.495113 0.493259 0.066464
C14   C     C_R   0.499989 0.500464 0.610648 0.865592
C15   C     C_R   0.500028 0.499503 0.389351 0.880351
C16   C     C_R   0.466539 0.386179 0.121450 0.528975
C17   C     C_R   0.537259 0.612482 0.878270 0.526964
C18   C     C_R   0.533994 0.607078 0.117833 0.535829
C19   C     C_R   0.468883 0.391742 0.881943 0.535387
C20   C     C_R   0.536597 0.610084 0.058198 -0.048999
C21   C     C_R   0.469244 0.388117 0.941372 -0.062226
C22   C     C_R   0.503332 0.497783 0.029767 -0.086913
C23   C     C_R   0.382133 0.525747 0.770305 0.240126
C24   C     C_R   0.504460 0.500070 0.969672 -0.088279
C25   C     C_R   0.467719 0.383676 0.061448 -0.119148
C26   C     C_R   0.539453 0.614332 0.938038 -0.112982
C27   C     C_R   0.571565 0.722789 0.026790 -0.275277
C28   C     C_R   0.434356 0.275356 0.972787 -0.255000
C29   C     C_R   0.575640 0.725839 0.966949 0.538969
C30   C     C_R   0.435567 0.271413 0.032248 0.529387
C31   C     C_3   0.170891 0.716466 0.581225 -0.141624
C32   C     C_3   0.824971 0.278669 0.421764 -0.123654
C33   C     C_3   0.742786 0.875286 0.933015 -0.249195
C34   C     C_R   0.618545 0.472728 0.229857 0.234380
C35   C     C_3   0.500615 0.079988 0.052445 -0.207236
C36   C     C_3   0.256828 0.550217 0.810723 -0.884292
C37   C     C_3   0.743877 0.447239 0.189676 -0.881414
C38   C     C_3   0.279723 0.067748 0.507113 -0.905976
C39   C     C_3   0.717721 0.931091 0.470306 -0.915796
C40   C     C_R   0.383118 0.524642 0.710722 -0.206842
C41   C     C_R   0.617086 0.474136 0.289450 -0.204015
C42   C     C_R   0.499864 0.501776 0.672911 -0.087698
C43   C     C_R   0.500381 0.497975 0.327067 -0.092031
C44   C     C_R   0.616360 0.480464 0.694952 -0.205792
H1    H     H_    0.595655 0.809622 0.048546 0.183539
H2    H     H_    0.406846 0.885528 0.559030 0.141693
H3    H     H_    0.115321 0.439681 0.456840 0.142124
H4    H     H_    0.885819 0.565608 0.541212 0.143245
H5    H     H_    0.192891 0.773724 0.540650 0.145040
H6    H     H_    0.262988 0.702307 0.598981 0.181685
H7    H     H_    0.108040 0.771261 0.613507 0.138831
H8    H     H_    0.733713 0.293351 0.403410 0.188730
H9    H     H_    0.801138 0.224680 0.463216 0.142483
H10   H     H_    0.886285 0.220122 0.390632 0.139624
H11   H     H_    0.803193 0.800160 0.912293 0.167574
H12   H     H_    0.405130 0.189310 0.951466 0.212558
H13   H     H_    0.771318 0.899846 0.975815 0.136996
H14   H     H_    0.767166 0.960656 0.905112 0.204932
H15   H     H_    0.517931 0.048197 0.006841 0.172995
H16   H     H_    0.472175 0.994948 0.080287 0.212012
H17   H     H_    0.594517 0.126655 0.064443 0.152478
H18   H     H_    0.224980 0.468078 0.840187 0.253940
H19   H     H_    0.275801 0.635305 0.836733 0.256627
H20   H     H_    0.173589 0.566075 0.786889 0.235757
H21   H     H_    0.724588 0.361986 0.163816 0.249427
H22   H     H_    0.776470 0.529008 0.160062 0.253344
H23   H     H_    0.292904 0.541629 0.693943 0.173544
H24   H     H_    0.826738 0.431132 0.213693 0.240858
H25   H     H_    0.216777 0.135272 0.490831 0.251298
H26   H     H_    0.295714 0.992162 0.474602 0.250890
H27   H     H_    0.224729 0.026102 0.548321 0.238499
H28   H     H_    0.777420 0.861837 0.444673 0.256968
H29   H     H_    0.695370 0.003064 0.439908 0.240347
H30   H     H_    0.778958 0.976817 0.501077 0.241898
H31   H     H_    0.706939 0.456579 0.306391 0.174006
H32   H     H_    0.707595 0.462806 0.666608 0.175721
H33   H     H_    0.293181 0.538386 0.333008 0.175463
H34   H     H_    0.706041 0.464442 0.770992 0.145731
H35   H     H_    0.295562 0.536324 0.228512 0.150385
H36   H     H_    0.602630 0.117115 0.541590 0.163640
N1    N     N_R   0.500194 0.496359 0.147673 -0.359341
N2    N     N_R   0.501823 0.502648 0.852175 -0.360530
N3    N     N_2   0.842710 0.448880 0.476480 0.060821
N4    N     N_2   0.157290 0.551120 0.523520 0.063758
O1    O     O_R   0.431060 0.692470 0.504730 -0.646059
O2    O     O_2   0.569696 0.718737 0.846131 -0.495493
O3    O     O_2   0.565479 0.713577 0.146018 -0.559674
O4    O     O_2   0.435640 0.285601 0.853871 -0.548693
O5    O     O_3   0.099733 0.600550 0.573472 -0.561919
O6    O     O_3   0.899429 0.393765 0.427812 -0.567179
O7    O     O_3   0.604655 0.840036 0.937746 -0.570493
O8    O     O_3   0.395449 0.159321 0.062097 -0.557209
O9    O     O_R   0.568940 0.307530 0.495270 -0.655064
O10   O     O_R   0.651120 0.659650 0.489640 -0.605163
O11   O     O_R   0.348880 0.340350 0.510360 -0.601610
O12   O     O_R   0.389950 0.516450 0.591390 -0.608053
O13   O     O_R   0.610050 0.483550 0.408610 -0.606178
O14   O     O_R   0.610020 0.483630 0.576300 -0.634734
O15   O     O_R   0.389980 0.516370 0.423700 -0.630726
O16   O     O_2   0.432793 0.280188 0.153678 -0.495729
Zn1   Zn    Zn3+2 0.353060 0.521920 0.510080 0.970372
Zn2   Zn    Zn3+2 0.646940 0.478080 0.489920 0.964675

loop_
_geom_bond_atom_site_label_1
_geom_bond_atom_site_label_2
_ccdc_geom_bond_type
C33   H11   S    
C38   H26   S    
C33   H14   S    
N3    Zn2   S    
C27   C29   A    
C34   C37   S    
C28   H12   S    
C13   N4    D    
C8    C38   S    
C17   C26   A    
C19   C21   A    
C15   O13   A    
C33   O7    S    
C23   C40   A    
C37   H24   S    
C16   C25   A    
C18   N1    A    
C35   H15   S    
C17   N2    A    
C39   H30   S    
C32   H10   S    
C44   H32   S    
C32   H8    S    
C32   O6    S    
C1    O10   A    
C31   O5    S    
C22   C25   A    
C37   H21   S    
C39   H28   S    
C12   O11   A    
C36   H19   S    
C9    C10   S    
O13   Zn2   S    
C14   C42   S    
C35   O8    S    
C27   H1    S    
C40   C42   A    
C38   H25   S    
C9    H2    S    
C6    N1    S    
O12   Zn1   S    
N4    Zn1   S    
C41   C43   A    
C11   H4    S    
C34   C41   A    
C42   C44   A    
C31   H5    S    
C36   H18   S    
C14   O12   A    
C14   O14   A    
C1    O1    A    
C3    C44   A    
C17   O2    S    
C4    H35   S    
C4    C6    A    
C19   O4    S    
C15   O15   A    
C13   H3    S    
C10   H36   S    
C16   O16   S    
C11   N3    D    
O14   Zn2   S    
C40   H23   S    
C6    C34   A    
C35   H16   S    
C2    C4    A    
C41   H31   S    
C5    C23   A    
C2    C43   A    
C8    C12   S    
C37   H22   S    
C35   H17   S    
C30   O8    S    
O15   Zn1   S    
C21   C28   A    
C20   C22   A    
C22   C24   A    
C12   O9    A    
N4    O5    S    
C31   H6    S    
C19   N2    A    
C32   H9    S    
C29   O7    S    
O1    Zn1   S    
C25   C30   A    
C7    C9    D    
N3    O6    S    
C38   H27   S    
C33   H13   S    
C1    C7    S    
C24   C26   A    
C31   H7    S    
C3    C5    A    
O9    Zn2   S    
C20   C27   A    
C18   O3    S    
C28   C30   A    
C15   C43   S    
C2    H33   S    
C5    N2    S    
C11   C13   S    
C16   N1    A    
C18   C20   A    
C39   H29   S    
O10   Zn2   S    
C26   C29   A    
C8    C10   D    
C23   C36   S    
C21   C24   A    
C7    C39   S    
C36   H20   S    
C3    H34   S    
O11   Zn1   S    
