data_mof_unit_40068.cif
_audit_creation_date              2012-12-11T15:28:35-0500
_audit_creation_method            fapswitch 2.2
_symmetry_space_group_name_H-M    P1
_symmetry_Int_Tables_number       1
_space_group_crystal_system       triclinic
_cell_length_a                    6.950696
_cell_length_b                    19.554972
_cell_length_c                    23.442593
_cell_angle_alpha                 96.163073
_cell_angle_beta                  91.220366
_cell_angle_gamma                 88.598028
_cell_volume                      3166.40983757

loop_
_atom_site_label
_atom_site_type_symbol
_atom_type_description
_atom_site_fract_x
_atom_site_fract_y
_atom_site_fract_z
_atom_type_partial_charge
O1    O     O_R   0.617180 0.809390 0.808140 -0.521092
O2    O     O_R   0.382820 0.190610 0.191860 -0.520931
O3    O     O_R   0.293300 0.672410 0.795490 -0.533820
O4    O     O_R   0.706700 0.327590 0.204510 -0.539260
O5    O     O_R   0.117220 0.690610 0.691850 -0.520211
O6    O     O_R   0.882780 0.309390 0.308150 -0.521025
C1    C     C_R   0.465388 0.647826 0.805488 0.716039
C2    C     C_R   0.535195 0.352117 0.194775 0.727482
O7    O     O_R   0.287840 0.807750 0.814460 -0.525559
O8    O     O_R   0.712160 0.192250 0.185540 -0.525964
O9    O     O_R   0.111720 0.826910 0.710960 -0.533059
O10   O     O_R   0.888280 0.173090 0.289040 -0.533099
C3    C     C_R   0.456521 0.830767 0.833183 0.712722
C4    C     C_R   0.543447 0.169299 0.166776 0.713935
O11   O     O_R   0.622680 0.673080 0.789040 -0.535616
O12   O     O_R   0.377320 0.326920 0.210960 -0.530719
O13   O     O_3   0.448820 0.756130 0.716020 -0.359641
O14   O     O_3   0.551180 0.243870 0.283980 -0.360728
V1    V     V_3+5 0.176220 0.748860 0.756300 1.401228
V2    V     V_3+5 0.823780 0.251140 0.243700 1.399028
O15   O     O_R   0.781670 0.827580 0.704500 -0.538581
O16   O     O_R   0.218330 0.172420 0.295500 -0.538855
C5    C     C_R   0.947899 0.851493 0.693430 0.730822
C6    C     C_R   0.052112 0.148494 0.306558 0.730275
O17   O     O_R   0.787130 0.692240 0.685530 -0.525103
O18   O     O_R   0.212870 0.307760 0.314470 -0.524856
C7    C     C_R   0.956134 0.669214 0.666790 0.716576
C8    C     C_R   0.043858 0.330760 0.333229 0.719560
V3    V     V_3+5 0.675510 0.751130 0.743690 1.399710
V4    V     V_3+5 0.324490 0.248870 0.256310 1.403063
O19   O     O_3   0.952780 0.743870 0.783980 -0.358271
O20   O     O_3   0.047220 0.256130 0.216020 -0.359829
C9    C     C_1   0.966704 0.617157 0.614750 -0.221142
C10   C     C_1   0.033268 0.382791 0.385287 -0.220313
C11   C     C_1   0.978244 0.573634 0.571940 -0.004050
C12   C     C_1   0.021706 0.426299 0.428108 -0.004004
C13   C     C_1   0.993414 0.521825 0.521343 -0.005101
C14   C     C_1   0.006522 0.478099 0.478711 -0.005247
C15   C     C_R   0.945045 0.913607 0.661904 -0.103873
C16   C     C_R   0.055034 0.086377 0.338086 -0.103886
C17   C     C_R   0.843579 0.033556 0.661618 0.302063
C18   C     C_R   0.157235 0.966504 0.338470 0.302257
C19   C     C_R   0.845514 0.971646 0.686484 -0.269229
C20   C     C_R   0.154998 0.028395 0.313569 -0.269186
C21   C     C_R   0.028979 0.915148 0.607550 0.093338
C22   C     C_R   0.971024 0.084822 0.392429 0.093270
C23   C     C_R   0.985194 0.972271 0.575103 0.002306
C24   C     C_R   0.014935 0.027730 0.424897 0.002380
C25   C     C_R   0.917719 0.035244 0.605533 0.039192
C26   C     C_R   0.082702 0.964787 0.394498 0.039038
C27   C     C_R   0.004414 0.969403 0.513841 0.036270
C28   C     C_R   0.995653 0.030600 0.486155 0.036143
C29   C     C_R   0.983032 0.093333 0.521030 -0.203542
C30   C     C_R   0.017040 0.906673 0.478955 -0.203640
C31   C     C_R   0.931269 0.097018 0.578678 0.149377
C32   C     C_R   0.069028 0.903005 0.421326 0.148745
H1    H     H_    0.223909 0.030165 0.272709 0.130751
H2    H     H_    0.776868 0.969921 0.727392 0.130768
H3    H     H_    0.011208 0.140669 0.503190 0.149462
H4    H     H_    0.988756 0.859332 0.496772 0.149410
C33   C     C_R   0.491436 0.585535 0.835882 -0.160536
C34   C     C_R   0.517961 0.413458 0.163419 -0.154285
C35   C     C_R   0.659586 0.474733 0.837052 0.298158
C36   C     C_R   0.459136 0.537236 0.168484 0.311900
C37   C     C_R   0.606388 0.532341 0.809314 -0.254381
C38   C     C_R   0.491958 0.477161 0.195354 -0.252416
C39   C     C_R   0.427311 0.581650 0.892331 0.207274
C40   C     C_R   0.513747 0.408392 0.102845 0.217580
C41   C     C_R   0.504780 0.528849 0.924832 0.000340
C42   C     C_R   0.505142 0.469677 0.074338 0.005507
C43   C     C_R   0.611176 0.473359 0.895170 0.025944
C44   C     C_R   0.465147 0.533408 0.107800 0.022127
C45   C     C_R   0.486209 0.529945 0.985984 0.074362
C46   C     C_R   0.535625 0.470173 0.013869 0.077675
C47   C     C_R   0.634655 0.415838 0.981924 -0.160181
C48   C     C_R   0.444116 0.591290 0.020985 -0.157973
C49   C     C_R   0.672533 0.417648 0.924374 -0.202717
C50   C     C_R   0.437392 0.593168 0.080213 -0.195575
H5    H     H_    0.753925 0.374739 0.903081 0.152348
H6    H     H_    0.412635 0.642863 0.104317 0.146744
H7    H     H_    0.488907 0.478781 0.241618 0.128894
H8    H     H_    0.655987 0.536525 0.766382 0.138726
H9    H     H_    0.700699 0.373593 0.001643 0.166766
H10   H     H_    0.433430 0.640420 0.004149 0.162912
C51   C     C_1   0.467241 0.882857 0.885213 -0.219362
C52   C     C_1   0.532652 0.117319 0.114682 -0.217997
C53   C     C_1   0.478638 0.926413 0.928013 -0.002828
C54   C     C_1   0.521197 0.073830 0.071841 -0.003033
C55   C     C_1   0.493493 0.978264 0.978602 -0.004337
C56   C     C_1   0.506308 0.022017 0.021230 -0.004590
C57   C     C_3   0.902480 0.168185 0.609905 -0.715482
H11   H     H_    0.940866 0.209293 0.583225 0.180253
H12   H     H_    0.749031 0.177440 0.621003 0.231657
H13   H     H_    0.996516 0.174404 0.648821 0.220349
C58   C     C_3   0.097743 0.831857 0.390063 -0.714484
H14   H     H_    0.058850 0.790740 0.416671 0.180301
H15   H     H_    0.004050 0.825747 0.351068 0.220674
H16   H     H_    0.251262 0.822524 0.379079 0.230773
C59   C     C_3   0.817262 0.138636 0.410339 -0.775883
H17   H     H_    0.731249 0.124921 0.446542 0.214962
H18   H     H_    0.882824 0.189709 0.421279 0.188524
H19   H     H_    0.711004 0.142148 0.374720 0.225123
C60   C     C_3   0.182606 0.861289 0.589619 -0.775870
H20   H     H_    0.116911 0.810241 0.578662 0.188593
H21   H     H_    0.268678 0.874996 0.553425 0.214939
H22   H     H_    0.288856 0.857722 0.625231 0.225152
N1    N     N_2   0.748861 0.091673 0.691270 -0.523553
H23   H     H_    0.603211 0.084859 0.695135 0.257274
C61   C     C_3   0.839215 0.117987 0.745160 -0.563840
H24   H     H_    0.771209 0.168342 0.760630 0.205544
H25   H     H_    0.995241 0.125693 0.739498 0.203932
H26   H     H_    0.820607 0.082021 0.778123 0.190028
N2    N     N_2   0.252961 0.908489 0.308992 -0.523574
H27   H     H_    0.398673 0.915443 0.305443 0.257063
C62   C     C_3   0.163993 0.882057 0.254927 -0.565412
H28   H     H_    0.232686 0.831766 0.239613 0.203395
H29   H     H_    0.183135 0.918026 0.221998 0.190019
H30   H     H_    0.007881 0.874187 0.260265 0.204481
N3    N     N_2   0.495037 0.342238 0.071316 -0.541092
H31   H     H_    0.566544 0.302358 0.088748 0.240759
C63   C     C_3   0.300168 0.325618 0.052967 -0.531685
H32   H     H_    0.208715 0.322327 0.090859 0.197609
H33   H     H_    0.300330 0.275182 0.026231 0.194109
H34   H     H_    0.238464 0.365187 0.026758 0.207576
N4    N     N_2   0.276829 0.627045 0.914527 -0.540774
H35   H     H_    0.279425 0.676339 0.902894 0.251098
C64   C     C_3   0.087393 0.597650 0.909478 -0.491976
H36   H     H_    0.044898 0.586149 0.863527 0.196872
H37   H     H_    0.980784 0.634765 0.930587 0.187377
H38   H     H_    0.085226 0.549650 0.930885 0.201659
N5    N     N_2   0.775767 0.420492 0.808761 -0.525823
H39   H     H_    0.914705 0.417557 0.824808 0.251226
C65   C     C_3   0.757063 0.404940 0.747137 -0.543857
H40   H     H_    0.821454 0.353198 0.734333 0.201658
H41   H     H_    0.835011 0.443107 0.725047 0.184625
H42   H     H_    0.602869 0.404408 0.733584 0.207316
N6    N     N_2   0.416800 0.601682 0.201405 -0.523782
H43   H     H_    0.284748 0.623409 0.192018 0.251568
C66   C     C_3   0.473973 0.612258 0.261392 -0.548097
H44   H     H_    0.460745 0.667875 0.276700 0.200137
H45   H     H_    0.626505 0.595643 0.267217 0.206513
H46   H     H_    0.378535 0.583723 0.287470 0.189221

loop_
_geom_bond_atom_site_label_1
_geom_bond_atom_site_label_2
_ccdc_geom_bond_type
C32   C58   S    
C22   C59   S    
C35   C37   A    
N1    C61   S    
C45   C46   A    
C29   C31   A    
C58   H14   S    
O4    C2    A    
V1    O19   S    
C48   H10   S    
C29   H3    S    
C58   H16   S    
C23   C25   A    
C30   H4    S    
C7    C9    S    
C16   C22   A    
N6    C66   S    
O9    V1    S    
C11   C13   S    
C48   C50   A    
O3    C1    A    
C39   N4    S    
C40   N3    S    
C66   H46   S    
C50   H6    S    
O12   V4    S    
C62   H28   S    
O13   V3    S    
C21   C23   A    
C41   C43   A    
O7    C3    A    
C1    C33   S    
C63   H34   S    
C31   C57   S    
C21   C60   S    
C19   H2    S    
C9    C11   T    
O5    C7    A    
O7    V1    S    
O6    C8    A    
O8    V2    S    
C62   H29   S    
C42   C46   A    
C65   H42   S    
C44   C50   A    
N1    H23   S    
O3    V1    S    
O14   V4    S    
C35   N5    S    
C17   N1    S    
C10   C12   T    
C15   C21   A    
C24   C26   A    
C8    C10   S    
C2    O12   A    
C17   C19   A    
C18   C20   A    
C17   C25   A    
O11   V3    S    
C22   C24   A    
C36   N6    S    
C51   C53   T    
O17   V3    S    
C30   C32   A    
C46   C47   A    
C34   C38   A    
C52   C54   T    
C27   C28   A    
C4    C52   S    
O8    C4    A    
C61   H26   S    
C57   H11   S    
C15   C19   A    
C1    O11   A    
C25   C31   A    
O15   V3    S    
C26   C32   A    
C39   C41   A    
C36   C38   A    
C64   H37   S    
C13   C14   T    
C57   H12   S    
C33   C39   A    
C18   N2    S    
C59   H17   S    
C16   C20   A    
C20   H1    S    
N3    H31   S    
C62   H30   S    
O10   V2    S    
O1    V3    S    
C49   H5    S    
C60   H21   S    
C41   C45   A    
C47   C49   A    
C63   H32   S    
N3    C63   S    
C18   C26   A    
C59   H18   S    
C54   C56   S    
O18   V4    S    
O15   C5    A    
C65   H40   S    
C45   C48   A    
O16   C6    A    
O1    C3    A    
C64   H36   S    
C43   C49   A    
C28   C29   A    
C65   H41   S    
N2    H27   S    
V2    O20   S    
C6    C16   S    
O16   V4    S    
C35   C43   A    
N5    C65   S    
C23   C27   A    
C66   H44   S    
C58   H15   S    
O5    V1    S    
O17   C7    A    
O6    V2    S    
N6    H43   S    
O10   C6    A    
O18   C8    A    
C34   C40   A    
O2    V4    S    
C27   C30   A    
C12   C14   S    
C64   H38   S    
V3    O19   S    
C61   H24   S    
C38   H7    S    
V4    O20   S    
C66   H45   S    
C47   H9    S    
C37   H8    S    
N4    H35   S    
C5    C15   S    
C61   H25   S    
O9    C5    A    
O13   V1    S    
C60   H22   S    
O14   V2    S    
C36   C44   A    
O2    C4    A    
C63   H33   S    
O4    V2    S    
C33   C37   A    
C24   C28   A    
C59   H19   S    
C40   C42   A    
C3    C51   S    
C60   H20   S    
N4    C64   S    
C53   C55   S    
C42   C44   A    
N2    C62   S    
C55   C56   T    
N5    H39   S    
C2    C34   S    
C57   H13   S    
