data_mof_unit_54317.cif
_audit_creation_date              2012-12-11T16:13:45-0500
_audit_creation_method            fapswitch 2.2
_symmetry_space_group_name_H-M    P1
_symmetry_Int_Tables_number       1
_space_group_crystal_system       triclinic
_cell_length_a                    26.196657
_cell_length_b                    7.285024
_cell_length_c                    23.667643
_cell_angle_alpha                 89.928473
_cell_angle_beta                  101.340853
_cell_angle_gamma                 90.07813
_cell_volume                      4428.61207153

loop_
_atom_site_label
_atom_site_type_symbol
_atom_type_description
_atom_site_fract_x
_atom_site_fract_y
_atom_site_fract_z
_atom_type_partial_charge
O1    O     O_R   0.192370 0.384760 0.193350 -0.532914
O2    O     O_R   0.807630 0.615240 0.806650 -0.530240
O3    O     O_R   0.307630 0.884760 0.306650 -0.533071
O4    O     O_R   0.692370 0.115240 0.693350 -0.530404
O5    O     O_R   0.296630 0.711620 0.196480 -0.538367
O6    O     O_R   0.703370 0.288380 0.803520 -0.538274
O7    O     O_R   0.203370 0.211620 0.303520 -0.537624
O8    O     O_R   0.796630 0.788380 0.696480 -0.537481
C1    C     C_R   0.312834 0.546020 0.184599 0.725047
C2    C     C_R   0.687292 0.454013 0.815556 0.726107
C3    C     C_R   0.187338 0.045651 0.315578 0.724581
C4    C     C_R   0.812548 0.954382 0.684286 0.726107
O9    O     O_R   0.192080 0.714290 0.186600 -0.533885
O10   O     O_R   0.807920 0.285710 0.813400 -0.539731
O11   O     O_R   0.307920 0.214290 0.313400 -0.534095
O12   O     O_R   0.692080 0.785710 0.686600 -0.539972
O13   O     O_R   0.202340 0.887460 0.296690 -0.539348
O14   O     O_R   0.797660 0.112540 0.703310 -0.538128
O15   O     O_R   0.297660 0.387460 0.203310 -0.539342
O16   O     O_R   0.702340 0.612540 0.796690 -0.538102
C5    C     C_R   0.173840 0.546227 0.171422 0.721440
C6    C     C_R   0.826179 0.453575 0.828628 0.718978
C7    C     C_R   0.326162 0.046251 0.328572 0.720271
C8    C     C_R   0.673822 0.953552 0.671371 0.717629
O17   O     O_3   0.253490 0.552180 0.286130 -0.376991
O18   O     O_3   0.746510 0.447820 0.713870 -0.376399
O19   O     O_3   0.246510 0.052180 0.213870 -0.377047
O20   O     O_3   0.753490 0.947820 0.786130 -0.376480
V1    V     V_3+5 0.249350 0.825920 0.243300 1.404278
V2    V     V_3+5 0.750650 0.174080 0.756700 1.391275
V3    V     V_3+5 0.250650 0.325920 0.256700 1.404768
V4    V     V_3+5 0.749350 0.674080 0.743300 1.391774
C9    C     C_3   0.542319 0.962351 0.474811 0.086002
C10   C     C_3   0.459273 0.015186 0.522534 0.083417
C11   C     C_3   0.957693 0.461746 0.025163 0.086154
C12   C     C_3   0.040740 0.515810 0.977442 0.083624
C13   C     C_3   0.506634 0.134331 0.464727 -0.231731
C14   C     C_3   0.494905 0.843683 0.532510 -0.238940
C15   C     C_3   0.993386 0.633967 0.035267 -0.231579
C16   C     C_3   0.005098 0.344066 0.967445 -0.238772
H1    H     H_    0.512177 0.252829 0.437191 0.127339
H2    H     H_    0.489960 0.726994 0.560963 0.123942
H3    H     H_    0.987842 0.752154 0.062814 0.127434
H4    H     H_    0.010036 0.227693 0.938975 0.124354
C17   C     C_1   0.371921 0.038340 0.374279 -0.196260
C18   C     C_1   0.628287 0.959031 0.625204 -0.192763
C19   C     C_1   0.128087 0.538291 0.125709 -0.196040
C20   C     C_1   0.871717 0.459081 0.874785 -0.192352
C21   C     C_3   0.493899 0.835512 0.466574 0.109654
C22   C     C_3   0.507506 0.141257 0.530293 0.104076
C23   C     C_3   0.006105 0.335284 0.033379 0.109872
C24   C     C_3   0.992513 0.641502 0.969702 0.103658
C25   C     C_3   0.458229 0.006475 0.457187 0.092073
C26   C     C_3   0.543010 0.971349 0.540022 0.081579
C27   C     C_3   0.041785 0.506492 0.042788 0.092177
C28   C     C_3   0.957001 0.471351 0.959953 0.081592
C29   C     C_1   0.410651 0.027582 0.411934 -0.073786
C30   C     C_1   0.589972 0.961467 0.586764 -0.048822
C31   C     C_1   0.089361 0.527568 0.088046 -0.073364
C32   C     C_1   0.910036 0.461492 0.913218 -0.048382
C33   C     C_R   0.879897 0.125617 0.642637 -0.156830
C34   C     C_R   0.119479 0.874833 0.356503 -0.161259
C35   C     C_R   0.620027 0.625246 0.857180 -0.162672
C36   C     C_R   0.380681 0.375122 0.143854 -0.166227
H5    H     H_    0.875047 0.242345 0.669411 0.154462
H6    H     H_    0.124367 0.758291 0.329671 0.154487
H7    H     H_    0.626411 0.744567 0.832075 0.153548
H8    H     H_    0.374210 0.255961 0.168984 0.153730
C37   C     C_R   0.915366 0.140433 0.605611 0.305511
C38   C     C_R   0.083791 0.860022 0.393280 0.307076
C39   C     C_R   0.581599 0.634959 0.890716 0.304165
C40   C     C_R   0.419392 0.365426 0.110689 0.305629
C41   C     C_R   0.923164 0.989052 0.570341 -0.111410
C42   C     C_R   0.075943 0.011213 0.428605 -0.111350
C43   C     C_R   0.572362 0.481305 0.924514 -0.110830
C44   C     C_R   0.428765 0.518913 0.076895 -0.110785
C45   C     C_R   0.893419 0.827695 0.572081 0.382237
C46   C     C_R   0.105773 0.172490 0.427078 0.382280
C47   C     C_R   0.600820 0.317966 0.921491 0.382258
C48   C     C_R   0.400202 0.682186 0.079622 0.382472
C49   C     C_R   0.857667 0.817077 0.609563 -0.249824
C50   C     C_R   0.141774 0.183019 0.389890 -0.248024
C51   C     C_R   0.638004 0.309965 0.885684 -0.254932
C52   C     C_R   0.362685 0.690124 0.115020 -0.253230
H9    H     H_    0.835210 0.692657 0.610752 0.135754
H10   H     H_    0.164330 0.307310 0.388908 0.135953
H11   H     H_    0.659521 0.184086 0.883624 0.137207
H12   H     H_    0.341060 0.815899 0.116824 0.137366
C53   C     C_R   0.850603 0.965255 0.645082 -0.161622
C54   C     C_R   0.148984 0.034894 0.354425 -0.162980
C55   C     C_R   0.648256 0.463307 0.853657 -0.159863
C56   C     C_R   0.352230 0.536817 0.146940 -0.161355
N1    N     N_R   0.951731 0.933631 0.478007 -0.221203
N2    N     N_R   0.047343 0.066446 0.520908 -0.220712
N3    N     N_R   0.501266 0.350865 0.967492 -0.202782
N4    N     N_R   0.500029 0.649058 0.034123 -0.202902
N5    N     N_R   0.987432 0.938908 0.444870 -0.269867
N6    N     N_R   0.011644 0.061185 0.554041 -0.269358
N7    N     N_R   0.467734 0.359609 0.003136 -0.262131
N8    N     N_R   0.533565 0.640307 0.998481 -0.262329
C57   C     C_R   0.036050 0.004992 0.465658 0.541802
C58   C     C_R   0.963028 0.995114 0.533256 0.542032
C59   C     C_R   0.466479 0.508707 0.037322 0.522283
C60   C     C_R   0.534802 0.491245 0.964274 0.522566
C61   C     C_3   0.592196 0.937887 0.451173 -0.368185
C62   C     C_3   0.582145 0.948435 0.385286 -0.312532
C63   C     C_3   0.633159 0.948790 0.363392 -0.736502
H13   H     H_    0.656916 0.070770 0.379960 0.228843
H14   H     H_    0.655683 0.822120 0.377486 0.230522
H15   H     H_    0.624739 0.953866 0.315566 0.226676
H16   H     H_    0.558983 0.827869 0.366692 0.206534
H17   H     H_    0.560163 0.075376 0.370074 0.198424
H18   H     H_    0.619870 0.048061 0.469656 0.177237
H19   H     H_    0.609918 0.803242 0.465824 0.168763
C64   C     C_3   0.410398 0.045023 0.547695 -0.364652
C65   C     C_3   0.419936 0.003473 0.612414 -0.312862
C66   C     C_3   0.371079 0.039213 0.636701 -0.731382
H20   H     H_    0.359434 0.185614 0.630704 0.228964
H21   H     H_    0.338575 0.950797 0.614814 0.229842
H22   H     H_    0.378965 0.007367 0.683503 0.225746
H23   H     H_    0.431275 0.857295 0.620141 0.195874
H24   H     H_    0.451896 0.090632 0.635876 0.194532
H25   H     H_    0.397375 0.189419 0.539514 0.174002
H26   H     H_    0.379183 0.952951 0.524916 0.180985
C67   C     C_3   0.907819 0.436577 0.048802 -0.369935
C68   C     C_3   0.917874 0.446646 0.114690 -0.311166
C69   C     C_3   0.866864 0.446187 0.136591 -0.732019
H27   H     H_    0.843085 0.568026 0.120030 0.228252
H28   H     H_    0.844362 0.319370 0.122495 0.229671
H29   H     H_    0.875288 0.450940 0.184417 0.229442
H30   H     H_    0.941060 0.326194 0.133275 0.207172
H31   H     H_    0.939837 0.573714 0.129905 0.199380
H32   H     H_    0.880143 0.546638 0.030329 0.177519
H33   H     H_    0.890097 0.301884 0.034143 0.169091
C70   C     C_3   0.089616 0.546347 0.952286 -0.366576
C71   C     C_3   0.080079 0.505284 0.887564 -0.311379
C72   C     C_3   0.128937 0.541724 0.863282 -0.726595
H34   H     H_    0.140583 0.688187 0.869290 0.228652
H35   H     H_    0.161441 0.453435 0.885162 0.228804
H36   H     H_    0.121053 0.510218 0.816477 0.228775
H37   H     H_    0.068739 0.359063 0.879824 0.196908
H38   H     H_    0.048121 0.592337 0.864108 0.195672
H39   H     H_    0.102642 0.690796 0.960479 0.174377
H40   H     H_    0.120828 0.454374 0.975058 0.181310
C73   C     C_3   0.516886 0.311401 0.568652 -0.355733
C74   C     C_3   0.568081 0.408877 0.563949 -0.325528
C75   C     C_3   0.593747 0.496366 0.620949 -0.706328
H41   H     H_    0.630174 0.565465 0.615429 0.227281
H42   H     H_    0.567304 0.598637 0.634760 0.220225
H43   H     H_    0.603846 0.389736 0.654893 0.226218
H44   H     H_    0.596453 0.312293 0.551022 0.202288
H45   H     H_    0.560325 0.516695 0.530354 0.185930
H46   H     H_    0.483551 0.406637 0.556423 0.148860
H47   H     H_    0.518086 0.266586 0.613724 0.181398
C76   C     C_3   0.487880 0.651993 0.433699 -0.390409
C77   C     C_3   0.456916 0.667345 0.371685 -0.290872
C78   C     C_3   0.462909 0.495650 0.336690 -0.767824
H48   H     H_    0.504488 0.472949 0.334923 0.226515
H49   H     H_    0.447553 0.373762 0.356121 0.232396
H50   H     H_    0.440495 0.512578 0.292012 0.222632
H51   H     H_    0.414938 0.683204 0.372528 0.209027
H52   H     H_    0.469844 0.788626 0.349734 0.196440
H53   H     H_    0.527362 0.597282 0.433425 0.171333
H54   H     H_    0.467627 0.552616 0.457358 0.173915
C79   C     C_3   0.983137 0.811896 0.931353 -0.355175
C80   C     C_3   0.931940 0.908838 0.936050 -0.326385
C81   C     C_3   0.906280 0.996557 0.879050 -0.704727
H55   H     H_    0.869857 0.065295 0.884567 0.227009
H56   H     H_    0.932729 0.099175 0.865240 0.220838
H57   H     H_    0.896175 0.890108 0.845106 0.226551
H58   H     H_    0.903565 0.811878 0.948974 0.202427
H59   H     H_    0.939692 0.016457 0.969643 0.186004
H60   H     H_    0.016473 0.907351 0.943588 0.149077
H61   H     H_    0.981942 0.767462 0.886280 0.182290
C82   C     C_3   0.012116 0.151510 0.066230 -0.391050
C83   C     C_3   0.043110 0.166533 0.128232 -0.292708
C84   C     C_3   0.037137 0.994415 0.163197 -0.761715
H62   H     H_    0.995560 0.971225 0.164969 0.228006
H63   H     H_    0.052501 0.872903 0.143742 0.231259
H64   H     H_    0.059557 0.011139 0.207874 0.223584
H65   H     H_    0.085083 0.182811 0.127364 0.209005
H66   H     H_    0.030197 0.287455 0.150220 0.197413
H67   H     H_    0.972632 0.096466 0.066525 0.171490
H68   H     H_    0.032341 0.052523 0.042543 0.174052
O21   O     O_3   0.940674 0.306486 0.604837 -0.625032
H69   H     H_    0.952358 0.319935 0.567777 0.323804
O22   O     O_3   0.058365 0.694107 0.393799 -0.625022
H70   H     H_    0.046561 0.680389 0.430781 0.323802
O23   O     O_3   0.553316 0.795640 0.887746 -0.624704
H71   H     H_    0.519356 0.770212 0.898452 0.319885
O24   O     O_3   0.447773 0.204897 0.113971 -0.624592
H72   H     H_    0.481769 0.230306 0.103350 0.319573
O25   O     O_3   0.900682 0.680495 0.537766 -0.617535
H73   H     H_    0.876434 0.580349 0.543235 0.302745
O26   O     O_3   0.098372 0.319680 0.461337 -0.617442
H74   H     H_    0.122643 0.419873 0.455976 0.302932
O27   O     O_3   0.592687 0.169291 0.954969 -0.602962
H75   H     H_    0.616315 0.068102 0.948923 0.318623
O28   O     O_3   0.408544 0.830814 0.046227 -0.602864
H76   H     H_    0.384869 0.932057 0.052100 0.318740

loop_
_geom_bond_atom_site_label_1
_geom_bond_atom_site_label_2
_ccdc_geom_bond_type
C67   H33   S    
O17   V3    S    
C37   O21   S    
C51   H11   S    
O1    C5    A    
C68   C69   S    
C7    C17   S    
C27   C31   S    
C4    C53   S    
O19   V1    S    
O13   V1    S    
C61   C62   S    
O3    C7    A    
C75   H41   S    
N8    C60   A    
C40   C44   A    
O15   V3    S    
C73   C74   S    
O4    V2    S    
C70   C71   S    
C81   H56   S    
C14   C21   S    
C62   H17   S    
C80   H59   S    
C72   H35   S    
C17   C29   T    
C79   C80   S    
C67   C68   S    
C65   H24   S    
C47   O27   S    
C36   H8    S    
C61   H18   S    
C77   C78   S    
C75   H42   S    
C14   H2    S    
C66   H21   S    
O16   V4    S    
C11   C15   S    
O4    C8    A    
N3    N7    A    
C62   C63   S    
N2    N6    A    
C9    C21   S    
C64   C65   S    
C34   C54   A    
O1    V3    S    
C65   C66   S    
C34   C38   A    
O2    V4    S    
O3    V1    S    
C45   O25   S    
C71   H38   S    
C11   C67   S    
O28   H76   S    
C1    O15   A    
C78   H48   S    
C15   C27   S    
N2    C57   A    
C2    O16   A    
C16   C28   S    
C38   C42   A    
C63   H13   S    
C37   C41   A    
O14   V2    S    
C45   C49   A    
C40   O24   S    
C12   C24   S    
C48   C52   A    
C46   O26   S    
C13   C25   S    
C44   C59   S    
C70   H39   S    
C15   C24   S    
C77   H52   S    
C80   H58   S    
C78   H49   S    
C18   C30   T    
C63   H14   S    
O23   H71   S    
O10   V2    S    
C1    C56   S    
C33   C53   A    
C20   C32   T    
C81   H57   S    
O5    V1    S    
C62   H16   S    
C83   H65   S    
C72   H36   S    
C35   H7    S    
C10   C22   S    
O7    V3    S    
C65   H23   S    
C34   H6    S    
O9    C5    A    
O24   H72   S    
O8    V4    S    
C52   H12   S    
C61   H19   S    
C12   C16   S    
C75   H43   S    
C64   H25   S    
N7    C59   A    
C66   H22   S    
C81   H55   S    
C25   C29   S    
O18   V4    S    
C15   H3    S    
C84   H63   S    
C79   H61   S    
C50   H10   S    
C48   O28   S    
C9    C13   S    
O26   H74   S    
O7    C3    A    
C69   H28   S    
O5    C1    A    
C71   H37   S    
C24   C79   S    
C46   C50   A    
C82   C83   S    
C14   C26   S    
C68   H31   S    
O8    C4    A    
C84   H64   S    
C9    C61   S    
C22   C26   S    
C39   O23   S    
C23   C82   S    
C38   O22   S    
C42   C57   S    
C74   H45   S    
C73   H47   S    
C22   C73   S    
C83   C84   S    
O6    V2    S    
C35   C39   A    
C6    C20   S    
C84   H62   S    
C78   H50   S    
C11   C23   S    
C80   C81   S    
C63   H15   S    
C2    C55   S    
O9    V1    S    
C35   C55   A    
C69   H27   S    
C12   C70   S    
N1    N5    A    
N3    C60   A    
C82   H67   S    
C74   C75   S    
C26   C30   S    
C67   H32   S    
C9    C26   S    
C41   C58   S    
C64   H26   S    
C11   C28   S    
C10   C14   S    
C21   C76   S    
C44   C48   A    
C71   C72   S    
C3    O13   A    
N1    C58   A    
C77   H51   S    
O11   V3    S    
C76   H54   S    
O12   V4    S    
C16   C23   S    
C51   C55   A    
C72   H34   S    
C50   C54   A    
C76   H53   S    
O10   C6    A    
O20   V2    S    
C10   C64   S    
C69   H29   S    
C8    C18   S    
O22   H70   S    
C12   C27   S    
N6    C58   A    
O2    C6    A    
C39   C43   A    
C13   C22   S    
C3    C54   S    
O21   H69   S    
C43   C60   S    
C43   C47   A    
C68   H30   S    
C21   C25   S    
N4    N8    A    
O11   C7    A    
C73   H46   S    
C23   C27   S    
C33   C37   A    
C36   C40   A    
C49   C53   A    
C13   H1    S    
O27   H75   S    
N5    C57   A    
C70   H40   S    
O6    C2    A    
C83   H66   S    
C19   C31   T    
C74   H44   S    
C47   C51   A    
C33   H5    S    
C16   H4    S    
C28   C32   S    
C10   C25   S    
O12   C8    A    
O25   H73   S    
C42   C46   A    
N4    C59   A    
C4    O14   A    
C76   C77   S    
C41   C45   A    
C52   C56   A    
C36   C56   A    
C66   H20   S    
C79   H60   S    
C49   H9    S    
C24   C28   S    
C82   H68   S    
C5    C19   S    
