data_mof_unit_11615.cif
_audit_creation_date              2012-12-10T17:57:49-0500
_audit_creation_method            fapswitch 2.2
_symmetry_space_group_name_H-M    P1
_symmetry_Int_Tables_number       1
_space_group_crystal_system       triclinic
_cell_length_a                    10.829571
_cell_length_b                    9.515189
_cell_length_c                    15.048691
_cell_angle_alpha                 90.20866
_cell_angle_beta                  90.283275
_cell_angle_gamma                 90.032836
_cell_volume                      1550.66910052

loop_
_atom_site_label
_atom_site_type_symbol
_atom_type_description
_atom_site_fract_x
_atom_site_fract_y
_atom_site_fract_z
_atom_type_partial_charge
C1    C     C_R   0.262055 0.499974 0.499910 0.802806
C2    C     C_R   0.737945 0.500026 0.500090 0.802806
C3    C     C_R   0.337404 0.673127 0.050585 -0.199299
C4    C     C_R   0.662596 0.326873 0.949415 -0.199299
C5    C     C_R   0.063752 0.372392 0.495879 -0.173351
C6    C     C_R   0.936248 0.627608 0.504121 -0.173351
C7    C     C_R   0.936024 0.372427 0.495932 -0.156074
C8    C     C_R   0.063976 0.627573 0.504068 -0.156074
C9    C     C_R   0.871781 0.500032 0.500050 -0.016223
C10   C     C_R   0.128219 0.499968 0.499950 -0.016223
C11   C     C_R   0.422140 0.074071 0.445390 0.001157
C12   C     C_R   0.577860 0.925929 0.554610 0.001157
C13   C     C_R   0.577880 0.074794 0.554596 -0.004265
C14   C     C_R   0.422120 0.925206 0.445404 -0.004265
C15   C     C_R   0.504000 0.499656 0.328889 0.848163
C16   C     C_R   0.495999 0.500344 0.671111 0.848163
C17   C     C_R   0.574703 0.413898 0.812699 -0.272927
C18   C     C_R   0.425297 0.586101 0.187301 -0.272927
C19   C     C_R   0.492083 0.501051 0.767613 -0.101752
C20   C     C_R   0.507917 0.498949 0.232387 -0.101753
C21   C     C_R   0.408340 0.587148 0.814403 0.086071
C22   C     C_R   0.591660 0.412852 0.185597 0.086071
C23   C     C_R   0.411932 0.587978 0.908117 0.067870
C24   C     C_R   0.588067 0.412022 0.091883 0.067870
C25   C     C_R   0.497614 0.500431 0.953208 0.042642
C26   C     C_R   0.502385 0.499569 0.046792 0.042642
C27   C     C_R   0.578393 0.413179 0.904938 0.115681
C28   C     C_R   0.421607 0.586821 0.095062 0.115681
C29   C     C_R   0.332420 0.673770 0.958233 -0.168532
C30   C     C_R   0.667580 0.326230 0.041766 -0.168532
Cu1   Cu    Cu3+1 0.500000 0.640660 0.500000 0.971700
Cu2   Cu    Cu3+1 0.500000 0.359340 0.500000 0.971700
H1    H     H_    0.637929 0.347982 0.775438 0.148161
H2    H     H_    0.362071 0.652017 0.224562 0.148161
H3    H     H_    0.266019 0.742873 0.927324 0.183552
H4    H     H_    0.733981 0.257127 0.072675 0.183551
H5    H     H_    0.274969 0.740450 0.087353 0.149737
H6    H     H_    0.725031 0.259549 0.912647 0.149737
H7    H     H_    0.111721 0.272650 0.492493 0.152529
H8    H     H_    0.888279 0.727350 0.507507 0.152528
H9    H     H_    0.887862 0.272713 0.492582 0.160933
H10   H     H_    0.112138 0.727287 0.507418 0.160934
H11   H     H_    0.359788 0.129919 0.401648 0.120856
H12   H     H_    0.640212 0.870081 0.598352 0.120856
H13   H     H_    0.640252 0.131229 0.598324 0.114804
H14   H     H_    0.359748 0.868771 0.401676 0.114804
N1    N     N_R   0.500000 0.852070 0.500000 -0.158092
N2    N     N_R   0.500000 0.147930 0.500000 -0.158092
O1    O     O_R   0.319640 0.618740 0.499990 -0.581420
O2    O     O_R   0.680360 0.381260 0.500010 -0.581420
O3    O     O_R   0.680360 0.618740 0.500010 -0.593218
O4    O     O_R   0.319640 0.381260 0.499990 -0.593219
O5    O     O_R   0.499970 0.618800 0.370260 -0.585620
O6    O     O_R   0.500030 0.381200 0.629740 -0.585621
O7    O     O_R   0.500030 0.618800 0.629740 -0.559551
O8    O     O_R   0.499970 0.381200 0.370260 -0.559551
I1    I     I_    0.271145 0.705315 0.742840 -0.396336
I2    I     I_    0.728856 0.294685 0.257160 -0.396336

loop_
_geom_bond_atom_site_label_1
_geom_bond_atom_site_label_2
_ccdc_geom_bond_type
C22   I2    S    
C13   N2    A    
C5    C7    A    
C11   H11   S    
C14   N1    A    
C25   C27   A    
Cu2   N2    S    
C21   I1    S    
C29   H3    S    
C26   C28   A    
Cu1   Cu2   S    
C30   H4    S    
C8    H10   S    
C15   O8    A    
C4    C27   A    
C6    C9    A    
C5    H7    S    
C16   O7    A    
C5    C10   A    
C12   H12   S    
Cu1   N1    S    
Cu1   O5    S    
C13   H13   S    
C18   H2    S    
Cu2   O2    S    
C11   N2    A    
C17   H1    S    
Cu1   O1    S    
C12   N1    A    
C23   C29   A    
Cu2   O6    S    
C3    C28   A    
C11   C14   A    
C4    H6    S    
C22   C24   A    
C23   C25   A    
C21   C23   A    
C16   C19   S    
C15   C20   S    
C1    O4    A    
C16   O6    A    
C24   C30   A    
C2    O3    A    
C17   C19   A    
C17   C27   A    
C15   O5    A    
C6    H8    S    
C18   C28   A    
C12   C13   A    
C3    H5    S    
C18   C20   A    
C14   H14   S    
Cu1   O3    S    
C3    C29   A    
C7    C9    A    
Cu2   O4    S    
C6    C8    A    
C2    O2    A    
Cu1   O7    S    
C25   C26   A    
C2    C9    S    
C1    O1    A    
Cu2   O8    S    
C8    C10   A    
C4    C30   A    
C1    C10   S    
C24   C26   A    
C7    H9    S    
C20   C22   A    
C19   C21   A    
