data_mof_unit_28384.cif
_audit_creation_date              2012-12-10T18:42:31-0500
_audit_creation_method            fapswitch 2.2
_symmetry_space_group_name_H-M    P1
_symmetry_Int_Tables_number       1
_space_group_crystal_system       triclinic
_cell_length_a                    8.593445
_cell_length_b                    10.7283
_cell_length_c                    9.853416
_cell_angle_alpha                 90.001056
_cell_angle_beta                  98.645773
_cell_angle_gamma                 90.21337
_cell_volume                      898.08745449

loop_
_atom_site_label
_atom_site_type_symbol
_atom_type_description
_atom_site_fract_x
_atom_site_fract_y
_atom_site_fract_z
_atom_type_partial_charge
C1    C     C_R   0.499849 0.259887 0.499932 0.873102
C2    C     C_R   0.500151 0.740113 0.500068 0.873102
C3    C     C_R   0.201116 0.499956 0.464081 0.961839
C4    C     C_R   0.798884 0.500044 0.535919 0.961840
C5    C     C_2   0.035990 0.500038 0.444764 -0.339402
C6    C     C_2   0.964010 0.499962 0.555236 -0.339401
C7    C     C_R   0.501759 0.063818 0.376440 -0.150172
C8    C     C_R   0.498241 0.936182 0.623560 -0.150172
C9    C     C_R   0.502003 0.936158 0.376504 -0.147958
C10   C     C_R   0.497997 0.063842 0.623496 -0.147958
C11   C     C_R   0.500188 0.872594 0.500056 -0.038033
C12   C     C_R   0.499812 0.127406 0.499943 -0.038033
C13   C     C_R   0.596976 0.578432 0.084580 0.463435
C14   C     C_R   0.403024 0.421568 0.915420 0.463435
C15   C     C_R   0.596940 0.578386 0.940742 0.473952
C16   C     C_R   0.403060 0.421614 0.059258 0.473952
H1    H     H_    0.974106 0.500201 0.339971 0.218788
H2    H     H_    0.025894 0.499799 0.660029 0.218788
H3    H     H_    0.503188 0.112202 0.280103 0.195736
H4    H     H_    0.496812 0.887798 0.719897 0.195736
H5    H     H_    0.503636 0.887756 0.280211 0.197527
H6    H     H_    0.496364 0.112244 0.719789 0.197527
N1    N     N_R   0.499960 0.499970 0.857200 -0.246534
N2    N     N_R   0.500040 0.500030 0.142800 -0.246534
O1    O     O_R   0.499990 0.316750 0.614620 -0.590637
O2    O     O_R   0.500010 0.683250 0.385380 -0.590637
O3    O     O_R   0.499990 0.316780 0.385290 -0.592683
O4    O     O_R   0.500010 0.683220 0.614710 -0.592684
O5    O     O_R   0.271750 0.499990 0.587840 -0.582963
O6    O     O_R   0.728250 0.500010 0.412160 -0.582964
O7    O     O_R   0.271750 0.500010 0.358510 -0.575013
O8    O     O_R   0.728250 0.499990 0.641490 -0.575013
Zn1   Zn    Zn3+2 0.500000 0.499980 0.653120 1.067692
Zn2   Zn    Zn3+2 0.500000 0.500020 0.346880 1.067692
F1    F     F_    0.694199 0.657081 0.165249 -0.597918
F2    F     F_    0.305801 0.342919 0.834751 -0.597918
F3    F     F_    0.694178 0.656915 0.885431 -0.590758
F4    F     F_    0.305822 0.343085 0.114569 -0.590758

loop_
_geom_bond_atom_site_label_1
_geom_bond_atom_site_label_2
_ccdc_geom_bond_type
C14   N1    A    
C1    O1    A    
C7    C9    A    
O8    Zn1   S    
C2    O2    A    
O7    Zn2   S    
C16   N2    A    
C8    H4    S    
C10   H6    S    
C3    O7    A    
C9    C11   A    
C9    H5    S    
C4    O8    A    
C1    C12   S    
C10   C12   A    
C8    C11   A    
C2    C11   S    
C15   N1    A    
O4    Zn1   S    
C13   F1    S    
C7    H3    S    
C13   C15   A    
O3    Zn2   S    
C14   F2    S    
C5    C6    D    
C6    H2    S    
C14   C16   A    
C7    C12   A    
C5    H1    S    
O6    Zn2   S    
O5    Zn1   S    
C3    O5    A    
C4    C6    S    
O1    Zn1   S    
C1    O3    A    
C15   F3    S    
C2    O4    A    
N1    Zn1   S    
O2    Zn2   S    
C8    C10   A    
C4    O6    A    
C13   N2    A    
C16   F4    S    
C3    C5    S    
N2    Zn2   S    
