data_mof_unit_12184.cif
_audit_creation_date              2012-12-11T16:50:58-0500
_audit_creation_method            fapswitch 2.2
_symmetry_space_group_name_H-M    P1
_symmetry_Int_Tables_number       1
_space_group_crystal_system       triclinic
_cell_length_a                    6.919565
_cell_length_b                    28.850425
_cell_length_c                    32.147164
_cell_angle_alpha                 100.877218
_cell_angle_beta                  89.65583
_cell_angle_gamma                 90.390425
_cell_volume                      6302.09606067

loop_
_atom_site_label
_atom_site_type_symbol
_atom_type_description
_atom_site_fract_x
_atom_site_fract_y
_atom_site_fract_z
_atom_type_partial_charge
O1    O     O_R   0.494350 0.453170 0.452520 -0.551208
O2    O     O_R   0.820980 0.455850 0.538220 -0.538240
O3    O     O_R   0.994300 0.546830 0.547480 -0.542187
C1    C     C_R   0.650961 0.444759 0.551067 0.694253
O4    O     O_R   0.823860 0.447590 0.452270 -0.510114
O5    O     O_R   0.997200 0.538510 0.460920 -0.506252
C2    C     C_R   0.654895 0.434574 0.436566 0.754266
O6    O     O_R   0.491440 0.461490 0.539080 -0.533121
O7    O     O_3   0.661790 0.529840 0.502940 -0.362956
V1    V     V_3+5 0.935470 0.494460 0.499450 1.485652
O8    O     O_R   0.327090 0.544150 0.461780 -0.547385
C3    C     C_R   0.158463 0.554948 0.448815 0.745246
O9    O     O_R   0.324210 0.552410 0.547730 -0.543845
C4    C     C_R   0.155172 0.565333 0.563415 0.678460
V2    V     V_3+5 0.435840 0.505540 0.500550 1.428935
O10   O     O_3   0.159650 0.470160 0.497060 -0.367336
C5    C     C_R   0.218437 0.885786 0.876109 -0.156460
H1    H     H_    0.348418 0.905925 0.885916 0.136613
C6    C     C_R   0.226072 0.850381 0.839864 -0.183498
H2    H     H_    0.361472 0.844267 0.822792 0.166899
C7    C     C_R   0.062534 0.822844 0.825707 0.006558
C8    C     C_R   0.886128 0.832328 0.848570 0.328099
C9    C     C_R   0.879738 0.868852 0.884555 -0.176374
H3    H     H_    0.743533 0.876868 0.901004 0.132096
C10   C     C_R   0.045053 0.895664 0.898864 -0.115839
C11   C     C_R   0.019052 0.738339 0.787977 -0.154468
H4    H     H_    0.959675 0.729394 0.816654 0.128558
C12   C     C_R   0.032480 0.703044 0.751606 -0.151309
H5    H     H_    0.981185 0.667806 0.752954 0.121063
C13   C     C_R   0.114080 0.712878 0.714046 0.075756
C14   C     C_R   0.183264 0.758752 0.713799 -0.149758
H6    H     H_    0.246637 0.767364 0.685303 0.116551
C15   C     C_R   0.166209 0.794299 0.749954 -0.143179
H7    H     H_    0.217068 0.829559 0.748559 0.121068
C16   C     C_R   0.081303 0.784702 0.787326 0.073206
C17   C     C_R   0.297248 0.667594 0.651564 -0.139553
H8    H     H_    0.424970 0.688594 0.661500 0.108997
C18   C     C_R   0.307541 0.631868 0.615376 -0.161699
H9    H     H_    0.442985 0.626451 0.598136 0.119437
C19   C     C_R   0.144794 0.603677 0.601585 -0.054382
C20   C     C_R   0.971877 0.612109 0.625034 -0.156293
H10   H     H_    0.843696 0.591141 0.615459 0.122499
C21   C     C_R   0.962632 0.647300 0.661540 -0.141308
H11   H     H_    0.827506 0.652875 0.678901 0.110603
C22   C     C_R   0.125034 0.675474 0.675213 0.090242
C23   C     C_R   0.159516 0.659318 0.284138 0.570938
N1    N     N_R   0.126206 0.677809 0.326096 -0.555591
C24   C     C_R   0.081571 0.724704 0.338863 0.584313
C25   C     C_R   0.059359 0.754591 0.308846 -0.069676
C26   C     C_R   0.099274 0.735964 0.265776 -0.067544
C27   C     C_R   0.150514 0.688117 0.253378 -0.014136
C28   C     C_R   0.000431 0.802445 0.320315 0.283668
C29   C     C_R   0.992054 0.830914 0.289442 -0.213820
C30   C     C_R   0.035407 0.812765 0.246838 -0.069228
C31   C     C_R   0.087777 0.765115 0.234880 -0.017499
C32   C     C_R   0.128780 0.746552 0.191982 -0.020609
C33   C     C_R   0.179830 0.698813 0.180178 -0.145827
C34   C     C_R   0.189920 0.669954 0.210439 -0.137725
C35   C     C_R   0.025176 0.841172 0.215712 0.601957
N2    N     N_R   0.067564 0.822832 0.174107 -0.539659
C36   C     C_R   0.118406 0.776322 0.161920 0.579324
O11   O     O_2   0.199341 0.613004 0.272020 -0.522636
O12   O     O_2   0.063088 0.742478 0.380597 -0.502290
H12   H     H_    0.947506 0.867322 0.299008 0.172435
O13   O     O_2   0.971655 0.886724 0.226966 -0.517171
O14   O     O_2   0.160971 0.758988 0.120955 -0.528050
H13   H     H_    0.211964 0.683522 0.147472 0.168967
H14   H     H_    0.229494 0.633326 0.200034 0.170053
C37   C     C_R   0.926772 0.844667 0.109862 -0.162331
H15   H     H_    0.830355 0.814517 0.107168 0.148280
C38   C     C_R   0.917419 0.874398 0.079882 0.225217
C39   C     C_R   0.040658 0.914538 0.083740 -0.190164
C40   C     C_R   0.173644 0.923492 0.118067 0.280671
C41   C     C_R   0.184810 0.892149 0.146338 -0.085332
H16   H     H_    0.287736 0.899058 0.172063 0.164812
C42   C     C_R   0.060598 0.853138 0.143001 0.256620
C43   C     C_R   0.975276 0.643758 0.383740 -0.161056
H17   H     H_    0.845822 0.663687 0.380541 0.126650
C44   C     C_R   0.982157 0.615467 0.414891 0.247615
C45   C     C_R   0.149237 0.588179 0.418469 -0.083109
C46   C     C_R   0.308241 0.592069 0.391790 -0.275022
H18   H     H_    0.437345 0.571549 0.393552 0.152155
C47   C     C_R   0.301910 0.621680 0.361959 -0.095679
H19   H     H_    0.427430 0.624326 0.342246 0.141301
C48   C     C_R   0.134646 0.647459 0.357295 0.339836
C49   C     C_R   0.651891 0.222495 0.837832 0.571692
N3    N     N_R   0.584417 0.177065 0.826207 -0.558627
C50   C     C_R   0.527297 0.159832 0.785373 0.571031
C51   C     C_R   0.536343 0.188549 0.754490 -0.026894
C52   C     C_R   0.604472 0.235299 0.766023 -0.015316
C53   C     C_R   0.663006 0.252527 0.808006 -0.027885
C54   C     C_R   0.479289 0.171639 0.712434 -0.142735
C55   C     C_R   0.489543 0.200745 0.682298 -0.142058
C56   C     C_R   0.556262 0.247572 0.693500 -0.029269
C57   C     C_R   0.613740 0.264905 0.735513 -0.016516
C58   C     C_R   0.680112 0.311788 0.747098 -0.030225
C59   C     C_R   0.738273 0.328601 0.789115 -0.142332
C60   C     C_R   0.730200 0.299316 0.819162 -0.141787
C61   C     C_R   0.566930 0.277553 0.663670 0.575972
N4    N     N_R   0.628951 0.323492 0.675447 -0.547446
C62   C     C_R   0.685175 0.340814 0.716381 0.578161
O15   O     O_2   0.706325 0.238753 0.878203 -0.521967
O16   O     O_2   0.463364 0.114909 0.774555 -0.523063
H20   H     H_    0.426533 0.135835 0.702632 0.170653
H21   H     H_    0.444271 0.186447 0.650226 0.171337
O17   O     O_2   0.517123 0.260693 0.623093 -0.523500
O18   O     O_2   0.743400 0.386156 0.727565 -0.524200
H22   H     H_    0.790211 0.364471 0.798955 0.170810
H23   H     H_    0.776218 0.313541 0.851196 0.171260
C63   C     C_R   0.805679 0.375006 0.634384 -0.080897
H24   H     H_    0.938362 0.369030 0.650220 0.146482
C64   C     C_R   0.808959 0.403937 0.604008 -0.224306
H25   H     H_    0.944364 0.420563 0.598091 0.195040
C65   C     C_R   0.640399 0.411906 0.581987 -0.163040
C66   C     C_R   0.465698 0.389360 0.591429 0.305272
C67   C     C_R   0.463342 0.362123 0.623230 -0.085551
H26   H     H_    0.328873 0.345948 0.630656 0.143559
C68   C     C_R   0.632686 0.353987 0.644424 0.294051
C69   C     C_R   0.392972 0.131920 0.870305 -0.085267
H27   H     H_    0.261366 0.143329 0.857324 0.120397
C70   C     C_R   0.381719 0.102178 0.900007 -0.198401
H28   H     H_    0.240511 0.091124 0.909216 0.127550
C71   C     C_R   0.550731 0.086651 0.917262 -0.055027
C72   C     C_R   0.731079 0.101965 0.904176 -0.200033
H29   H     H_    0.864171 0.090820 0.916737 0.129015
C73   C     C_R   0.741927 0.131851 0.874585 -0.087662
H30   H     H_    0.881983 0.142997 0.864786 0.118878
C74   C     C_R   0.573062 0.146931 0.857322 0.380220
C75   C     C_R   0.719896 0.129976 0.109597 -0.182492
H31   H     H_    0.841048 0.122776 0.087963 0.133699
C76   C     C_R   0.739927 0.165534 0.145505 -0.120678
H32   H     H_    0.875258 0.184817 0.150471 0.120604
C77   C     C_R   0.586147 0.176632 0.174235 0.034329
C78   C     C_R   0.412399 0.151143 0.166347 -0.139158
H33   H     H_    0.292679 0.158523 0.188440 0.126999
C79   C     C_R   0.389345 0.116002 0.130143 0.345262
C80   C     C_R   0.545788 0.104436 0.101223 -0.140606
C81   C     C_R   0.451390 0.246130 0.224660 -0.169521
H34   H     H_    0.320020 0.243537 0.206197 0.118336
C82   C     C_R   0.465921 0.281454 0.260732 -0.219791
H35   H     H_    0.345612 0.305289 0.269134 0.138824
C83   C     C_R   0.633505 0.286453 0.285659 0.093000
C84   C     C_R   0.789531 0.255169 0.273468 0.298951
C85   C     C_R   0.774587 0.220199 0.236552 -0.214432
H36   H     H_    0.893462 0.196017 0.227743 0.119972
C86   C     C_R   0.604970 0.214950 0.212197 0.076597
C87   C     C_R   0.796187 0.355798 0.331724 -0.173345
H37   H     H_    0.912937 0.352864 0.308786 0.134445
C88   C     C_R   0.801216 0.391844 0.368113 0.319642
C89   C     C_R   0.646674 0.396475 0.397848 -0.156309
C90   C     C_R   0.488497 0.364148 0.389864 0.221563
C91   C     C_R   0.487786 0.328846 0.353429 -0.186012
H38   H     H_    0.367152 0.304300 0.348174 0.154014
C92   C     C_R   0.640345 0.324200 0.324237 0.006936
O19   O     O_R   0.699170 0.038480 0.960880 -0.543009
O20   O     O_R   0.366800 0.052460 0.047690 -0.544921
O21   O     O_R   0.193520 0.961530 0.039110 -0.535785
C93   C     C_R   0.535156 0.065349 0.063480 0.731376
O22   O     O_R   0.369630 0.044100 0.961740 -0.545783
O23   O     O_R   0.196370 0.953120 0.952550 -0.541285
C94   C     C_R   0.539158 0.054382 0.948323 0.693380
O24   O     O_R   0.696320 0.046890 0.047450 -0.537939
O25   O     O_3   0.528890 0.970170 0.997080 -0.356584
V3    V     V_3+5 0.255190 0.005530 0.000540 1.421698
O26   O     O_R   0.866460 0.947530 0.952310 -0.542079
C95   C     C_R   0.035439 0.934490 0.936698 0.697066
O27   O     O_R   0.863630 0.955880 0.038270 -0.507374
C96   C     C_R   0.031808 0.946254 0.052125 0.749244
V4    V     V_3+5 0.754830 0.994440 0.999470 1.459318
O28   O     O_3   0.031000 0.029830 0.002920 -0.379651
N5    N     N_2   0.942782 0.822193 0.362466 -0.469059
H39   H     H_    0.981943 0.857162 0.371865 0.251818
C97   C     C_3   0.741122 0.814242 0.371256 -0.439908
H40   H     H_    0.647444 0.832784 0.351743 0.172111
H41   H     H_    0.710182 0.828051 0.405247 0.201794
H42   H     H_    0.706311 0.775899 0.364397 0.207331
N6    N     N_2   0.783632 0.863551 0.045875 -0.489381
H43   H     H_    0.659291 0.846988 0.053505 0.261598
C98   C     C_3   0.867526 0.839643 0.006325 -0.505514
H44   H     H_    0.920443 0.804234 0.009623 0.196902
H45   H     H_    0.989282 0.860495 0.996501 0.178753
H46   H     H_    0.756324 0.835222 0.981092 0.185083
O29   O     O_3   0.291909 0.962867 0.126005 -0.619080
H47   H     H_    0.230832 0.988694 0.114572 0.315102
N7    N     N_2   0.821274 0.615329 0.442718 -0.502587
H48   H     H_    0.691177 0.622162 0.429685 0.247498
C99   C     C_3   0.847838 0.644070 0.484351 -0.479546
H49   H     H_    0.861713 0.681882 0.481945 0.191640
H50   H     H_    0.978712 0.633152 0.499775 0.174343
H51   H     H_    0.720826 0.639779 0.504597 0.186406
N8    N     N_2   0.710932 0.808452 0.834044 -0.545275
H52   H     H_    0.707289 0.791939 0.802716 0.264992
C100  C     C_3   0.619442 0.781799 0.862742 -0.571997
H53   H     H_    0.487134 0.764142 0.847844 0.209706
H54   H     H_    0.575739 0.805447 0.892620 0.204144
H55   H     H_    0.719080 0.754442 0.870048 0.194768
O30   O     O_3   0.295084 0.392290 0.570311 -0.650847
H56   H     H_    0.326192 0.391127 0.540108 0.294411
O31   O     O_3   0.215152 0.092525 0.125156 -0.644302
H57   H     H_    0.163084 0.097039 0.097621 0.284167
N9    N     N_2   0.960421 0.258036 0.298316 -0.542354
H58   H     H_    0.082324 0.246130 0.281068 0.253318
C101  C     C_3   0.942282 0.237877 0.336097 -0.518290
H59   H     H_    0.079022 0.243526 0.354308 0.199393
H60   H     H_    0.913379 0.199326 0.327409 0.197557
H61   H     H_    0.823795 0.254970 0.356763 0.211479
O32   O     O_3   0.953641 0.423577 0.374555 -0.642073
H62   H     H_    0.049776 0.415085 0.351409 0.286567
N10   N     N_2   0.330487 0.364668 0.418396 -0.512041
H63   H     H_    0.259183 0.396235 0.426894 0.297876
C102  C     C_3   0.364052 0.339807 0.452679 -0.511245
H64   H     H_    0.229648 0.339637 0.471685 0.199902
H65   H     H_    0.481480 0.357298 0.473439 0.163485
H66   H     H_    0.404639 0.302621 0.439902 0.206528

loop_
_geom_bond_atom_site_label_1
_geom_bond_atom_site_label_2
_ccdc_geom_bond_type
C62   O18   S    
C31   C32   A    
C19   C20   A    
C55   C56   A    
C45   C46   A    
C57   C58   A    
C20   C21   A    
C40   C41   A    
C13   C22   S    
V3    O28   S    
C87   H37   S    
C1    O6    A    
C88   O32   S    
C64   C65   A    
C65   C66   A    
C33   C34   A    
C52   C57   A    
O27   V4    S    
C43   H17   S    
C67   H26   S    
C101  H60   S    
C11   H4    S    
O26   C95   A    
C41   C42   A    
C80   C93   S    
C23   O11   S    
C47   H19   S    
N1    C48   S    
C1    C65   S    
C12   H5    S    
C6    C7    A    
C82   C83   A    
C49   C53   A    
O5    C3    A    
C18   H9    S    
C40   O29   S    
C29   H12   S    
N7    C99   S    
V2    O10   S    
C32   C33   A    
C28   N5    S    
C37   C42   A    
C5    H1    S    
C20   H10   S    
C27   C34   A    
C37   C38   A    
C87   C92   A    
C63   H24   S    
C64   H25   S    
C79   O31   S    
C55   H21   S    
C23   N1    A    
C59   H22   S    
O8    V2    S    
C36   O14   S    
C56   C57   A    
C61   N4    A    
C67   C68   A    
C100  H54   S    
C90   C91   A    
C14   C15   A    
O1    V2    S    
O23   C95   A    
C90   N10   S    
O7    V1    S    
C47   C48   A    
C98   H46   S    
C69   C74   A    
C25   C28   A    
C69   C70   A    
C43   C48   A    
C35   N2    A    
C60   H23   S    
O1    C2    A    
O9    C4    A    
C98   H45   S    
N9    C101  S    
C63   C68   A    
C37   H15   S    
C33   H13   S    
O21   C96   A    
O4    V1    S    
N3    C74   S    
C46   C47   A    
C59   C60   A    
C30   C35   A    
C97   H41   S    
O26   V4    S    
C101  H61   S    
C99   H50   S    
C41   H16   S    
N8    H52   S    
C99   H51   S    
N1    C24   A    
C71   C72   A    
C15   H7    S    
C82   H35   S    
C85   C86   A    
O27   C96   A    
O4    C2    A    
C54   H20   S    
C49   N3    A    
C79   C80   A    
C24   O12   S    
C78   C79   A    
C46   H18   S    
C26   C27   A    
C97   H40   S    
C23   C27   A    
N2    C42   S    
O19   C94   A    
O32   H62   S    
N2    C36   A    
C77   C86   S    
O2    C1    A    
O29   H47   S    
N8    C100  S    
C102  H64   S    
C2    C89   S    
C66   O30   S    
O19   V4    S    
C14   H6    S    
O21   V3    S    
C9    H3    S    
C100  H55   S    
C58   C59   A    
O22   C94   A    
N10   H63   S    
C43   C44   A    
C75   C80   A    
C17   C22   A    
V4    O28   S    
C83   C92   S    
C51   C54   A    
C21   C22   A    
N5    H39   S    
C70   H28   S    
O3    C4    A    
C81   C82   A    
N6    H43   S    
C34   H14   S    
C24   C25   A    
C84   N9    S    
C91   C92   A    
C25   C26   A    
O6    V2    S    
O9    V2    S    
C21   H11   S    
C77   C78   A    
N4    C68   S    
C8    N8    S    
C52   C53   A    
C76   H32   S    
C49   O15   S    
O23   V3    S    
C50   O16   S    
C28   C29   A    
C72   C73   A    
C75   H31   S    
C97   H42   S    
C102  H65   S    
C61   O17   S    
C30   C31   A    
C17   H8    S    
C73   C74   A    
C44   N7    S    
C87   C88   A    
C32   C36   A    
C8    C9    A    
C39   C40   A    
C76   C77   A    
O5    V1    S    
C69   H27   S    
C29   C30   A    
C78   H33   S    
C7    C16   S    
C10   C95   S    
N5    C97   S    
C11   C12   A    
C26   C31   A    
C89   C90   A    
N9    H58   S    
C85   H36   S    
C5    C10   A    
C7    C8    A    
C38   N6    S    
C6    H2    S    
C12   C13   A    
O7    V2    S    
C99   H49   S    
O3    V1    S    
V1    O10   S    
C88   C89   A    
C35   O13   S    
C18   C19   A    
C15   C16   A    
N7    H48   S    
C13   C14   A    
O24   V4    S    
C56   C61   A    
C81   C86   A    
C73   H30   S    
C71   C94   S    
C3    C45   S    
C17   C18   A    
C54   C55   A    
N10   C102  S    
N6    C98   S    
C9    C10   A    
C53   C60   A    
O30   H56   S    
O25   V4    S    
C63   C64   A    
C70   C71   A    
O25   V3    S    
C81   H34   S    
C93   O24   A    
C4    C19   S    
C44   C45   A    
C5    C6    A    
C11   C16   A    
O31   H57   S    
C102  H66   S    
C38   C39   A    
C50   C51   A    
O20   V3    S    
N3    C50   A    
C100  H53   S    
C39   C96   S    
C83   C84   A    
C98   H44   S    
O22   V3    S    
N4    C62   A    
C91   H38   S    
C101  H59   S    
C66   C67   A    
C51   C52   A    
C58   C62   A    
O20   C93   A    
C84   C85   A    
O8    C3    A    
C72   H29   S    
C75   C76   A    
O2    V1    S    
