data_mof_unit_54996.cif
_audit_creation_date              2012-12-10T21:36:35-0500
_audit_creation_method            fapswitch 2.2
_symmetry_space_group_name_H-M    P1
_symmetry_Int_Tables_number       1
_space_group_crystal_system       triclinic
_cell_length_a                    10.522436
_cell_length_b                    16.175608
_cell_length_c                    16.389752
_cell_angle_alpha                 85.067314
_cell_angle_beta                  92.032866
_cell_angle_gamma                 91.238573
_cell_volume                      2777.08344728

loop_
_atom_site_label
_atom_site_type_symbol
_atom_type_description
_atom_site_fract_x
_atom_site_fract_y
_atom_site_fract_z
_atom_type_partial_charge
C1    C     C_R   0.494087 0.486743 0.654416 0.903225
C2    C     C_R   0.504224 0.512914 0.345821 0.880005
C3    C     C_R   0.542752 0.469412 0.912912 0.158236
C4    C     C_R   0.636213 0.538785 0.102471 0.160724
C5    C     C_R   0.563757 0.398959 0.870196 0.413030
C6    C     C_R   0.571334 0.605492 0.130783 0.272790
C7    C     C_R   0.515168 0.397107 0.789146 -0.030714
C8    C     C_R   0.509429 0.593675 0.206267 -0.033526
C9    C     C_R   0.442373 0.752330 0.446451 -0.024069
C10   C     C_R   0.562781 0.247914 0.550808 -0.059122
C11   C     C_R   0.429289 0.838859 0.432353 0.002117
C12   C     C_R   0.576688 0.161594 0.563996 0.001809
C13   C     C_R   0.491622 0.890983 0.486026 0.248735
C14   C     C_R   0.512614 0.109670 0.510845 0.220716
C15   C     C_R   0.564967 0.853529 0.552277 -0.374934
C16   C     C_R   0.435764 0.147214 0.446241 -0.350581
C17   C     C_R   0.577174 0.766542 0.563301 0.491340
C18   C     C_R   0.422783 0.234194 0.436258 0.571785
C19   C     C_R   0.742455 0.498890 0.499704 0.935355
C20   C     C_R   0.257459 0.501105 0.499224 0.912815
C21   C     C_3   0.961019 0.422516 0.489022 0.598055
C22   C     C_3   0.038604 0.576696 0.508340 0.603492
C23   C     C_3   0.046640 0.447904 0.560890 -0.313468
C24   C     C_3   0.953067 0.551331 0.436499 -0.325002
C25   C     C_3   0.122828 0.502969 0.498632 -0.178622
C26   C     C_3   0.876899 0.496459 0.498868 -0.188191
C27   C     C_3   0.039118 0.476494 0.426649 -0.277623
C28   C     C_3   0.960765 0.522867 0.570785 -0.259254
C29   C     C_R   0.488834 0.474003 0.744379 -0.170755
C30   C     C_R   0.541973 0.523644 0.260382 -0.107081
C31   C     C_R   0.456602 0.540484 0.787609 -0.171671
C32   C     C_R   0.631519 0.467997 0.237885 -0.225557
C33   C     C_R   0.471006 0.535359 0.872737 0.030481
C34   C     C_R   0.676873 0.473050 0.158942 0.046265
H1    H     H_    0.087921 0.405338 0.611218 0.185314
H2    H     H_    0.911673 0.593803 0.386116 0.185428
H3    H     H_    0.612172 0.891658 0.595714 0.201708
H4    H     H_    0.387860 0.109371 0.402865 0.216392
H5    H     H_    0.073321 0.458117 0.367659 0.207000
H6    H     H_    0.926643 0.541638 0.629640 0.223888
H7    H     H_    0.667714 0.420509 0.282917 0.206440
H8    H     H_    0.413028 0.594308 0.755093 0.211383
H9    H     H_    0.617011 0.288170 0.588618 0.191524
H10   H     H_    0.391626 0.712174 0.406959 0.181178
N1    N     N_2   0.574659 0.468094 0.997962 -0.135362
N2    N     N_2   0.633463 0.532073 0.016735 -0.110365
N3    N     N_R   0.515540 0.716920 0.509720 -0.148208
N4    N     N_R   0.484460 0.283080 0.490280 -0.160963
N5    N     N_2   0.477068 0.979260 0.471622 -0.166743
N6    N     N_2   0.529665 0.021534 0.524013 -0.163236
O1    O     O_R   0.494440 0.422540 0.612660 -0.656022
O2    O     O_R   0.505560 0.577460 0.387340 -0.660564
O3    O     O_R   0.504420 0.561850 0.618900 -0.544979
O4    O     O_R   0.495580 0.438150 0.381100 -0.539880
O5    O     O_R   0.681060 0.430360 0.496900 -0.590868
O6    O     O_R   0.318940 0.569640 0.503100 -0.586261
O7    O     O_R   0.691040 0.569670 0.503140 -0.566302
O8    O     O_R   0.308960 0.430330 0.496860 -0.568056
Zn1   Zn    Zn3+2 0.493340 0.406980 0.495830 1.033861
Zn2   Zn    Zn3+2 0.506660 0.593020 0.504170 1.039516
S1    S     S_3+6 0.666243 0.725931 0.650445 0.092523
O9    O     O_2   0.576879 0.705799 0.718937 -0.267984
O10   O     O_2   0.735197 0.649123 0.634587 -0.253138
O11   O     O_3   0.772767 0.797165 0.680612 -0.513058
H11   H     H_    0.821258 0.814843 0.631273 0.354708
S2    S     S_3+6 0.337482 0.276747 0.348375 0.051883
O12   O     O_2   0.262251 0.350053 0.366961 -0.277853
O13   O     O_2   0.430308 0.303357 0.283170 -0.315937
O14   O     O_3   0.237197 0.204517 0.313179 -0.572413
H12   H     H_    0.191896 0.233133 0.265152 0.384821
S3    S     S_3+6 0.915275 0.317615 0.476200 0.022104
O15   O     O_2   0.861310 0.279131 0.554424 -0.351543
O16   O     O_2   0.817528 0.314794 0.407318 -0.321645
O17   O     O_3   0.044137 0.265069 0.454478 -0.502115
H13   H     H_    0.012353 0.207916 0.447612 0.385165
S4    S     S_3+6 0.085623 0.681440 0.518985 0.023144
O18   O     O_2   0.171869 0.686412 0.593536 -0.281244
O19   O     O_2   0.153966 0.713666 0.443715 -0.383105
O20   O     O_3   0.955531 0.737957 0.527711 -0.539700
H14   H     H_    0.986182 0.796424 0.521818 0.362063
C35   C     C_3   0.780988 0.415153 0.140848 -0.395228
C36   C     C_3   0.737501 0.323634 0.151026 -0.236220
C37   C     C_3   0.847770 0.265677 0.141788 -0.745539
H15   H     H_    0.892980 0.279867 0.081965 0.290906
H16   H     H_    0.920565 0.272147 0.191735 0.251108
H17   H     H_    0.812045 0.200413 0.145631 0.259842
H18   H     H_    0.698541 0.307752 0.212583 0.239120
H19   H     H_    0.660662 0.312516 0.105159 0.293391
H20   H     H_    0.816737 0.431364 0.078644 0.258014
H21   H     H_    0.862457 0.424696 0.184387 0.195843
C38   C     C_3   0.402049 0.597157 0.918292 -0.306193
C39   C     C_3   0.295996 0.554100 0.969296 -0.405427
C40   C     C_3   0.212638 0.616767 0.005481 -0.773237
H22   H     H_    0.270033 0.654235 0.047281 0.285619
H23   H     H_    0.167587 0.658622 0.955975 0.282279
H24   H     H_    0.136436 0.583406 0.040988 0.246604
H25   H     H_    0.234799 0.515883 0.929836 0.240599
H26   H     H_    0.337766 0.512475 0.020246 0.237860
H27   H     H_    0.470255 0.629329 0.957182 0.277087
H28   H     H_    0.358871 0.645955 0.874579 0.224430
S5    S     S_3+6 0.660963 0.317516 0.913632 -0.009746
O21   O     O_2   0.771948 0.353756 0.959061 -0.328885
O22   O     O_2   0.584443 0.260625 0.971164 -0.321990
O23   O     O_3   0.717714 0.263193 0.840214 -0.582911
H29   H     H_    0.773482 0.221267 0.869876 0.385736
S6    S     S_3+6 0.597856 0.707189 0.082831 0.013592
O24   O     O_2   0.695779 0.706336 0.018308 -0.249949
O25   O     O_2   0.477438 0.743017 0.044067 -0.301748
O26   O     O_3   0.650879 0.769007 0.154624 -0.519434
H30   H     H_    0.727880 0.741667 0.179687 0.347683
C41   C     C_3   0.471827 0.314883 0.757635 -0.311241
C42   C     C_3   0.328427 0.313976 0.735216 -0.389612
C43   C     C_3   0.285565 0.232263 0.701946 -0.816059
H31   H     H_    0.303534 0.179540 0.748642 0.258065
H32   H     H_    0.182034 0.233973 0.686338 0.274400
H33   H     H_    0.336878 0.222497 0.645662 0.259296
H34   H     H_    0.274247 0.322705 0.790773 0.233298
H35   H     H_    0.303693 0.365215 0.688378 0.235871
H36   H     H_    0.528963 0.301116 0.705744 0.219200
H37   H     H_    0.486335 0.262780 0.805316 0.253696
C44   C     C_3   0.406207 0.652494 0.226413 -0.350040
C45   C     C_3   0.277163 0.606979 0.238215 -0.390629
C46   C     C_3   0.168062 0.667650 0.237995 -0.833386
H38   H     H_    0.185041 0.710676 0.286492 0.289646
H39   H     H_    0.158558 0.704176 0.177614 0.265265
H40   H     H_    0.077610 0.632729 0.249827 0.254710
H41   H     H_    0.258378 0.565728 0.188107 0.239057
H42   H     H_    0.277738 0.567983 0.297310 0.232427
H43   H     H_    0.435702 0.684188 0.281147 0.203550
H44   H     H_    0.392286 0.702609 0.177027 0.266513
C47   C     C_3   0.662844 0.126079 0.633597 -0.358173
C48   C     C_3   0.585632 0.085318 0.704389 -0.398392
C49   C     C_3   0.672407 0.043289 0.771325 -0.725380
H45   H     H_    0.725284 0.992650 0.746790 0.273071
H46   H     H_    0.741279 0.089021 0.795252 0.260961
H47   H     H_    0.614323 0.016232 0.822598 0.270612
H48   H     H_    0.530193 0.133369 0.731106 0.235769
H49   H     H_    0.517797 0.038018 0.682153 0.249374
H50   H     H_    0.726906 0.080262 0.610388 0.224768
H51   H     H_    0.724631 0.175757 0.657575 0.239906
C50   C     C_3   0.351147 0.874279 0.358621 -0.379051
C51   C     C_3   0.227769 0.913226 0.383345 -0.309557
C52   C     C_3   0.141100 0.936109 0.308573 -0.797145
H52   H     H_    0.190366 0.981065 0.264728 0.276362
H53   H     H_    0.113113 0.879726 0.277555 0.265785
H54   H     H_    0.053708 0.965080 0.328111 0.256255
H55   H     H_    0.175815 0.869350 0.426605 0.269549
H56   H     H_    0.249441 0.970331 0.414550 0.232273
H57   H     H_    0.409182 0.921685 0.322652 0.220939
H58   H     H_    0.326840 0.824705 0.317484 0.201539

loop_
_geom_bond_atom_site_label_1
_geom_bond_atom_site_label_2
_ccdc_geom_bond_type
C52   H54   S    
S2    O13   D    
C21   C26   S    
C40   H22   S    
C7    C29   A    
C31   H8    S    
O5    Zn1   S    
C41   C42   S    
S4    O20   S    
C22   S4    S    
C44   H44   S    
C20   O6    A    
C35   C36   S    
C50   H57   S    
C46   H38   S    
C4    N2    S    
N1    N2    D    
C19   O7    A    
S5    O21   D    
C21   S3    S    
C12   C47   S    
S4    O19   D    
C33   C38   S    
C42   H34   S    
C8    C44   S    
C46   H39   S    
S2    O14   S    
S6    O24   D    
C3    C33   A    
C48   H49   S    
C36   H18   S    
C41   H36   S    
C45   H41   S    
S1    O10   D    
C19   C26   S    
C1    O3    A    
C42   C43   S    
C47   H51   S    
O2    Zn2   S    
C17   S1    S    
N3    Zn2   S    
C11   C50   S    
C15   H3    S    
C27   H5    S    
C48   C49   S    
C22   C25   S    
C50   H58   S    
C49   H47   S    
C32   H7    S    
C24   C27   S    
C34   C35   S    
C38   H28   S    
C30   C32   A    
C43   H33   S    
C35   H20   S    
S2    O12   D    
C21   C27   S    
C40   H23   S    
C22   C28   S    
O14   H12   S    
C10   C12   A    
C1    C29   S    
O23   H29   S    
O3    Zn2   S    
C39   H25   S    
C5    S5    S    
O4    Zn1   S    
C4    C34   A    
O17   H13   S    
C39   H26   S    
C51   H56   S    
S4    O18   D    
C4    C6    A    
C2    O4    A    
C44   H43   S    
C38   C39   S    
C5    C7    A    
C46   H40   S    
C6    C8    A    
C48   H48   S    
C3    N1    S    
O6    Zn2   S    
C41   H37   S    
C32   C34   A    
S1    O11   S    
C1    O1    A    
C37   H15   S    
C31   C33   A    
C6    S6    S    
C24   H2    S    
C23   C28   S    
C9    C11   A    
C44   C45   S    
C2    O2    A    
C13   N5    S    
C35   H21   S    
C16   C18   A    
C37   H16   S    
C12   C14   A    
C9    N3    A    
C40   H24   S    
C23   H1    S    
C13   C15   A    
C10   N4    A    
C49   H45   S    
C22   C24   S    
O1    Zn1   S    
C20   O8    A    
C47   C48   S    
N4    Zn1   S    
S3    O16   D    
C43   H31   S    
C19   O5    A    
C52   H53   S    
C18   S2    S    
C9    H10   S    
C10   H9    S    
C51   H55   S    
C17   N3    A    
C24   C26   S    
C3    C5    A    
C18   N4    A    
S3    O17   S    
C15   C17   A    
C25   C27   S    
C26   C28   S    
C2    C30   S    
C8    C30   A    
O11   H11   S    
C21   C23   S    
O8    Zn1   S    
S3    O15   D    
C29   C31   A    
C38   H27   S    
C50   C51   S    
C42   H35   S    
C11   C13   A    
C14   N6    S    
S6    O25   D    
C36   H19   S    
C39   C40   S    
C7    C41   S    
C14   C16   A    
C23   C25   S    
C45   H42   S    
S1    O9    D    
C47   H50   S    
O20   H14   S    
O7    Zn2   S    
C37   H17   S    
S5    O22   D    
N5    N6    D    
C20   C25   S    
C49   H46   S    
C28   H6    S    
C51   C52   S    
S5    O23   S    
C36   C37   S    
C45   C46   S    
O26   H30   S    
C52   H52   S    
C16   H4    S    
C43   H32   S    
S6    O26   S    
