data_mof_unit_21673.cif
_audit_creation_date              2013-03-05T15:41:05-0500
_audit_creation_method            fapswitch 2.2
_symmetry_space_group_name_H-M    P1
_symmetry_Int_Tables_number       1
_space_group_crystal_system       triclinic
_cell_length_a                    10.935731
_cell_length_b                    11.040402
_cell_length_c                    18.795365
_cell_angle_alpha                 90.439973
_cell_angle_beta                  90.257081
_cell_angle_gamma                 59.904655
_cell_volume                      1963.28398844

loop_
_atom_site_label
_atom_site_type_symbol
_atom_site_description
_atom_site_fract_x
_atom_site_fract_y
_atom_site_fract_z
_atom_type_partial_charge
O1    O     O_R   0.507110 0.256280 0.580300 -0.484202
O2    O     O_R   0.280830 0.527190 0.577940 -0.545606
C1    C     C_R   0.232632 0.647311 0.607309 0.611135
O3    O     O_R   0.261360 0.738990 0.584270 -0.406747
O4    O     O_R   0.532590 0.694780 0.574370 -0.475164
C2    C     C_R   0.629527 0.591220 0.609603 0.588391
O5    O     O_R   0.744470 0.503750 0.577000 -0.495857
O6    O     O_R   0.698520 0.277230 0.571620 -0.455757
C3    C     C_R   0.630733 0.226473 0.601307 0.562086
O7    O     O_R   0.498530 0.256920 0.419280 -0.529859
O8    O     O_R   0.272880 0.527780 0.428680 -0.507537
C4    C     C_R   0.216476 0.650991 0.404167 0.534563
O9    O     O_R   0.252780 0.739630 0.423250 -0.490042
O10   O     O_R   0.524640 0.695370 0.425100 -0.470641
C5    C     C_R   0.644459 0.626746 0.395631 0.561004
O11   O     O_R   0.735890 0.504390 0.415980 -0.445488
O12   O     O_R   0.690560 0.277820 0.422350 -0.478941
C6    C     C_R   0.615087 0.232260 0.394059 0.581361
Cr1   Cr    Cr6+3 0.393010 0.398050 0.501480 1.083555
Cr2   Cr    Cr6+3 0.398820 0.707980 0.501630 1.164248
Cr3   Cr    Cr6+3 0.708140 0.393940 0.496850 1.151209
O13   O     O_3   0.499990 0.499990 0.499980 -0.322570
C7    C     C_3   0.570863 0.809232 0.782415 0.534277
C8    C     C_3   0.553110 0.785720 0.702817 0.139792
H1    H     H_    0.596131 0.840321 0.670483 0.116302
H2    H     H_    0.883789 0.666204 0.779010 0.198555
H3    H     H_    0.828414 0.657821 0.662500 0.164063
C9    C     C_3   0.829999 0.604478 0.773117 -0.314650
C10   C     C_3   0.637217 0.561384 0.812680 -0.184685
C11   C     C_3   0.689402 0.667901 0.815939 -0.023171
H4    H     H_    0.715269 0.461314 0.838349 0.111060
H5    H     H_    0.536284 0.601670 0.842348 0.236778
C12   C     C_3   0.647764 0.625542 0.683622 -0.035405
C13   C     C_3   0.804152 0.588822 0.695212 -0.340992
C14   C     C_3   0.617278 0.533228 0.734279 0.231986
H6    H     H_    0.692629 0.421896 0.722402 0.162168
H7    H     H_    0.906204 0.498456 0.793902 0.162240
H8    H     H_    0.880900 0.479392 0.679301 0.215204
C15   C     C_2   0.684555 0.151303 0.668398 -0.028168
C16   C     C_2   0.685571 0.177591 0.832757 0.201509
C17   C     C_2   0.792517 0.113613 0.785153 -0.092893
C18   C     C_2   0.787459 0.150476 0.709699 0.173396
H9    H     H_    0.889761 0.021084 0.801730 0.197325
H10   H     H_    0.617058 0.116282 0.691353 0.193950
C19   C     C_2   0.162574 0.670509 0.676376 0.407261
C20   C     C_2   0.181995 0.667596 0.836245 0.013455
C21   C     C_2   0.165982 0.575843 0.795455 -0.065535
C22   C     C_2   0.195785 0.560739 0.718803 -0.052078
H11   H     H_    0.130250 0.509062 0.818430 0.145762
H12   H     H_    0.250832 0.454999 0.697397 0.172491
H13   H     H_    0.225002 0.728592 0.813950 0.233229
C23   C     C_2   0.669963 0.687028 0.332221 0.198686
C24   C     C_2   0.672779 0.681388 0.172530 -0.094271
C25   C     C_2   0.785376 0.636578 0.216320 -0.058353
C26   C     C_2   0.781583 0.605595 0.290807 0.323991
H14   H     H_    0.889470 0.606481 0.195534 0.166067
H15   H     H_    0.567595 0.711416 0.191405 0.123820
C27   C     C_2   0.636274 0.191438 0.320343 0.429645
C28   C     C_2   0.636631 0.199976 0.164148 -0.069134
C29   C     C_2   0.526803 0.220151 0.202930 -0.114962
C30   C     C_2   0.521340 0.251985 0.277763 -0.092988
H16   H     H_    0.445840 0.200053 0.181965 0.177346
H17   H     H_    0.416512 0.321376 0.299251 0.110765
H18   H     H_    0.713097 0.226914 0.184767 0.167368
C31   C     C_2   0.123977 0.680455 0.344024 -0.103077
C32   C     C_2   0.114620 0.690985 0.190213 -0.120285
C33   C     C_2   0.045290 0.803445 0.233367 -0.102608
C34   C     C_2   0.077942 0.798559 0.308297 -0.085821
H19   H     H_    0.973797 0.906497 0.211800 0.217688
H20   H     H_    0.081612 0.887529 0.330977 0.209313
H21   H     H_    0.187308 0.586479 0.209485 0.090367
H22   H     H_    0.111654 0.595372 0.322601 0.143456
O14   O     O_R   0.089190 0.825870 0.932320 -0.486762
O15   O     O_R   0.819070 0.053960 0.931440 -0.538004
C35   C     C_R   0.701440 0.105514 0.899451 0.596279
O16   O     O_R   0.607070 0.076440 0.916460 -0.422658
O17   O     O_R   0.647110 0.806550 0.917690 -0.433485
C36   C     C_R   0.721036 0.687026 0.889569 0.571346
O18   O     O_R   0.837080 0.593860 0.915300 -0.534706
O19   O     O_R   0.064770 0.636080 0.932550 -0.499606
C37   C     C_R   0.115668 0.707930 0.906400 0.549741
O20   O     O_R   0.068250 0.829200 0.092940 -0.501970
O21   O     O_R   0.799650 0.057040 0.080330 -0.504308
C38   C     C_R   0.673053 0.113527 0.101424 0.559049
O22   O     O_R   0.586130 0.079760 0.077080 -0.507750
O23   O     O_R   0.627700 0.809630 0.066580 -0.480896
C39   C     C_R   0.698117 0.692049 0.097918 0.543710
O24   O     O_R   0.816140 0.597180 0.075920 -0.516432
O25   O     O_R   0.045360 0.639170 0.081440 -0.499497
C40   C     C_R   0.086183 0.713725 0.115211 0.550552
Cr4   Cr    Cr6+3 0.937950 0.938450 0.008940 1.070804
Cr5   Cr    Cr6+3 0.626180 0.937030 0.994750 1.139948
Cr6   Cr    Cr6+3 0.937790 0.625760 0.001410 1.055448
O26   O     O_3   0.833980 0.833750 0.001700 -0.285670
N1    N     N_R   0.600782 0.923922 0.788070 0.084618
O27   O     O_R   0.723727 0.903863 0.769453 -0.468135
O28   O     O_R   0.494552 0.051464 0.790664 -0.234323
N2    N     N_R   0.910703 0.149855 0.681469 0.091757
O29   O     O_R   0.033438 0.067672 0.709962 -0.190469
O30   O     O_R   0.899529 0.250776 0.642070 -0.330991
N3    N     N_R   0.555501 0.306084 0.820420 0.076031
O31   O     O_R   0.493861 0.390061 0.874005 -0.361777
O32   O     O_R   0.481390 0.322230 0.763553 -0.311585
F1    F     F_    0.446360 0.849918 0.819755 -0.569604
F2    F     F_    0.079029 0.803572 0.700438 -0.597076
F3    F     F_    0.890869 0.482092 0.314367 -0.610368
N4    N     N_R   0.570130 0.829647 0.312341 0.025493
O33   O     O_R   0.614759 0.908468 0.285021 -0.325721
O34   O     O_R   0.435390 0.882848 0.323549 -0.304933
F4    F     F_    0.768666 0.101251 0.296057 -0.649603
N5    N     N_R   0.402709 0.850342 0.683781 0.161734
O35   O     O_R   0.347456 0.955820 0.640264 -0.263008
O36   O     O_R   0.319413 0.817495 0.716671 -0.160610
F5    F     F_    0.483235 0.553840 0.723395 -0.605941

loop_
_geom_bond_atom_site_label_1
_geom_bond_atom_site_label_2
_geom_bond_distance
_ccdc_geom_bond_type
C39   O24   1.255471 A    
O17   Cr5   1.966117 S    
Cr6   O26   1.986774 S    
C17   H9    1.088104 S    
C17   C18   1.471568 S    
N1    O27   1.297511 A    
C21   H11   1.085401 S    
O4    Cr2   1.949796 S    
O17   C36   1.263921 A    
O8    Cr1   1.943309 S    
C28   H18   1.087481 S    
N3    O31   1.301282 A    
O21   C38   1.264130 A    
N5    O35   1.301821 A    
O18   Cr6   2.078621 S    
C10   H5    1.111965 S    
C18   N2    1.447461 S    
O4    C2    1.288148 A    
C5    O11   1.273087 A    
C3    C15   1.464524 S    
C14   F5    1.380530 S    
C29   H16   1.086721 S    
C20   C21   1.345121 D    
C30   H17   1.087582 S    
C16   N3    1.438028 S    
O24   Cr6   2.067623 S    
C6    C27   1.437022 S    
N5    O36   1.297364 A    
C7    F1    1.392297 S    
C23   N4    1.446441 S    
O6    C3    1.264911 A    
C21   C22   1.468227 S    
N4    O33   1.301613 A    
C23   C26   1.342153 D    
C27   C30   1.350430 D    
C22   H12   1.085024 S    
C32   C33   1.349175 D    
C9    C13   1.515006 S    
C28   C29   1.326841 D    
N3    O32   1.296634 A    
C2    C12   1.477860 S    
C27   F4    1.359831 S    
Cr3   O13   1.970548 S    
N4    O34   1.301321 A    
C8    N5    1.471065 S    
O14   C37   1.276735 A    
O22   Cr5   2.084697 S    
C19   F2    1.358268 S    
C12   C13   1.561839 S    
C15   C18   1.360520 D    
H3    C13   1.113590 S    
C25   H14   1.086985 S    
O1    Cr1   2.064426 S    
O15   C35   1.266589 A    
C26   F3    1.361566 S    
C33   C34   1.446089 S    
C7    C11   1.578416 S    
O10   Cr2   1.950429 S    
Cr1   O13   1.989317 S    
O1    C3    1.281752 A    
C8    H1    1.116542 S    
O14   Cr4   2.070381 S    
C32   C40   1.438796 S    
C24   H15   1.085491 S    
C36   O18   1.263083 A    
O5    Cr3   2.084860 S    
C20   H13   1.083519 S    
C1    C19   1.464504 S    
O12   Cr3   1.964287 S    
O20   Cr4   2.064775 S    
C29   C30   1.441357 S    
C33   H19   1.087283 S    
C14   H6    1.105139 S    
O3    Cr2   2.070300 S    
O15   Cr4   1.946043 S    
C35   O16   1.267690 A    
C10   C11   1.544022 S    
C20   C37   1.462432 S    
C32   H21   1.085519 S    
O7    Cr1   2.078983 S    
C7    C8    1.544429 S    
C31   C34   1.325377 D    
Cr5   O26   1.970341 S    
O12   C6    1.274863 A    
C24   C39   1.447748 S    
C5    C23   1.463720 S    
C38   O22   1.265223 A    
C2    O5    1.291724 A    
O16   Cr5   2.070591 S    
C16   C17   1.355907 D    
Cr2   O13   1.987291 S    
N2    O30   1.296179 A    
C1    O3    1.279664 A    
O23   C39   1.276807 A    
C19   C22   1.344374 D    
C25   C26   1.449434 S    
O9    Cr2   2.066415 S    
O2    Cr1   1.957863 S    
C13   H8    1.110516 S    
C8    C12   1.576930 S    
O19   C37   1.277456 A    
O6    Cr3   1.952278 S    
O8    C4    1.268362 A    
N1    O28   1.301403 A    
O11   Cr3   2.071987 S    
C24   C25   1.350771 D    
C15   H10   1.082651 S    
C31   H22   1.087811 S    
O21   Cr4   1.951251 S    
C4    C31   1.439539 S    
C10   C14   1.540665 S    
H2    C9    1.105881 S    
C28   C38   1.437055 S    
O20   C40   1.263231 A    
C16   C35   1.452436 S    
C9    C11   1.557185 S    
O2    C1    1.277352 A    
O19   Cr6   1.947665 S    
C10   H4    1.113864 S    
O23   Cr5   1.951119 S    
Cr4   O26   1.990402 S    
C9    H7    1.114919 S    
O7    C6    1.256561 A    
C12   C14   1.553999 S    
C7    N1    1.461091 S    
O25   Cr6   1.955426 S    
C11   C36   1.464216 S    
C4    O9    1.275505 A    
C34   H20   1.086780 S    
N2    O29   1.300472 A    
O10   C5    1.265767 A    
O25   C40   1.279720 A    
