data_mof_unit_63400.cif
_audit_creation_date              2012-12-10T17:00:42-0500
_audit_creation_method            fapswitch 2.2
_symmetry_space_group_name_H-M    P1
_symmetry_Int_Tables_number       1
_space_group_crystal_system       triclinic
_cell_length_a                    13.131832
_cell_length_b                    13.110971
_cell_length_c                    19.471801
_cell_angle_alpha                 100.123396
_cell_angle_beta                  80.601041
_cell_angle_gamma                 90.783325
_cell_volume                      3255.59163459

loop_
_atom_site_label
_atom_site_type_symbol
_atom_type_description
_atom_site_fract_x
_atom_site_fract_y
_atom_site_fract_z
_atom_type_partial_charge
Br1   Br    Br    0.740494 0.451900 0.217338 -0.498753
C1    C     C_R   0.223073 0.535985 0.526932 0.510451
C2    C     C_2   0.482179 0.538604 0.988629 0.258553
C3    C     C_2   0.520389 0.459596 0.012889 -0.106264
C4    C     C_R   0.776108 0.463193 0.473062 0.517488
C5    C     C_R   0.515731 0.477508 0.233422 0.048075
C6    C     C_2   0.887417 0.450076 0.462335 -0.072429
C7    C     C_2   0.940648 0.494939 0.511908 -0.153937
C8    C     C_2   0.110328 0.546579 0.540528 -0.105465
C9    C     C_2   0.053509 0.487889 0.498304 -0.149141
C10   C     C_2   0.543906 0.887701 0.527557 -0.084336
C11   C     C_2   0.468371 0.946598 0.516024 -0.152683
C12   C     C_R   0.485622 0.533138 0.911708 0.029492
C13   C     C_2   0.445190 0.112218 0.479427 -0.069441
C14   C     C_2   0.480599 0.059702 0.524737 0.239308
C15   C     C_R   0.464956 0.223403 0.481019 0.523641
C16   C     C_R   0.532796 0.776346 0.520442 0.492670
C17   C     C_R   0.511149 0.485466 0.309531 0.535728
C18   C     C_R   0.489682 0.513446 0.690495 0.492161
C19   C     C_R   0.487817 0.520597 0.766409 0.038154
C20   C     C_R   0.568455 0.475988 0.790572 -0.127133
C21   C     C_R   0.568226 0.483487 0.862621 -0.155233
C22   C     C_3   0.490133 0.106888 0.643359 0.014502
C23   C     C_R   0.405500 0.578742 0.887421 -0.116459
C24   C     C_3   0.410919 0.195993 0.668528 -0.263701
C25   C     C_3   0.367005 0.204242 0.746866 -0.482888
C26   C     C_3   0.485669 0.712970 0.033011 0.005607
C27   C     C_3   0.569269 0.721839 0.080212 -0.259818
C28   C     C_3   0.621616 0.826802 0.083920 -0.473965
C29   C     C_R   0.406814 0.573003 0.815169 -0.140411
C30   C     C_R   0.423801 0.473405 0.134963 -0.078384
C31   C     C_R   0.422830 0.480457 0.207070 -0.163182
C32   C     C_R   0.610308 0.464009 0.186392 0.155172
C33   C     C_R   0.610384 0.455195 0.113978 -0.107402
C34   C     C_R   0.517707 0.462002 0.088443 0.019728
H1    H     H_    0.632702 0.436861 0.753768 0.135378
H2    H     H_    0.349538 0.489840 0.242516 0.131414
H3    H     H_    0.559614 0.393947 0.977034 0.074103
H4    H     H_    0.341419 0.617939 0.924326 0.146398
H5    H     H_    0.351543 0.477131 0.115408 0.158376
H6    H     H_    0.343934 0.608161 0.797427 0.130484
H7    H     H_    0.633416 0.451352 0.879579 0.099040
H8    H     H_    0.550302 0.117486 0.677918 0.151621
H9    H     H_    0.453083 0.031480 0.649982 0.126025
H10   H     H_    0.448327 0.270093 0.659998 0.206510
H11   H     H_    0.346657 0.183439 0.637399 0.144592
H12   H     H_    0.682883 0.445280 0.077673 0.135407
H13   H     H_    0.328206 0.131222 0.756870 0.150882
H14   H     H_    0.309608 0.268949 0.763120 0.153501
H15   H     H_    0.429572 0.220081 0.779254 0.153269
H16   H     H_    0.429818 0.778459 0.053192 0.155744
H17   H     H_    0.520046 0.721648 0.978104 0.125099
H18   H     H_    0.533996 0.711664 0.134458 0.190009
H19   H     H_    0.628715 0.659925 0.058781 0.164795
H20   H     H_    0.658583 0.837922 0.030273 0.148898
H21   H     H_    0.682013 0.830448 0.118050 0.165882
H22   H     H_    0.564334 0.890263 0.106802 0.153435
H23   H     H_    0.090680 0.434171 0.452228 0.164087
H24   H     H_    0.900896 0.539333 0.561312 0.129331
H25   H     H_    0.073492 0.601612 0.585922 0.107079
H26   H     H_    0.926612 0.410756 0.411207 0.112718
H27   H     H_    0.399531 0.911491 0.498290 0.100189
H28   H     H_    0.400214 0.072589 0.440880 0.060129
H29   H     H_    0.616498 0.921270 0.539445 0.137686
O1    O     O_3   0.500000 0.500000 0.500000 -0.449970
O2    O     O_R   0.441420 0.437150 0.344000 -0.548671
O3    O     O_R   0.438960 0.578560 0.667440 -0.546612
O4    O     O_R   0.575450 0.541060 0.341470 -0.494804
O5    O     O_R   0.544160 0.443230 0.647100 -0.560696
O6    O     O_3   0.540162 0.108747 0.573398 -0.531769
O7    O     O_3   0.430276 0.620113 0.036284 -0.574621
O8    O     O_R   0.530110 0.266880 0.518530 -0.481482
O9    O     O_R   0.465470 0.738830 0.563940 -0.538917
O10   O     O_R   0.266890 0.467300 0.476120 -0.542534
O11   O     O_R   0.737530 0.526990 0.441410 -0.511861
O12   O     O_R   0.276880 0.592620 0.567490 -0.541394
O13   O     O_R   0.718700 0.413090 0.514970 -0.531334
O14   O     O_R   0.414920 0.276880 0.447500 -0.549770
O15   O     O_R   0.589510 0.717410 0.470040 -0.530016
Zn1   Zn    Zn3+2 0.571990 0.407410 0.544380 0.953742
Zn2   Zn    Zn3+2 0.407420 0.421690 0.442900 0.938733
Zn3   Zn    Zn3+2 0.598910 0.570150 0.439280 0.984891
Zn4   Zn    Zn3+2 0.421690 0.600750 0.573440 0.925296

loop_
_geom_bond_atom_site_label_1
_geom_bond_atom_site_label_2
_ccdc_geom_bond_type
C5    C31   A    
O3    Zn4   S    
C18   C19   S    
C15   O8    A    
Br1   C32   S    
C6    C7    D    
C20   H1    S    
C19   C29   A    
C27   C28   S    
C9    H23   S    
C25   H15   S    
C7    H24   S    
O1    Zn4   S    
C17   O4    A    
C16   O15   A    
C23   H4    S    
C22   H8    S    
C30   H5    S    
C33   C34   A    
C6    H26   S    
C29   H6    S    
C18   O3    A    
C8    C9    D    
C15   O14   A    
C2    C12   S    
C25   H13   S    
C3    C34   S    
O1    Zn1   S    
C20   C21   A    
C16   O9    A    
C22   O6    S    
O12   Zn4   S    
C26   H16   S    
C5    C17   S    
C10   H29   S    
C25   H14   S    
C4    C6    S    
C27   H19   S    
C28   H20   S    
C24   C25   S    
C22   H9    S    
C12   C23   A    
C4    O11   A    
C2    O7    S    
C11   H27   S    
O1    Zn2   S    
C30   C31   A    
C11   C14   S    
C27   H18   S    
C32   C33   A    
C31   H2    S    
C3    H3    S    
C30   C34   A    
C18   O5    A    
O10   Zn2   S    
C4    O13   A    
C2    C3    D    
C24   H10   S    
C1    O12   A    
C26   H17   S    
O13   Zn1   S    
C14   O6    S    
C10   C16   S    
C28   H22   S    
C1    O10   A    
O15   Zn3   S    
C10   C11   D    
O11   Zn3   S    
C28   H21   S    
C17   O2    A    
C5    C32   A    
C8    H25   S    
O4    Zn3   S    
O8    Zn1   S    
O2    Zn2   S    
O14   Zn2   S    
O1    Zn3   S    
C21   H7    S    
C26   O7    S    
C13   H28   S    
C12   C21   A    
C13   C15   S    
C22   C24   S    
C23   C29   A    
C19   C20   A    
C7    C9    S    
C26   C27   S    
C13   C14   D    
O5    Zn1   S    
C33   H12   S    
C1    C8    S    
C24   H11   S    
O9    Zn4   S    
