data_mof_unit_32610.cif
_audit_creation_date              2012-12-11T15:37:08-0500
_audit_creation_method            fapswitch 2.2
_symmetry_space_group_name_H-M    P1
_symmetry_Int_Tables_number       1
_space_group_crystal_system       triclinic
_cell_length_a                    8.208928
_cell_length_b                    17.347694
_cell_length_c                    18.982243
_cell_angle_alpha                 97.949822
_cell_angle_beta                  94.353801
_cell_angle_gamma                 97.311393
_cell_volume                      2643.37809611

loop_
_atom_site_label
_atom_site_type_symbol
_atom_type_description
_atom_site_fract_x
_atom_site_fract_y
_atom_site_fract_z
_atom_type_partial_charge
Ba1   Ba    Ba6+2 0.162080 0.538580 0.468810 1.663276
Ba2   Ba    Ba6+2 0.648090 0.461410 0.531130 1.644146
C1    C     C_3   0.372266 0.759159 0.219462 -0.354436
C2    C     C_3   0.667067 0.772422 0.436707 -0.038996
C3    C     C_2   0.720067 0.859207 0.458043 -0.106617
C4    C     C_3   0.934427 0.752477 0.315587 0.348296
C5    C     C_2   0.860488 0.886073 0.501192 0.009544
C6    C     C_2   0.949683 0.827154 0.534152 -0.121198
C7    C     C_1   0.887015 0.751296 0.524444 0.051854
C8    C     C_R   0.106531 0.139047 0.530070 -0.127796
C9    C     C_R   0.170101 0.218816 0.539732 0.013691
C10   C     C_R   0.922831 0.248468 0.476710 0.058682
C11   C     C_R   0.859083 0.168044 0.466054 -0.117122
C12   C     C_3   0.393969 0.722589 0.287313 0.361612
C13   C     C_R   0.948546 0.112690 0.494099 0.007499
C14   C     C_2   0.928087 0.971907 0.517263 -0.073610
C15   C     C_2   0.878907 0.027587 0.479826 -0.072431
C16   C     C_3   0.972194 0.833868 0.294545 -0.362025
C17   C     C_R   0.075734 0.273331 0.515726 -0.288859
C18   C     C_R   0.613939 0.534923 0.301719 -0.291728
C19   C     C_R   0.458758 0.493521 0.276776 0.064855
C20   C     C_R   0.402349 0.486691 0.204360 -0.128909
C21   C     C_R   0.502499 0.519893 0.156106 -0.021067
C22   C     C_R   0.662225 0.558431 0.181714 -0.121152
C23   C     C_3   0.560845 0.699622 0.641201 0.319458
C24   C     C_R   0.718278 0.564501 0.254151 0.008139
C25   C     C_R   0.476879 0.573709 0.039999 -0.073218
C26   C     C_R   0.423262 0.565299 0.967240 -0.064958
C27   C     C_R   0.335353 0.493953 0.931332 0.052165
C28   C     C_3   0.757149 0.367324 0.311659 0.326002
C29   C     C_R   0.300254 0.431634 0.970373 -0.070537
C30   C     C_R   0.353759 0.440083 0.043212 -0.056481
C31   C     C_R   0.443437 0.511138 0.078858 0.058846
C32   C     C_R   0.127267 0.443865 0.824481 -0.130412
C33   C     C_R   0.079468 0.436742 0.751006 0.013175
C34   C     C_3   0.593315 0.788469 0.661587 -0.341949
C35   C     C_R   0.341232 0.510018 0.733952 0.040791
C36   C     C_R   0.389686 0.517686 0.807046 -0.093652
C37   C     C_R   0.283800 0.484274 0.853254 -0.004183
C38   C     C_R   0.189044 0.467461 0.706006 -0.289478
C39   C     C_3   0.725369 0.346827 0.230667 -0.039378
C40   C     C_3   0.037643 0.631785 0.689360 0.313176
C41   C     C_3   0.030511 0.648068 0.769957 -0.027638
C42   C     C_3   0.246929 0.301547 0.368649 0.326262
C43   C     C_3   0.219715 0.213016 0.345326 -0.368273
C44   C     C_3   0.853374 0.245155 0.672442 0.352146
C45   C     C_3   0.826461 0.162257 0.690916 -0.354928
C46   C     C_3   0.383244 0.288969 0.714209 0.349991
C47   C     C_3   0.401045 0.264684 0.788012 -0.348936
C48   C     C_2   0.745531 0.723500 0.485823 -0.250986
H1    H     H_    0.313501 0.665091 0.280539 0.095085
H2    H     H_    0.127138 0.197495 0.298030 0.154474
H3    H     H_    0.174339 0.182428 0.388979 0.054190
H4    H     H_    0.337659 0.192588 0.331331 0.126144
H5    H     H_    0.524315 0.711934 0.293814 -0.080467
H6    H     H_    0.406382 0.719405 0.173540 0.073968
H7    H     H_    0.678253 0.678221 0.628372 -0.001890
H8    H     H_    0.470108 0.685650 0.593230 0.070033
H9    H     H_    0.688661 0.804716 0.707824 0.135608
H10   H     H_    0.637512 0.815993 0.615864 0.055415
H11   H     H_    0.477795 0.811165 0.676013 0.152699
H12   H     H_    0.626551 0.295771 0.216289 0.108741
H13   H     H_    0.453329 0.816459 0.225213 0.109879
H14   H     H_    0.919342 0.833656 0.238887 0.118522
H15   H     H_    0.773241 0.246767 0.623012 0.094535
H16   H     H_    0.984550 0.258935 0.662503 -0.061157
H17   H     H_    0.695668 0.146282 0.700732 0.152009
H18   H     H_    0.856556 0.119929 0.645989 0.074775
H19   H     H_    0.907451 0.158485 0.739557 0.116823
H20   H     H_    0.253205 0.298069 0.702412 -0.064181
H21   H     H_    0.465312 0.345219 0.715218 0.091588
H22   H     H_    0.317696 0.209257 0.789120 0.116509
H23   H     H_    0.685226 0.397253 0.207568 0.025383
H24   H     H_    0.367866 0.311413 0.828311 0.068025
H25   H     H_    0.991960 0.754120 0.370845 0.066017
H26   H     H_    0.530423 0.255636 0.801867 0.154495
H27   H     H_    0.783262 0.011312 0.435902 0.070520
H28   H     H_    0.064228 0.847360 0.567879 0.090620
H29   H     H_    0.183562 0.098181 0.548130 0.075797
H30   H     H_    0.023659 0.988843 0.561308 0.075571
H31   H     H_    0.647201 0.898162 0.433967 0.069374
H32   H     H_    0.740941 0.148558 0.435215 0.085633
H33   H     H_    0.693562 0.662177 0.481825 0.070977
H34   H     H_    0.159350 0.615904 0.677490 0.000854
H35   H     H_    0.126231 0.334915 0.523294 0.072638
H36   H     H_    0.508994 0.550313 0.827672 0.078116
H37   H     H_    0.798764 0.738162 0.313644 -0.061829
H38   H     H_    0.449483 0.615069 0.939200 0.099048
H39   H     H_    0.543141 0.629578 0.066101 0.069307
H40   H     H_    0.281228 0.454859 0.185744 0.122015
H41   H     H_    0.234586 0.375668 0.944223 0.073194
H42   H     H_    0.327904 0.390303 0.071276 0.088818
H43   H     H_    0.040911 0.420434 0.859145 0.082695
H44   H     H_    0.744882 0.581042 0.145236 0.082953
H45   H     H_    0.940657 0.581827 0.667858 0.036979
H46   H     H_    0.151362 0.462691 0.649503 0.064375
H47   H     H_    0.658394 0.539039 0.357441 0.069260
H48   H     H_    0.917093 0.877038 0.330934 0.070437
H49   H     H_    0.107487 0.852195 0.298545 0.148187
H50   H     H_    0.644220 0.385268 0.333065 -0.036325
H51   H     H_    0.859766 0.416708 0.325037 0.063475
H52   H     H_    0.912232 0.669476 0.781934 0.102921
H53   H     H_    0.037152 0.593389 0.793368 0.026040
H54   H     H_    0.128110 0.321176 0.380933 0.015089
H55   H     H_    0.336354 0.315304 0.417053 0.056185
H56   H     H_    0.242289 0.768569 0.208403 0.154318
I1    I     I_    0.944106 0.319705 0.183966 -0.440058
I2    I     I_    0.231216 0.733789 0.819764 -0.431283
O1    O     O_2   0.166667 0.691630 0.546720 -0.452986
O2    O     O_2   0.740815 0.440898 0.746650 -0.491090
O3    O     O_3   0.812403 0.298004 0.729188 -0.597292
O4    O     O_3   0.893830 0.593690 0.541700 -0.501456
O5    O     O_3   0.426330 0.460710 0.414310 -0.494603
O6    O     O_2   0.638540 0.536570 0.671920 -0.467814
O7    O     O_3   0.499540 0.666121 0.698759 -0.609687
O8    O     O_2   0.507479 0.217290 0.531593 -0.490556
O9    O     O_3   0.428180 0.230168 0.663650 -0.598154
O10   O     O_3   0.390350 0.644650 0.417800 -0.487967
O11   O     O_2   0.352159 0.785265 0.486192 -0.479277
O12   O     O_3   0.307075 0.337471 0.312508 -0.614283
O13   O     O_3   0.013201 0.699658 0.660243 -0.619721
O14   O     O_3   0.351244 0.772946 0.345844 -0.594905
O15   O     O_2   0.171750 0.463380 0.328050 -0.446544
O16   O     O_3   0.965290 0.605410 0.380210 -0.490363
O17   O     O_2   0.051786 0.551776 0.251555 -0.471524
O18   O     O_3   0.997829 0.697419 0.267685 -0.600558
O19   O     O_2   0.643630 0.308330 0.453260 -0.463284
O20   O     O_3   0.916470 0.406310 0.458240 -0.500202
O21   O     O_3   0.419940 0.355340 0.582140 -0.487724
O22   O     O_3   0.795916 0.300834 0.339753 -0.622985
O23   O     O_3   0.383960 0.539280 0.585630 -0.481644
O24   O     O_3   0.845010 0.394580 0.619730 -0.488957
P1    P     P_3+3 0.992230 0.679190 0.566750 0.991712
P2    P     P_3+3 0.339610 0.439630 0.337240 1.008019
P3    P     P_3+3 0.932731 0.603598 0.287717 0.952706
P4    P     P_3+3 0.818060 0.320800 0.433200 0.988791
P5    P     P_3+3 0.869794 0.393868 0.712202 0.947043
P6    P     P_3+3 0.438970 0.745882 0.424038 0.957719
P7    P     P_3+3 0.464143 0.563870 0.674967 0.964228
P8    P     P_3+3 0.382234 0.253751 0.578326 0.947579

loop_
_geom_bond_atom_site_label_1
_geom_bond_atom_site_label_2
_ccdc_geom_bond_type
C12   O14   S    
C19   P2    S    
Ba1   O20   S    
O4    P1    S    
C34   H9    S    
C42   H54   S    
C4    H25   S    
C42   H55   S    
C25   C31   A    
C9    C17   A    
Ba1   O5    S    
C36   H36   S    
C26   C27   A    
C22   C24   A    
C32   C33   A    
C35   C38   A    
C8    C13   A    
O20   P4    S    
Ba1   O4    S    
C36   C37   A    
Ba2   O5    S    
C42   O12   S    
C28   H50   S    
Ba2   O21   S    
C10   C17   A    
Ba1   Ba2   S    
C45   H19   S    
C24   P3    S    
Ba1   O1    S    
C18   H47   S    
C29   C30   A    
C14   C15   D    
C21   C31   S    
C47   H22   S    
C26   H38   S    
Ba2   O24   S    
C21   C22   A    
C32   H43   S    
C28   C39   S    
C41   I2    S    
Ba2   O19   S    
O17   P3    D    
C12   H5    S    
C43   H3    S    
C44   O3    S    
C6    H28   S    
C23   H7    S    
C39   H12   S    
C38   H46   S    
Ba1   P1    S    
C45   H17   S    
C48   H33   S    
C1    H56   S    
C4    C16   S    
O15   P2    D    
O1    P1    D    
C32   C37   A    
C5    C6    S    
C40   H34   S    
O19   P4    D    
C4    O18   S    
C44   H15   S    
C3    C5    D    
C6    C7    D    
C43   H2    S    
C34   H10   S    
O24   P5    S    
C28   O22   S    
C2    P6    S    
C11   H32   S    
Ba2   P4    S    
C4    H37   S    
C40   H45   S    
C2    C48   S    
C14   H30   S    
C9    P8    S    
Ba1   O15   S    
C35   C36   A    
C22   H44   S    
C3    H31   S    
C1    H6    S    
C12   H1    S    
Ba2   O4    S    
C27   C37   S    
C15   H27   S    
Ba2   O23   S    
C20   H40   S    
C47   H26   S    
O6    P7    D    
C10   C11   A    
O14   P6    S    
C1    C12   S    
C46   C47   S    
O7    P7    S    
O18   P3    S    
C29   H41   S    
O5    P2    S    
C11   C13   A    
C10   P4    S    
O9    P8    S    
C40   C41   S    
C46   H21   S    
Ba1   P2    S    
C45   H18   S    
C42   C43   S    
O3    P5    S    
C23   H8    S    
C13   C15   S    
C44   C45   S    
C5    C14   S    
C39   I1    S    
O16   P3    S    
C47   H24   S    
O11   P6    D    
O2    P5    D    
O22   P4    S    
C7    C48   D    
C46   H20   S    
C2    C3    S    
C17   H35   S    
C16   H49   S    
C43   H4    S    
C8    H29   S    
C44   H16   S    
C46   O9    S    
C1    H13   S    
C30   C31   A    
C23   O7    S    
C33   C38   A    
C41   H52   S    
C27   C29   A    
O10   P6    S    
C33   P5    S    
Ba2   O6    S    
C16   H14   S    
C30   H42   S    
O21   P8    S    
C18   C24   A    
Ba1   O23   S    
C28   H51   S    
C25   H39   S    
O12   P2    S    
Ba1   O10   S    
C41   H53   S    
Ba1   O16   S    
O23   P7    S    
C8    C9    A    
C23   C34   S    
C39   H23   S    
C18   C19   A    
C35   P7    S    
C25   C26   A    
C20   C21   A    
C16   H48   S    
O13   P1    S    
C19   C20   A    
C34   H11   S    
C40   O13   S    
C7    P1    S    
O8    P8    D    
Ba2   O20   S    
