data_mof_unit_31049.cif
_audit_creation_date              2013-03-05T15:50:44-0500
_audit_creation_method            fapswitch 2.2
_symmetry_space_group_name_H-M    P1
_symmetry_Int_Tables_number       1
_space_group_crystal_system       triclinic
_cell_length_a                    22.982097
_cell_length_b                    7.462974
_cell_length_c                    20.557754
_cell_angle_alpha                 91.363271
_cell_angle_beta                  93.316451
_cell_angle_gamma                 88.25343
_cell_volume                      3517.56104211

loop_
_atom_site_label
_atom_site_type_symbol
_atom_site_description
_atom_site_fract_x
_atom_site_fract_y
_atom_site_fract_z
_atom_type_partial_charge
O1    O     O_R   0.438030 0.494310 0.439340 -0.554393
O2    O     O_R   0.561970 0.994310 0.560660 -0.563166
O3    O     O_R   0.556900 0.822900 0.435960 -0.550503
O4    O     O_R   0.443100 0.322900 0.564040 -0.555934
C1    C     C_R   0.575045 0.652122 0.421460 0.931515
C2    C     C_R   0.424682 0.158503 0.578581 0.941935
O5    O     O_R   0.438170 0.823950 0.431660 -0.597139
O6    O     O_R   0.561830 0.323950 0.568340 -0.590294
O7    O     O_R   0.442390 0.995390 0.556340 -0.561519
O8    O     O_R   0.557610 0.495390 0.443660 -0.569582
C3    C     C_R   0.419146 0.656309 0.416379 0.976187
C4    C     C_R   0.580743 0.155329 0.583725 0.979476
O9    O     O_3   0.501520 0.661170 0.540910 -0.285238
O10   O     O_3   0.498480 0.161170 0.459090 -0.288054
V1    V     V_3+5 0.499720 0.935580 0.492410 1.275263
V2    V     V_3+5 0.500280 0.435580 0.507590 1.285611
C5    C     C_R   0.813653 0.136314 0.887401 -0.035224
C6    C     C_R   0.184897 0.644227 0.113814 -0.050481
C7    C     C_R   0.869268 0.083983 0.867586 -0.216524
C8    C     C_R   0.131302 0.581121 0.131847 -0.190950
C9    C     C_R   0.878028 0.044035 0.801701 -0.023126
C10   C     C_R   0.124175 0.530036 0.195897 -0.036316
C11   C     C_R   0.830391 0.054466 0.754148 0.124586
C12   C     C_R   0.171402 0.542943 0.244370 0.102540
C13   C     C_R   0.773951 0.109970 0.773791 -0.045115
C14   C     C_R   0.225674 0.610678 0.226479 -0.030972
C15   C     C_R   0.765624 0.153167 0.840653 0.137322
C16   C     C_R   0.232150 0.663875 0.161126 0.135390
C17   C     C_R   0.837982 0.012897 0.687364 -0.032172
C18   C     C_R   0.165827 0.494069 0.310134 -0.049895
C19   C     C_R   0.790627 0.026043 0.640812 0.002026
C20   C     C_R   0.212760 0.511683 0.356927 0.021426
C21   C     C_R   0.733932 0.075898 0.659913 -0.027657
C22   C     C_R   0.267574 0.570481 0.339020 -0.035512
C23   C     C_R   0.725845 0.122276 0.726578 -0.056327
C24   C     C_R   0.273588 0.625015 0.273837 -0.059038
C25   C     C_R   0.669664 0.181449 0.745967 0.146752
C26   C     C_R   0.327513 0.694522 0.256090 0.141941
C27   C     C_R   0.662356 0.227240 0.812483 -0.039587
C28   C     C_R   0.332357 0.753204 0.191520 -0.036879
C29   C     C_R   0.709599 0.213051 0.859141 -0.051660
C30   C     C_R   0.285441 0.737793 0.144712 -0.051631
C31   C     C_R   0.685133 0.083346 0.613839 0.308214
C32   C     C_R   0.316374 0.579074 0.385032 0.317266
C33   C     C_R   0.630396 0.145543 0.632894 -0.330784
C34   C     C_R   0.369126 0.648809 0.367473 -0.331229
C35   C     C_R   0.622223 0.194354 0.698223 -0.046998
C36   C     C_R   0.375187 0.705205 0.303527 -0.043239
C37   C     C_3   0.238610 0.301371 0.804934 0.398138
C38   C     C_3   0.752691 0.822023 0.201716 0.418357
C39   C     C_3   0.259802 0.952562 0.809689 0.075604
C40   C     C_3   0.745149 0.480984 0.179761 0.058806
C41   C     C_3   0.302114 0.951005 0.749195 0.035964
C42   C     C_3   0.699143 0.461187 0.234155 0.044782
H1    H     H_    0.285074 0.842544 0.717611 0.145288
H2    H     H_    0.712886 0.340376 0.259765 0.169342
C43   C     C_1   0.379425 0.155439 0.624755 -0.136031
C44   C     C_1   0.619705 0.631429 0.374880 -0.124914
C45   C     C_3   0.210084 0.107005 0.795642 -0.143162
C46   C     C_3   0.789317 0.632824 0.203708 -0.141312
C47   C     C_3   0.298560 0.290059 0.765491 0.079814
C48   C     C_3   0.695045 0.802829 0.246476 0.078497
C49   C     C_3   0.294148 0.132270 0.710252 -0.116498
C50   C     C_3   0.703557 0.621745 0.287326 -0.141935
C51   C     C_3   0.232332 0.125113 0.669950 -0.010069
C52   C     C_3   0.765809 0.601766 0.327514 0.000635
C53   C     C_3   0.182789 0.085176 0.720688 -0.027554
C54   C     C_3   0.817275 0.600007 0.276847 -0.070971
C55   C     C_1   0.341391 0.146913 0.663162 0.183904
C56   C     C_1   0.657216 0.617208 0.335693 0.262748
C57   C     C_1   0.160990 0.086397 0.840103 0.234505
C58   C     C_1   0.839179 0.621860 0.159322 0.253686
C59   C     C_1   0.121480 0.074915 0.876536 -0.193702
C60   C     C_1   0.878819 0.600153 0.123070 -0.219845
O11   O     O_R   0.942420 0.735670 0.056390 -0.558449
O12   O     O_R   0.057580 0.235670 0.943610 -0.547703
O13   O     O_R   0.061840 0.404850 0.068350 -0.574660
O14   O     O_R   0.938160 0.904850 0.931650 -0.581209
C61   C     C_R   0.081265 0.572562 0.083037 0.917929
C62   C     C_R   0.919053 0.073609 0.916554 0.886832
O15   O     O_R   0.943100 0.406010 0.064050 -0.584449
O16   O     O_R   0.056900 0.906010 0.935950 -0.588946
O17   O     O_R   0.938020 0.234710 0.939330 -0.588025
O18   O     O_R   0.061980 0.734710 0.060670 -0.593260
C63   C     C_R   0.924926 0.577888 0.078315 0.928327
C64   C     C_R   0.075273 0.071476 0.921536 0.914360
O19   O     O_3   0.998500 0.567790 0.959120 -0.288127
O20   O     O_3   0.001500 0.067790 0.040880 -0.289978
V3    V     V_3+5 0.000280 0.293330 0.007580 1.195640
V4    V     V_3+5 0.999720 0.793330 0.992420 1.195022
N1    N     N_3   0.806034 0.168334 0.955696 -0.165097
H3    H     H_    0.819531 0.053576 0.981320 0.163437
H4    H     H_    0.831509 0.275567 0.972309 0.153695
N2    N     N_3   0.191713 0.682265 0.046453 -0.169548
H5    H     H_    0.164137 0.790360 0.032702 0.147197
H6    H     H_    0.180776 0.569539 0.017677 0.173517
N3    N     N_R   0.250209 0.355142 0.875067 0.243792
O21   O     O_R   0.209290 0.341053 0.915724 -0.352297
O22   O     O_R   0.287461 0.478333 0.891081 -0.385653
N4    N     N_R   0.735973 0.870718 0.132770 0.246909
O23   O     O_R   0.774468 0.856083 0.088785 -0.357617
O24   O     O_R   0.691577 0.977013 0.118458 -0.364714
N5    N     N_3   0.230481 0.782431 0.809675 -0.167495
H7    H     H_    0.262715 0.683408 0.810843 0.233368
H8    H     H_    0.208659 0.770075 0.852568 0.192845
N6    N     N_3   0.776427 0.307893 0.173905 -0.173608
H9    H     H_    0.746387 0.216488 0.155511 0.236101
H10   H     H_    0.808174 0.308109 0.139585 0.175092
N7    N     N_R   0.290920 0.968599 0.875137 0.260937
O25   O     O_R   0.329674 0.844843 0.891643 -0.267167
O26   O     O_R   0.263033 0.036109 0.923529 -0.370481
N8    N     N_R   0.718861 0.520455 0.113160 0.282665
O27   O     O_R   0.666287 0.586715 0.102416 -0.307054
O28   O     O_R   0.749500 0.488908 0.062535 -0.389178
N9    N     N_R   0.364761 0.894089 0.758553 0.289309
O29   O     O_R   0.397126 0.922187 0.811523 -0.311609
O30   O     O_R   0.390478 0.823305 0.708807 -0.337290
N10   N     N_R   0.639728 0.417704 0.207075 0.296404
O31   O     O_R   0.634575 0.304395 0.158056 -0.267069
O32   O     O_R   0.595049 0.436068 0.242995 -0.392382
N11   N     N_3   0.132067 0.210371 0.709598 -0.131251
H11   H     H_    0.099156 0.181369 0.740412 0.130784
H12   H     H_    0.112865 0.190724 0.662723 0.088394
N12   N     N_3   0.859281 0.741388 0.295266 -0.156642
H13   H     H_    0.894344 0.733196 0.264979 0.150552
H14   H     H_    0.877912 0.720059 0.342188 0.081335
N13   N     N_3   0.159817 0.902892 0.710954 -0.192769
H15   H     H_    0.191660 0.813057 0.695956 0.186522
H16   H     H_    0.126773 0.898817 0.673823 0.099199
N14   N     N_3   0.852486 0.431353 0.277620 -0.212804
H17   H     H_    0.826754 0.321920 0.276893 0.209561
H18   H     H_    0.879375 0.422945 0.320316 0.092952
N15   N     N_3   0.220403 0.296441 0.637182 -0.096280
H19   H     H_    0.181638 0.291601 0.608153 0.107291
H20   H     H_    0.251630 0.312974 0.602899 0.197746
N16   N     N_3   0.771737 0.749100 0.376622 -0.128871
H21   H     H_    0.785641 0.867076 0.358605 0.224782
H22   H     H_    0.802607 0.716325 0.414202 0.101490
N17   N     N_R   0.194774 0.435667 0.779774 0.219980
O33   O     O_R   0.148321 0.471591 0.811740 -0.397573
O34   O     O_R   0.199429 0.517707 0.725726 -0.440330
N18   N     N_R   0.792749 0.962050 0.225980 0.211951
O35   O     O_R   0.839440 0.991185 0.195167 -0.426251
O36   O     O_R   0.783545 0.059346 0.277298 -0.502763
N19   N     N_R   0.313797 0.465140 0.739854 0.249122
O37   O     O_R   0.304566 0.505914 0.678964 -0.368054
O38   O     O_R   0.351972 0.557924 0.774026 -0.346023
N20   N     N_R   0.682590 0.963801 0.288626 0.260253
O39   O     O_R   0.685533 0.961743 0.351921 -0.354792
O40   O     O_R   0.652887 0.096918 0.263003 -0.359682
N21   N     N_3   0.935992 0.996428 0.783258 -0.203091
H23   H     H_    0.950260 0.878981 0.806699 0.134222
H24   H     H_    0.963930 0.099823 0.797788 0.087721
N22   N     N_3   0.067473 0.469472 0.209531 -0.214872
H25   H     H_    0.070361 0.336078 0.224018 0.138066
H26   H     H_    0.048672 0.554897 0.243991 0.108982
N23   N     N_3   0.233765 0.991076 0.615324 -0.220306
H27   H     H_    0.191934 0.970058 0.594316 0.097908
H28   H     H_    0.255424 0.868837 0.623804 0.169665
N24   N     N_3   0.767530 0.438634 0.367806 -0.186669
H29   H     H_    0.807909 0.422595 0.393468 0.104389
H30   H     H_    0.758456 0.317419 0.344752 0.189456
N25   N     N_3   0.894213 0.955815 0.666067 -0.204306
H31   H     H_    0.891541 0.827725 0.644640 0.106784
H32   H     H_    0.907853 0.045867 0.632311 0.099342
N26   N     N_3   0.112265 0.425433 0.330502 -0.230434
H33   H     H_    0.119878 0.296537 0.348508 0.105943
H34   H     H_    0.095564 0.509856 0.366623 0.095494
N27   N     N_3   0.801060 0.993544 0.573223 -0.159092
H35   H     H_    0.830941 0.084932 0.558424 0.107318
H36   H     H_    0.817568 0.862766 0.566644 0.125064
N28   N     N_3   0.203559 0.475006 0.423839 -0.163583
H37   H     H_    0.191446 0.342068 0.427813 0.126984
H38   H     H_    0.170838 0.561644 0.440594 0.103765
N29   N     N_R   0.689860 0.025228 0.547240 0.234192
O41   O     O_R   0.689508 0.854906 0.532181 -0.396058
O42   O     O_R   0.686099 0.142011 0.501068 -0.372080
N30   N     N_R   0.313856 0.512899 0.449797 0.230997
O43   O     O_R   0.317959 0.341134 0.459395 -0.416596
O44   O     O_R   0.315616 0.623931 0.499600 -0.396698
N31   N     N_3   0.564917 0.251890 0.716081 -0.184945
H39   H     H_    0.535413 0.151739 0.702653 0.108607
H40   H     H_    0.552451 0.369074 0.691466 0.147909
N32   N     N_3   0.430980 0.765301 0.286173 -0.186859
H41   H     H_    0.462918 0.666042 0.297143 0.110194
H42   H     H_    0.440987 0.882589 0.312688 0.149877
N33   N     N_3   0.606493 0.289326 0.833421 -0.188534
H43   H     H_    0.592376 0.202547 0.868016 0.145752
H44   H     H_    0.609901 0.418567 0.853692 0.136503
N34   N     N_3   0.385081 0.832004 0.172981 -0.190912
H45   H     H_    0.402393 0.756216 0.134914 0.146386
H46   H     H_    0.376063 0.963356 0.158119 0.129624
N35   N     N_3   0.700309 0.263028 0.925802 -0.161348
H47   H     H_    0.686531 0.397570 0.928648 0.167022
H48   H     H_    0.668762 0.182110 0.943583 0.169416
N36   N     N_3   0.291984 0.802184 0.080235 -0.167228
H49   H     H_    0.300210 0.939180 0.082687 0.150603
H50   H     H_    0.326440 0.732174 0.059137 0.174828
N37   N     N_3   0.348791 0.235951 0.810203 -0.166416
H51   H     H_    0.386576 0.234987 0.783996 0.168114
H52   H     H_    0.359048 0.322303 0.849116 0.230891
N38   N     N_3   0.640787 0.779248 0.204536 -0.141576
H53   H     H_    0.606525 0.754899 0.234042 0.144025
H54   H     H_    0.624480 0.895462 0.182410 0.243022

loop_
_geom_bond_atom_site_label_1
_geom_bond_atom_site_label_2
_geom_bond_distance
_ccdc_geom_bond_type
C52   C54   1.620214 S    
C49   C51   1.604336 S    
N34   H45   1.044930 S    
C58   C60   1.214661 T    
C41   C49   1.588688 S    
N27   H35   1.044944 S    
C17   N25   1.437449 S    
N25   H31   1.044999 S    
O1    C3    1.358052 A    
C35   N31   1.437932 S    
O2    C4    1.354928 A    
C45   C57   1.506207 S    
C54   N12   1.479671 S    
C2    O7    1.349585 A    
N8    O28   1.302842 A    
N19   O37   1.299207 A    
C27   C29   1.409756 A    
N31   H39   1.045954 S    
O14   V4    2.007040 S    
O5    C3    1.361557 A    
O13   V3    2.018121 S    
N23   H27   1.045589 S    
N38   H54   1.038646 S    
C1    C44   1.446112 S    
C11   C17   1.419769 A    
C23   C25   1.427378 A    
N20   O40   1.293182 A    
N7    O26   1.297887 A    
C61   O18   1.357359 A    
O14   C62   1.358109 A    
N6    H9    1.034970 S    
C40   N8    1.496339 S    
C39   N5    1.455441 S    
N9    O29   1.299229 A    
N32   H41   1.045949 S    
N11   H12   1.045394 S    
C33   C35   1.404777 A    
C47   C49   1.617680 S    
C47   N19   1.479758 S    
N10   O31   1.302445 A    
C48   N38   1.486941 S    
C48   C50   1.608963 S    
C40   C46   1.594540 S    
O11   V4    1.977523 S    
C45   C53   1.636099 S    
C31   N29   1.435446 S    
O11   C63   1.351462 A    
C49   C55   1.503914 S    
C40   C42   1.595107 S    
C51   C53   1.626696 S    
C5    N1    1.438362 S    
C29   N35   1.437832 S    
N21   H23   1.045134 S    
C19   C21   1.418831 A    
C50   C56   1.500129 S    
C25   C35   1.426770 A    
C26   C36   1.426825 A    
O12   V3    1.946189 S    
C27   N33   1.437497 S    
C11   C13   1.427253 A    
C20   N28   1.437665 S    
C40   N6    1.464886 S    
N37   H51   1.047832 S    
C39   N7    1.490717 S    
C48   N20   1.494722 S    
N21   H24   1.045924 S    
N26   H34   1.044825 S    
C51   N15   1.470389 S    
N27   H36   1.044923 S    
C2    C43   1.449156 S    
C47   N37   1.485634 S    
C7    C62   1.481057 S    
O18   V4    1.991512 S    
C62   O17   1.355096 A    
C53   N11   1.482166 S    
C52   N24   1.486983 S    
N8    O27   1.300418 A    
N19   O38   1.298189 A    
N28   H38   1.044943 S    
N3    O21   1.301992 A    
C12   C18   1.422529 A    
C41   H1    1.093182 S    
O17   V3    1.996005 S    
C42   H2    1.084360 S    
C37   C47   1.637632 S    
N38   H53   1.044129 S    
C5    C15   1.425596 A    
N30   O43   1.301359 A    
C6    C16   1.423923 A    
N20   O39   1.299473 A    
C18   N26   1.435708 S    
N29   O42   1.301275 A    
N3    O22   1.299056 A    
N31   H40   1.044978 S    
C32   N30   1.435929 S    
N1    H3    1.045743 S    
C36   N32   1.438105 S    
C44   C56   1.214155 T    
O5    V1    2.018077 S    
C19   N27   1.437334 S    
N9    O30   1.303625 A    
O16   C64   1.361867 A    
C39   C41   1.622000 S    
C20   C22   1.417760 A    
C25   C27   1.419742 A    
O4    V2    2.017678 S    
N14   H18   1.045817 S    
C54   N14   1.475366 S    
N13   H16   1.045739 S    
C18   C20   1.410203 A    
C53   N13   1.479186 S    
N1    H4    1.045123 S    
C15   C29   1.419670 A    
N30   O44   1.301306 A    
N29   O41   1.301246 A    
O6    C4    1.357298 A    
N35   H48   1.044908 S    
N11   H11   1.045059 S    
O13   C61   1.362913 A    
C22   C32   1.426682 A    
N5    H8    1.046622 S    
O1    V2    1.991536 S    
N2    H6    1.045407 S    
O2    V1    1.996031 S    
C31   C33   1.401507 A    
C46   C54   1.621633 S    
N22   H25   1.044964 S    
C46   C58   1.504737 S    
C13   C23   1.430624 A    
C52   N16   1.478915 S    
C30   N36   1.438139 S    
N36   H50   1.044940 S    
C8    C10   1.399499 A    
C37   N17   1.479793 S    
N26   H33   1.045061 S    
C38   C48   1.667714 S    
C10   C12   1.434233 A    
O19   V4    1.802336 S    
O4    C2    1.355559 A    
C39   C45   1.617061 S    
C5    C7    1.405136 A    
N13   H15   1.032703 S    
C42   N10   1.486673 S    
O12   C64   1.355481 A    
N18   O36   1.290346 A    
O3    V1    1.960468 S    
N28   H37   1.044883 S    
N16   H22   1.046426 S    
N12   H14   1.046188 S    
N4    O24   1.297664 A    
C10   N22   1.437078 S    
C14   C24   1.431805 A    
N34   H46   1.044893 S    
C8    C61   1.483651 S    
N25   H32   1.044839 S    
O10   V1    1.831428 S    
N22   H26   1.045049 S    
N24   H30   1.032530 S    
C12   C14   1.430688 A    
N36   H49   1.044894 S    
O3    C1    1.360536 A    
C37   C45   1.612664 S    
N23   H28   1.039355 S    
N17   O33   1.303366 A    
C4    C33   1.481290 S    
C13   C15   1.426708 A    
C51   N23   1.487154 S    
C14   C16   1.427211 A    
O16   V4    2.017934 S    
C38   C46   1.621792 S    
N24   H29   1.045652 S    
C9    C11   1.426505 A    
N14   H17   1.022146 S    
O7    V1    1.949121 S    
O15   V3    1.960725 S    
C1    O8    1.346157 A    
C17   C19   1.409736 A    
O8    V2    1.981563 S    
N7    O25   1.300467 A    
C24   C26   1.427770 A    
C26   C28   1.419142 A    
N17   O34   1.292672 A    
N15   H19   1.044320 S    
N6    H10   1.043945 S    
C6    N2    1.438499 S    
C16   C30   1.419867 A    
N4    O23   1.301614 A    
C21   C23   1.426717 A    
C22   C24   1.425204 A    
N32   H42   1.044638 S    
C6    C8    1.404596 A    
C9    N21   1.437968 S    
C60   C63   1.446279 S    
N2    H5    1.044647 S    
N10   O32   1.301056 A    
C38   N4    1.497207 S    
N33   H44   1.044890 S    
C37   N3    1.498436 S    
C34   C36   1.405611 A    
C41   N9    1.491610 S    
N33   H43   1.044939 S    
C28   N34   1.437651 S    
O20   V3    1.830933 S    
C42   C50   1.604106 S    
O6    V2    2.006980 S    
N35   H47   1.044912 S    
O9    V2    1.802839 S    
C57   C59   1.216267 T    
N5    H7    1.030013 S    
N37   H52   1.036203 S    
N15   H20   1.046425 S    
C28   C30   1.408555 A    
N18   O35   1.303598 A    
N16   H21   1.029967 S    
C3    C34   1.484236 S    
C59   C64   1.449356 S    
C43   C55   1.215385 T    
C21   C31   1.426105 A    
C32   C34   1.403212 A    
O15   C63   1.367278 A    
C38   N18   1.472798 S    
C50   C52   1.614825 S    
N12   H13   1.045945 S    
C7    C9    1.404480 A    
