data_mof_unit_30424.cif
_audit_creation_date              2012-12-10T17:51:29-0500
_audit_creation_method            fapswitch 2.2
_symmetry_space_group_name_H-M    P1
_symmetry_Int_Tables_number       1
_space_group_crystal_system       triclinic
_cell_length_a                    9.935084
_cell_length_b                    10.608868
_cell_length_c                    16.682263
_cell_angle_alpha                 89.928212
_cell_angle_beta                  83.705668
_cell_angle_gamma                 91.539465
_cell_volume                      1747.06457656

loop_
_atom_site_label
_atom_site_type_symbol
_atom_type_description
_atom_site_fract_x
_atom_site_fract_y
_atom_site_fract_z
_atom_type_partial_charge
C1    C     C_R   0.501384 0.739303 0.498971 0.907324
C2    C     C_R   0.537771 0.464238 0.262741 -0.106011
C3    C     C_R   0.428545 0.864723 0.648883 -0.160948
C4    C     C_R   0.479763 0.497947 0.652995 0.815093
C5    C     C_R   0.381976 0.927571 0.719497 -0.109465
C6    C     C_R   0.366777 0.057552 0.718320 -0.100856
C7    C     C_R   0.400946 0.125220 0.646927 -0.175533
C8    C     C_R   0.451287 0.063184 0.575460 0.110172
C9    C     C_R   0.461192 0.931935 0.575709 0.086878
C10   C     C_R   0.501902 0.871750 0.502071 -0.146132
C11   C     C_R   0.530009 0.938175 0.429422 0.177812
C12   C     C_R   0.396622 0.546363 0.794467 -0.185608
C13   C     C_R   0.529773 0.067239 0.430942 -0.192560
C14   C     C_R   0.492486 0.128320 0.503119 -0.130054
C15   C     C_R   0.869117 0.716962 0.549347 0.171686
C16   C     C_R   0.498009 0.260730 0.500717 0.865794
C17   C     C_R   0.915593 0.790203 0.611046 0.167005
C18   C     C_R   0.042536 0.766953 0.635530 -0.237375
C19   C     C_R   0.121362 0.672478 0.597717 -0.180510
C20   C     C_R   0.066359 0.589608 0.543291 0.163280
C21   C     C_R   0.926510 0.599133 0.533421 0.077274
C22   C     C_R   0.932253 0.406221 0.464903 -0.063679
C23   C     C_R   0.496652 0.314098 0.158545 0.440995
C24   C     C_R   0.075977 0.409026 0.462091 -0.075060
C25   C     C_R   0.520542 0.496577 0.347070 0.910987
C26   C     C_R   0.465593 0.467881 0.737762 -0.013488
C27   C     C_R   0.523159 0.357075 0.761858 -0.199708
C28   C     C_R   0.513794 0.325391 0.842705 -0.018715
C29   C     C_R   0.459855 0.410996 0.900209 0.181147
C30   C     C_R   0.395651 0.518782 0.876143 -0.122091
C31   C     C_R   0.470597 0.356274 0.237572 -0.250769
C32   C     C_R   0.634228 0.529046 0.210009 -0.161940
C33   C     C_R   0.655855 0.491947 0.130190 -0.117459
C34   C     C_R   0.586601 0.385700 0.103650 -0.069623
C35   C     C_2   0.472547 0.392939 0.985596 -0.311031
C36   C     C_2   0.589230 0.368507 0.016684 0.469374
H1    H     H_    0.575181 0.294974 0.717989 0.164860
H2    H     H_    0.083848 0.827276 0.679613 0.190953
H3    H     H_    0.221538 0.663402 0.614313 0.203635
H4    H     H_    0.133248 0.335378 0.430557 0.159629
H5    H     H_    0.690177 0.609821 0.230118 0.190045
H6    H     H_    0.349425 0.583556 0.920480 0.151980
H7    H     H_    0.349503 0.630810 0.775832 0.126387
H8    H     H_    0.384682 0.418814 0.026483 0.163555
H9    H     H_    0.552727 0.236652 0.860204 0.197523
H10   H     H_    0.959445 0.359521 0.982165 0.395877
H11   H     H_    0.336079 0.002606 0.192318 0.402956
H12   H     H_    0.722764 0.549235 0.088365 0.207765
H13   H     H_    0.438674 0.763772 0.652033 0.110470
H14   H     H_    0.356552 0.875234 0.775064 0.146951
H15   H     H_    0.328843 0.106140 0.772852 0.158863
H16   H     H_    0.386254 0.225736 0.647821 0.139321
H17   H     H_    0.555537 0.120248 0.375463 0.177816
H18   H     H_    0.881969 0.329928 0.435969 0.163581
H19   H     H_    0.400888 0.303140 0.280301 0.191796
I1    I     I_    0.564884 0.850374 0.314903 -0.261041
I2    I     I_    0.872074 0.826151 0.441956 -0.256686
I3    I     I_    0.811025 0.951366 0.655385 -0.292728
N1    N     N_R   0.857140 0.501200 0.500750 -0.111618
N2    N     N_R   0.142740 0.501280 0.500770 -0.111941
O1    O     O_R   0.385310 0.683220 0.500000 -0.622956
O2    O     O_2   0.768664 0.441931 0.890844 -0.300107
O3    O     O_3   0.874750 0.370687 0.018391 -0.533730
O4    O     O_2   0.285007 0.203366 0.098297 -0.294911
O5    O     O_2   0.505265 0.104977 0.067394 -0.256049
O6    O     O_3   0.381175 0.078930 0.212274 -0.541266
O7    O     O_R   0.614640 0.683250 0.500010 -0.593139
O8    O     O_R   0.371780 0.500010 0.615800 -0.642509
O9    O     O_R   0.601110 0.500030 0.615800 -0.590949
O10   O     O_R   0.385360 0.316750 0.499990 -0.620409
O11   O     O_R   0.614690 0.316780 0.500000 -0.608860
O12   O     O_R   0.398890 0.499970 0.384200 -0.600026
O13   O     O_R   0.628220 0.499990 0.384200 -0.597940
O14   O     O_2   0.757230 0.216890 0.926608 -0.260851
S1    S     S_3+6 0.749370 0.348687 0.959347 0.043733
S2    S     S_3+6 0.415515 0.172672 0.130827 0.034185
Zn1   Zn    Zn3+2 0.346870 0.499980 0.499990 0.964531
Zn2   Zn    Zn3+2 0.653130 0.500020 0.500010 0.995098

loop_
_geom_bond_atom_site_label_1
_geom_bond_atom_site_label_2
_ccdc_geom_bond_type
C35   C36   D    
C23   S2    S    
C3    H13   S    
C7    C8    A    
C22   H18   S    
O7    Zn2   S    
C26   C27   A    
C29   C30   A    
O5    S2    D    
C28   C29   A    
C7    H16   S    
C21   N1    A    
C12   H7    S    
C5    C6    A    
C2    C32   A    
C18   C19   A    
C24   H4    S    
C19   C20   A    
O1    Zn1   S    
C8    C9    A    
O13   Zn2   S    
C14   C16   S    
C6    H15   S    
C20   N2    A    
C9    C10   A    
H11   O6    S    
C25   O13   A    
C17   I3    S    
C13   C14   A    
O10   Zn1   S    
C15   I2    S    
O9    Zn2   S    
C16   O11   A    
N1    Zn2   S    
C4    O9    A    
C33   C34   A    
C13   H17   S    
C28   H9    S    
N2    Zn1   S    
O14   S1    D    
C16   O10   A    
C22   N1    A    
C4    O8    A    
C12   C26   A    
C2    C31   A    
C23   C31   A    
O12   Zn1   S    
C3    C9    A    
C36   S1    S    
C24   N2    A    
C23   C34   A    
O6    S2    S    
C17   C18   A    
O4    S2    D    
C25   O12   A    
C35   H8    S    
C19   H3    S    
C22   C24   A    
C5    H14   S    
C32   H5    S    
O8    Zn1   S    
C15   C17   A    
C8    C14   A    
C12   C30   A    
C1    C10   S    
C3    C5    A    
C1    O1    A    
C4    C26   S    
C6    C7    A    
C29   C35   S    
H10   O3    S    
C32   C33   A    
C18   H2    S    
C11   C13   A    
O3    S1    S    
C27   H1    S    
C1    O7    A    
C2    C25   S    
C34   C36   S    
O2    S1    D    
C10   C11   A    
C15   C21   A    
C20   C21   A    
C27   C28   A    
C33   H12   S    
C30   H6    S    
C31   H19   S    
O11   Zn2   S    
C11   I1    S    
