data_mof_unit_18479.cif
_audit_creation_date              2013-03-05T15:42:47-0500
_audit_creation_method            fapswitch 2.2
_symmetry_space_group_name_H-M    P1
_symmetry_Int_Tables_number       1
_space_group_crystal_system       triclinic
_cell_length_a                    6.924298
_cell_length_b                    14.811951
_cell_length_c                    16.204249
_cell_angle_alpha                 90.243
_cell_angle_beta                  90.859638
_cell_angle_gamma                 90.238544
_cell_volume                      1661.72921538

loop_
_atom_site_label
_atom_site_type_symbol
_atom_site_description
_atom_site_fract_x
_atom_site_fract_y
_atom_site_fract_z
_atom_type_partial_charge
O1    O     O_R   0.494400 0.416610 0.413880 -0.563066
O2    O     O_R   0.823920 0.406790 0.585520 -0.514811
O3    O     O_R   0.994250 0.583390 0.586120 -0.565275
C1    C     C_R   0.655459 0.382019 0.611123 0.923840
O4    O     O_R   0.824110 0.405730 0.414490 -0.516080
O5    O     O_R   0.994440 0.582310 0.413870 -0.555222
C2    C     C_R   0.654498 0.382976 0.386741 0.826260
O6    O     O_R   0.494210 0.417690 0.586130 -0.510010
O7    O     O_3   0.660810 0.557940 0.500000 -0.261401
V1    V     V_3+5 0.935650 0.489250 0.500000 1.318329
O8    O     O_R   0.324160 0.593210 0.414480 -0.567046
C3    C     C_R   0.154904 0.612154 0.383899 0.875526
O9    O     O_R   0.323970 0.594270 0.585510 -0.490594
C4    C     C_R   0.157336 0.617494 0.613406 0.897801
V2    V     V_3+5 0.435660 0.510750 0.500000 1.310177
O10   O     O_3   0.160630 0.442060 0.500000 -0.229659
H1    H     H_    0.146169 0.930515 0.510150 0.133501
C5    C     C_R   0.147849 0.559475 0.789067 0.329165
C6    C     C_R   0.112472 0.532080 0.869647 -0.137424
C7    C     C_R   0.111517 0.594561 0.933008 -0.159880
C8    C     C_R   0.143865 0.685795 0.916700 0.381292
C9    C     C_R   0.135450 0.717776 0.833808 -0.058115
C10   C     C_R   0.145282 0.652950 0.767892 -0.092310
C11   C     C_R   0.110701 0.810993 0.815242 -0.102844
C12   C     C_R   0.086955 0.836877 0.731399 -0.154560
C13   C     C_R   0.148759 0.777750 0.668022 -0.092036
C14   C     C_R   0.157666 0.683365 0.684165 -0.062939
C15   C     C_R   0.995492 0.918871 0.707764 0.360261
C16   C     C_R   0.006144 0.949614 0.626309 0.380044
C17   C     C_R   0.115276 0.901041 0.569531 -0.233644
C18   C     C_R   0.188454 0.815776 0.589466 0.273095
H2    H     H_    0.109651 0.460909 0.884776 0.123772
H3    H     H_    0.104522 0.571210 0.996156 0.119799
C19   C     C_2   0.001574 0.733880 0.301326 0.364951
C20   C     C_2   0.143863 0.671225 0.309264 0.265571
C21   C     C_2   0.977491 0.787000 0.222926 -0.118342
C22   C     C_2   0.128344 0.825057 0.184841 -0.186532
H4    H     H_    0.831852 0.800266 0.200467 0.068142
H5    H     H_    0.272685 0.816555 0.210602 0.078255
C23   C     C_2   0.774023 0.194078 0.771259 -0.086504
C24   C     C_2   0.611315 0.175187 0.812676 -0.268453
H6    H     H_    0.906861 0.161117 0.790612 0.172077
H7    H     H_    0.473378 0.202198 0.792583 0.118732
C25   C     C_2   0.784447 0.252704 0.696299 0.324900
C26   C     C_2   0.644779 0.314059 0.677888 -0.225734
H8    H     H_    0.517173 0.318149 0.715442 0.130555
C27   C     C_2   0.752974 0.189576 0.230193 -0.158145
C28   C     C_2   0.621460 0.192836 0.168030 0.230409
H9    H     H_    0.845085 0.130642 0.236137 0.063839
C29   C     C_2   0.788499 0.265534 0.289270 0.368200
C30   C     C_2   0.638478 0.311176 0.322799 -0.215526
H10   H     H_    0.492216 0.291175 0.305593 0.138724
O11   O     O_R   0.770210 0.079270 0.910680 -0.536729
O12   O     O_R   0.440150 0.091160 0.082270 -0.583126
O13   O     O_R   0.269970 0.914530 0.082860 -0.565977
C31   C     C_R   0.609876 0.116222 0.107934 0.773921
O14   O     O_R   0.440480 0.090100 0.911240 -0.565347
O15   O     O_R   0.270310 0.913460 0.910610 -0.568348
C32   C     C_R   0.608367 0.111662 0.882864 0.865358
O16   O     O_R   0.769870 0.080340 0.082930 -0.575186
O17   O     O_3   0.603660 0.938980 0.996790 -0.293890
V3    V     V_3+5 0.328750 0.007610 0.996740 1.133881
O18   O     O_R   0.940600 0.902510 0.911180 -0.535924
C33   C     C_R   0.107254 0.881182 0.881976 0.966829
O19   O     O_R   0.940270 0.903570 0.082200 -0.562623
C34   C     C_R   0.109954 0.884804 0.112501 0.895951
V4    V     V_3+5 0.828770 0.986010 0.996670 1.150039
O20   O     O_3   0.103730 0.054750 0.996710 -0.283553
O21   O     O_3   0.255726 0.651422 0.240754 -0.684431
C35   C     C_3   0.454731 0.654417 0.260686 0.173947
H11   H     H_    0.504639 0.587391 0.282569 0.084547
H12   H     H_    0.492132 0.708294 0.306445 0.090383
H13   H     H_    0.535064 0.669821 0.203684 0.046713
N1    N     N_R   0.949406 0.241623 0.643943 0.139652
O22   O     O_R   0.116587 0.220741 0.676103 -0.331980
O23   O     O_R   0.925856 0.235672 0.564251 -0.345512
O24   O     O_3   0.529074 0.274814 0.152782 -0.663151
C36   C     C_3   0.332224 0.263065 0.131902 0.222606
H14   H     H_    0.260722 0.211609 0.171164 0.078206
H15   H     H_    0.314713 0.246754 0.065237 0.051682
H16   H     H_    0.257141 0.327990 0.142479 0.109119
N2    N     N_R   0.985369 0.285111 0.312297 0.090740
O25   O     O_R   0.098855 0.219763 0.335154 -0.386273
O26   O     O_R   0.061064 0.362447 0.292447 -0.381409
N3    N     N_R   0.227007 0.493276 0.735707 0.060016
O27   O     O_R   0.127434 0.421126 0.717466 -0.351164
O28   O     O_R   0.413892 0.491180 0.730236 -0.401210
O29   O     O_3   0.192584 0.741558 0.982302 -0.663770
C37   C     C_3   0.389203 0.726191 0.002787 0.235756
H17   H     H_    0.484456 0.745577 0.950941 0.033651
H18   H     H_    0.416088 0.654868 0.020858 0.022741
H19   H     H_    0.431204 0.767960 0.056933 0.083517
O30   O     O_3   0.873428 0.963493 0.760655 -0.628988
C38   C     C_3   0.688830 0.922540 0.753576 0.247391
H20   H     H_    0.591537 0.953436 0.799151 0.064333
H21   H     H_    0.693938 0.848961 0.767395 0.024615
H22   H     H_    0.623476 0.933692 0.691358 0.035754
O31   O     O_3   0.922871 0.031832 0.606488 -0.574995
C39   C     C_3   0.796618 0.021900 0.537775 0.255879
H23   H     H_    0.702357 0.961057 0.542667 -0.005499
H24   H     H_    0.878576 0.020395 0.479403 0.028381
H25   H     H_    0.700041 0.081408 0.535216 0.103438
N4    N     N_R   0.329614 0.777241 0.535972 0.074073
O32   O     O_R   0.316028 0.790393 0.456776 -0.441428
O33   O     O_R   0.496041 0.753538 0.567162 -0.372919
O34   O     O_3   0.869901 0.742815 0.365131 -0.652089
C40   C     C_3   0.813614 0.833468 0.375881 0.198482
H26   H     H_    0.706816 0.853623 0.327613 0.019147
H27   H     H_    0.940020 0.880251 0.376975 0.018585
H28   H     H_    0.741819 0.839582 0.436324 0.125121

loop_
_geom_bond_atom_site_label_1
_geom_bond_atom_site_label_2
_geom_bond_distance
_ccdc_geom_bond_type
O15   V3    2.004557 S    
O30   C38   1.415452 S    
C24   H7    1.083183 S    
C6    C7    1.379445 A    
C1    O6    1.297302 A    
O11   C32   1.296288 A    
O14   V3    2.012356 S    
C27   H9    1.087006 S    
N3    O27   1.299962 A    
C12   C15   1.423315 A    
C13   C14   1.424796 A    
N1    O23   1.301734 A    
C16   O31   1.386463 S    
C15   C16   1.400983 A    
C5    C6    1.393877 A    
O21   C35   1.411065 S    
O5    C3    1.296043 A    
C17   C18   1.400002 A    
C36   H15   1.110693 S    
O14   C32   1.295774 A    
O34   C40   1.410556 S    
V2    O10   2.155398 S    
O13   V3    2.010624 S    
C19   C20   1.361378 D    
O8    V2    1.999597 S    
C39   H23   1.114329 S    
O16   V4    2.019308 S    
O19   V4    1.999528 S    
C40   H26   1.110945 S    
C35   H11   1.110396 S    
O1    V2    2.015557 S    
C10   C14   1.435066 A    
C4    C14   1.502351 S    
C37   H18   1.113139 S    
O7    V1    2.161708 S    
O24   C36   1.409374 S    
C38   H21   1.114144 S    
C23   H6    1.085885 S    
C8    O29   1.380397 S    
C13   C18   1.424241 A    
C11   C33   1.497399 S    
O9    C4    1.292905 A    
H1    C17   1.082213 S    
C40   H27   1.113987 S    
C38   H20   1.106020 S    
C6    H2    1.083484 S    
C27   C29   1.491386 S    
O18   V4    2.018406 S    
C1    C26   1.483318 S    
N3    O28   1.298899 A    
O15   C33   1.302508 A    
O12   C31   1.293179 A    
C5    N3    1.421623 S    
N1    O22   1.301375 A    
V4    O20   2.155308 S    
C19   O34   1.394961 S    
C11   C12   1.420606 A    
C24   C32   1.479506 S    
O4    C2    1.294088 A    
C36   H14   1.114104 S    
O12   V3    1.998196 S    
C38   H22   1.112154 S    
C12   C13   1.418964 A    
C26   H8    1.082104 S    
C5    C10   1.427958 A    
C15   O30   1.381059 S    
C3    C20   1.496932 S    
C18   N4    1.434726 S    
C28   O24   1.396059 S    
O2    C1    1.296013 A    
C16   C17   1.398178 A    
O17   V4    1.704687 S    
C27   C28   1.348882 D    
C23   C25   1.498588 S    
C22   C34   1.476054 S    
C35   H13   1.109408 S    
C29   C30   1.360507 D    
N4    O33   1.301572 A    
O29   C37   1.416049 S    
C37   H19   1.106074 S    
C25   N1    1.442511 S    
O3    C4    1.305475 A    
C7    H3    1.083236 S    
C23   C24   1.348953 D    
C39   H24   1.110522 S    
O31   C39   1.412089 S    
O6    V2    2.004057 S    
N2    O26   1.301344 A    
O9    V2    2.018425 S    
C40   H28   1.108539 S    
C9    C11   1.424864 A    
O2    V1    2.012312 S    
O13   C34   1.290707 A    
C25   C26   1.360566 D    
C29   N2    1.436012 S    
C28   C31   1.493333 S    
C21   C22   1.344277 D    
O1    C2    1.299187 A    
O5    V1    2.010546 S    
O8    C3    1.297814 A    
V3    O20   1.710048 S    
C21   H4    1.085947 S    
O7    V2    1.705870 S    
C2    C30   1.484293 S    
C30   H10   1.086051 S    
C22   H5    1.085358 S    
O3    V1    2.004552 S    
V1    O10   1.710106 S    
C36   H16   1.109017 S    
C19   C21   1.504669 S    
O19   C34   1.298236 A    
O17   V3    2.161706 S    
O11   V4    2.004542 S    
O18   C33   1.293649 A    
C31   O16   1.300197 A    
O4    V1    1.998065 S    
C39   H25   1.109146 S    
C7    C8    1.395867 A    
C20   O21   1.394052 S    
N2    O25   1.300854 A    
N4    O32   1.300912 A    
C9    C10   1.435790 A    
C35   H12   1.114103 S    
C37   H17   1.113717 S    
C8    C9    1.426631 A    
