data_mof_unit_29584.cif
_audit_creation_date              2012-12-10T17:46:18-0500
_audit_creation_method            fapswitch 2.2
_symmetry_space_group_name_H-M    P1
_symmetry_Int_Tables_number       1
_space_group_crystal_system       triclinic
_cell_length_a                    14.149386
_cell_length_b                    10.641505
_cell_length_c                    9.92974
_cell_angle_alpha                 89.916944
_cell_angle_beta                  89.957449
_cell_angle_gamma                 91.606711
_cell_volume                      1494.53865971

loop_
_atom_site_label
_atom_site_type_symbol
_atom_type_description
_atom_site_fract_x
_atom_site_fract_y
_atom_site_fract_z
_atom_type_partial_charge
C1    C     C_R   0.502748 0.260687 0.500147 0.844846
C2    C     C_1   0.772196 0.500346 0.500024 -0.210231
C3    C     C_R   0.658651 0.136253 0.631037 -0.230423
C4    C     C_R   0.731400 0.073314 0.694556 -0.132352
C5    C     C_R   0.731993 0.942005 0.694204 0.261424
C6    C     C_R   0.658965 0.874353 0.629681 -0.206966
C7    C     C_R   0.583873 0.936988 0.566766 0.050954
C8    C     C_R   0.583743 0.068710 0.567303 0.099222
C9    C     C_R   0.509496 0.128580 0.500041 -0.076007
C10   C     C_R   0.439699 0.062026 0.429395 -0.217063
C11   C     C_R   0.439714 0.933670 0.429038 -0.194919
C12   C     C_R   0.329294 0.499636 0.500069 0.875538
C13   C     C_R   0.509637 0.872015 0.499336 -0.087803
C14   C     C_R   0.375071 0.336413 0.140005 -0.158561
C15   C     C_R   0.312672 0.255950 0.070138 0.219270
C16   C     C_R   0.314031 0.255649 0.930327 -0.205091
C17   C     C_R   0.375962 0.335713 0.860464 -0.198549
C18   C     C_R   0.438900 0.419017 0.927906 0.169802
C19   C     C_R   0.438727 0.419169 0.072313 0.121931
C20   C     C_R   0.558630 0.577394 0.071239 -0.100609
C21   C     C_R   0.558574 0.577419 0.928248 -0.106825
C22   C     C_R   0.502803 0.739470 0.499866 0.863737
C23   C     C_R   0.670713 0.500437 0.499953 0.865348
C24   C     C_1   0.227799 0.499386 0.500163 -0.207344
C25   C     C_1   0.142530 0.499351 0.500242 -0.009496
C26   C     C_1   0.042621 0.499547 0.500321 0.006964
C27   C     C_1   0.957356 0.499823 0.500321 0.004748
C28   C     C_1   0.857455 0.500152 0.500199 -0.012895
H1    H     H_    0.383911 0.109756 0.377080 0.146110
H2    H     H_    0.266374 0.193402 0.874758 0.158946
H3    H     H_    0.371916 0.329626 0.753719 0.210802
H4    H     H_    0.606379 0.640825 0.874467 0.143463
H5    H     H_    0.662768 0.237797 0.630807 0.163822
H6    H     H_    0.787822 0.127419 0.742717 0.142134
H7    H     H_    0.662694 0.772988 0.627609 0.149829
H8    H     H_    0.383828 0.882036 0.376463 0.154596
H9    H     H_    0.606491 0.640749 0.124635 0.146372
H10   H     H_    0.371779 0.331566 0.246779 0.199563
N1    N     N_R   0.499190 0.498800 0.142780 -0.108693
N2    N     N_R   0.499160 0.498720 0.857170 -0.108251
O1    O     O_R   0.500000 0.316780 0.614690 -0.633121
O2    O     O_R   0.499990 0.316750 0.385360 -0.622900
O3    O     O_R   0.373720 0.500010 0.614690 -0.607954
O4    O     O_R   0.373710 0.499990 0.385360 -0.613839
O5    O     O_R   0.500010 0.683250 0.614640 -0.608578
O6    O     O_R   0.500000 0.683220 0.385310 -0.606160
O7    O     O_R   0.626290 0.500010 0.614640 -0.607897
O8    O     O_R   0.626280 0.499990 0.385310 -0.587717
Zn1   Zn    Zn3+2 0.500010 0.500020 0.653130 0.929285
Zn2   Zn    Zn3+2 0.499990 0.499980 0.346870 0.936992
C29   C     C_3   0.810420 0.872925 0.760653 -0.931777
H11   H     H_    0.863197 0.938740 0.807205 0.241437
H12   H     H_    0.780725 0.810260 0.840579 0.240626
H13   H     H_    0.847023 0.815054 0.684799 0.247317
C30   C     C_3   0.243978 0.170287 0.143707 -0.927551
H14   H     H_    0.247325 0.184718 0.254333 0.225832
H15   H     H_    0.170844 0.188977 0.110166 0.250374
H16   H     H_    0.259992 0.070867 0.121597 0.248287

loop_
_geom_bond_atom_site_label_1
_geom_bond_atom_site_label_2
_ccdc_geom_bond_type
C1    O1    A    
C2    C28   T    
C30   H14   S    
C24   C25   T    
C6    C7    A    
C14   H10   S    
C9    C10   A    
O6    Zn2   S    
O5    Zn1   S    
C29   H13   S    
C22   O5    A    
O8    Zn2   S    
C17   C18   A    
C7    C8    A    
C12   O4    A    
C20   C21   A    
C20   H9    S    
C11   C13   A    
C10   H1    S    
N2    Zn1   S    
C26   C27   T    
C16   C17   A    
C21   N2    A    
C19   N1    A    
O2    Zn2   S    
C5    C29   S    
O1    Zn1   S    
C11   H8    S    
C22   O6    A    
C13   C22   S    
C3    C8    A    
C12   O3    A    
C30   H15   S    
C5    C6    A    
C17   H3    S    
C21   H4    S    
C4    H6    S    
C23   O7    A    
C10   C11   A    
C3    H5    S    
C16   H2    S    
C29   H11   S    
C1    O2    A    
C7    C13   A    
N1    Zn2   S    
C1    C9    S    
C6    H7    S    
O7    Zn1   S    
C18   C19   A    
C30   H16   S    
O4    Zn2   S    
C2    C23   S    
C20   N1    A    
C12   C24   S    
C14   C15   A    
C4    C5    A    
C18   N2    A    
C23   O8    A    
C29   H12   S    
C25   C26   S    
C14   C19   A    
O3    Zn1   S    
C3    C4    A    
C15   C16   A    
C8    C9    A    
C27   C28   S    
C15   C30   S    
