data_mof_unit_30279.cif
_audit_creation_date              2012-12-11T14:13:23-0500
_audit_creation_method            fapswitch 2.2
_symmetry_space_group_name_H-M    P1
_symmetry_Int_Tables_number       1
_space_group_crystal_system       triclinic
_cell_length_a                    17.232754
_cell_length_b                    17.279916
_cell_length_c                    17.34893
_cell_angle_alpha                 90.289699
_cell_angle_beta                  90.610027
_cell_angle_gamma                 90.336172
_cell_volume                      5165.72435778

loop_
_atom_site_label
_atom_site_type_symbol
_atom_type_description
_atom_site_fract_x
_atom_site_fract_y
_atom_site_fract_z
_atom_type_partial_charge
C1    C     C_R   0.579553 0.332500 0.144806 -0.142817
C2    C     C_R   0.167493 0.077391 0.645203 -0.154249
C3    C     C_3   0.071664 0.650072 0.213952 -0.252147
C4    C     C_3   0.030638 0.571938 0.206329 -0.964721
C5    C     C_3   0.699125 0.838657 0.061720 -0.409860
C6    C     C_3   0.752289 0.885948 0.009039 -0.250757
C7    C     C_3   0.706879 0.919564 0.941210 -0.962330
C8    C     C_3   0.312451 0.125545 0.264329 -0.382172
C9    C     C_3   0.339231 0.042160 0.249349 -0.276767
C10   C     C_3   0.394222 0.014643 0.312949 -0.947023
C11   C     C_3   0.776906 0.342857 0.432486 -0.411626
C12   C     C_3   0.837226 0.408392 0.434904 -0.257616
C13   C     C_R   0.896973 0.194765 0.608094 -0.156003
C14   C     C_3   0.836286 0.450292 0.512573 -0.934919
C15   C     C_3   0.752610 0.951931 0.192281 -0.415650
C16   C     C_3   0.819433 0.010877 0.183889 -0.228678
C17   C     C_3   0.788881 0.090573 0.162017 -0.949590
C18   C     C_3   0.100121 0.842081 0.199770 -0.404539
C19   C     C_3   0.128198 0.925426 0.187699 -0.228610
C20   C     C_3   0.060779 0.978165 0.165856 -0.925150
C21   C     C_3   0.366604 0.818471 0.597397 -0.404704
C22   C     C_3   0.397425 0.879110 0.655300 -0.249121
C23   C     C_3   0.440382 0.944389 0.614560 -0.946746
C24   C     C_R   0.832612 0.919954 0.644640 -0.152920
C25   C     C_3   0.940664 0.727644 0.788628 -0.397370
C26   C     C_3   0.014186 0.777459 0.802029 -0.228571
C27   C     C_3   0.087550 0.729631 0.792950 -0.969985
C28   C     C_3   0.662708 0.228789 0.566582 -0.411843
C29   C     C_3   0.596940 0.169381 0.556656 -0.255206
C30   C     C_3   0.560172 0.174708 0.476394 -0.933182
C31   C     C_3   0.048424 0.242022 0.809439 -0.419621
C32   C     C_3   0.989887 0.174689 0.816281 -0.220672
C33   C     C_3   0.910926 0.203368 0.842881 -0.956726
C34   C     C_R   0.081352 0.169991 0.356883 -0.151079
C35   C     C_R   0.191470 0.898470 0.384681 -0.173922
C36   C     C_R   0.920068 0.832034 0.355321 -0.157590
C37   C     C_R   0.804115 0.103437 0.394083 -0.152863
C38   C     C_R   0.600431 0.694128 0.111649 -0.132279
C39   C     C_R   0.303359 0.604072 0.100733 -0.134208
C40   C     C_R   0.394526 0.304847 0.104442 -0.140346
C41   C     C_R   0.694507 0.606422 0.108427 -0.169584
C42   C     C_R   0.668293 0.426614 0.143471 -0.139314
C43   C     C_R   0.573610 0.331300 0.857026 -0.138600
C44   C     C_R   0.304905 0.397655 0.890501 -0.139615
C45   C     C_R   0.415039 0.677321 0.863526 -0.147713
C46   C     C_R   0.694677 0.602382 0.891787 -0.135460
C47   C     C_R   0.078788 0.170712 0.642352 -0.135478
C48   C     C_R   0.805388 0.103575 0.606843 -0.142773
C49   C     C_R   0.922825 0.828010 0.640418 -0.143352
C50   C     C_R   0.197355 0.894111 0.599914 -0.155106
C51   C     C_R   0.099542 0.808002 0.385203 -0.145771
C52   C     C_R   0.394159 0.695701 0.103190 -0.143345
C53   C     C_R   0.828314 0.922002 0.358057 -0.134205
C54   C     C_R   0.895012 0.195086 0.395222 -0.143659
C55   C     C_R   0.171833 0.078407 0.359851 -0.145013
C56   C     C_R   0.639413 0.367624 0.187239 0.153445
C57   C     C_R   0.676660 0.681165 0.130800 0.155339
C58   C     C_R   0.316730 0.681026 0.118056 0.150723
C59   C     C_R   0.317900 0.320149 0.121390 0.147432
C60   C     C_R   0.680726 0.678076 0.872144 0.152664
C61   C     C_R   0.632898 0.359657 0.813402 0.152925
C62   C     C_R   0.318566 0.321645 0.871420 0.153892
C63   C     C_R   0.304365 0.396631 0.105626 -0.155126
C64   C     C_R   0.351090 0.649486 0.823619 0.147240
C65   C     C_R   0.184818 0.815767 0.611119 0.174514
C66   C     C_R   0.134455 0.136168 0.688919 0.152476
C67   C     C_R   0.821716 0.178980 0.627107 0.153413
C68   C     C_R   0.866277 0.859495 0.686847 0.155257
C69   C     C_R   0.143279 0.137869 0.316568 0.167751
C70   C     C_R   0.170744 0.826916 0.356353 0.164204
C71   C     C_R   0.861423 0.866132 0.311717 0.151265
C72   C     C_R   0.818622 0.179138 0.376949 0.151123
C73   C     C_2   0.812362 0.737984 0.862110 0.140500
C74   C     C_R   0.604835 0.694317 0.891607 -0.171817
C75   C     C_2   0.354446 0.703000 0.691667 0.150600
C76   C     C_2   0.188988 0.256149 0.865712 0.137308
C77   C     C_2   0.646060 0.256863 0.713306 0.159194
C78   C     C_2   0.743281 0.352501 0.285928 0.158763
C79   C     C_2   0.263363 0.190228 0.144239 0.142320
C80   C     C_2   0.190561 0.728625 0.168547 0.135093
C81   C     C_2   0.739052 0.811967 0.136220 0.127150
C82   C     C_2   0.242983 0.147781 0.213855 0.166101
C83   C     C_2   0.764929 0.306682 0.353207 0.164623
C84   C     C_2   0.780783 0.868466 0.188394 0.169628
C85   C     C_R   0.667964 0.419630 0.855612 -0.144737
C86   C     C_2   0.166398 0.788738 0.222088 0.153910
C87   C     C_2   0.317004 0.758021 0.636949 0.152779
C88   C     C_2   0.867025 0.772511 0.805334 0.165922
C89   C     C_2   0.694710 0.235014 0.648392 0.160600
C90   C     C_2   0.132550 0.214833 0.812902 0.161406
C91   C     C_2   0.736796 0.731695 0.839306 -0.305112
C92   C     C_2   0.316208 0.686976 0.757654 -0.304437
C93   C     C_2   0.262504 0.266619 0.839756 -0.306619
C94   C     C_2   0.653161 0.331843 0.736495 -0.308648
C95   C     C_2   0.667472 0.347666 0.264242 -0.309145
C96   C     C_R   0.393934 0.305172 0.892657 -0.166177
C97   C     C_2   0.261029 0.267602 0.152805 -0.302444
C98   C     C_2   0.260980 0.741058 0.137814 -0.290203
C99   C     C_2   0.730416 0.738228 0.162485 -0.311436
C100  C     C_2   0.169234 0.156846 0.239179 -0.323468
C101  C     C_2   0.764627 0.230329 0.340281 -0.322943
C102  C     C_2   0.839012 0.840425 0.233690 -0.289006
C103  C     C_2   0.203736 0.789068 0.290841 -0.298025
C104  C     C_2   0.239097 0.752833 0.628168 -0.307198
C105  C     C_2   0.842422 0.835441 0.764786 -0.295385
C106  C     C_2   0.770324 0.230554 0.666083 -0.319683
C107  C     C_R   0.321644 0.586515 0.863274 -0.133064
C108  C     C_2   0.160961 0.157724 0.767112 -0.283551
C109  C     C_3   0.841718 0.699454 0.936240 -0.409150
C110  C     C_3   0.914876 0.737099 0.972552 -0.267159
C111  C     C_3   0.921899 0.719246 0.058065 -0.965959
C112  C     C_3   0.433862 0.669383 0.673945 -0.411179
C113  C     C_3   0.429851 0.617721 0.601850 -0.251623
C114  C     C_3   0.509161 0.583764 0.583547 -0.922800
C115  C     C_3   0.161823 0.294600 0.940176 -0.410325
C116  C     C_3   0.116319 0.239314 0.992099 -0.247985
C117  C     C_3   0.073972 0.283440 0.054998 -0.967496
C118  C     C_R   0.106923 0.803006 0.598116 -0.151528
C119  C     C_3   0.615628 0.191757 0.765214 -0.420783
C120  C     C_3   0.646433 0.109951 0.748440 -0.258311
C121  C     C_3   0.613052 0.050937 0.804453 -0.963025
C122  C     C_3   0.808338 0.376769 0.230904 -0.419839
C123  C     C_3   0.888307 0.340315 0.246025 -0.255959
C124  C     C_3   0.946431 0.365071 0.185180 -0.972907
C125  C     C_3   0.302847 0.149281 0.077765 -0.415052
C126  C     C_3   0.260281 0.074071 0.054186 -0.251017
C127  C     C_3   0.287241 0.045055 0.975751 -0.944768
C128  C     C_3   0.148231 0.650901 0.169051 -0.412466
H1    H     H_    0.542577 0.285703 0.163473 0.099363
H2    H     H_    0.213035 0.038839 0.663776 0.103969
H3    H     H_    0.661988 0.960072 0.962393 0.265299
H4    H     H_    0.781273 0.934221 0.040099 0.207636
H5    H     H_    0.798011 0.848147 0.986460 0.215977
H6    H     H_    0.678884 0.788573 0.026557 0.200623
H7    H     H_    0.646810 0.872597 0.076664 0.173280
H8    H     H_    0.446464 0.052555 0.316135 0.265800
H9    H     H_    0.364757 0.015397 0.369571 0.255290
H10   H     H_    0.412841 0.954519 0.300376 0.251927
H11   H     H_    0.289014 0.001840 0.244961 0.184728
H12   H     H_    0.370515 0.039409 0.193834 0.195141
H13   H     H_    0.924311 0.251241 0.607669 0.098924
H14   H     H_    0.362237 0.164565 0.251421 0.172245
H15   H     H_    0.301858 0.136926 0.326203 0.189332
H16   H     H_    0.778804 0.477290 0.522073 0.263237
H17   H     H_    0.848761 0.409112 0.560060 0.260513
H18   H     H_    0.881350 0.496492 0.513539 0.248960
H19   H     H_    0.896109 0.384254 0.427147 0.183238
H20   H     H_    0.825179 0.451019 0.388622 0.204513
H21   H     H_    0.719935 0.366096 0.450737 0.186528
H22   H     H_    0.794554 0.298639 0.475243 0.191707
H23   H     H_    0.765849 0.089510 0.101967 0.262931
H24   H     H_    0.786747 0.957412 0.664007 0.101132
H25   H     H_    0.741631 0.107677 0.201344 0.259707
H26   H     H_    0.836499 0.134051 0.166069 0.256359
H27   H     H_    0.852686 0.016249 0.238714 0.209064
H28   H     H_    0.860382 0.991501 0.138730 0.194082
H29   H     H_    0.709627 0.963047 0.145962 0.195114
H30   H     H_    0.718244 0.962442 0.244479 0.162479
H31   H     H_    0.031392 0.956767 0.112510 0.255807
H32   H     H_    0.018074 0.980509 0.213354 0.267117
H33   H     H_    0.082912 0.037558 0.155249 0.250279
H34   H     H_    0.155902 0.948327 0.241041 0.205681
H35   H     H_    0.043955 0.216152 0.337644 0.101744
H36   H     H_    0.171821 0.926601 0.140972 0.181660
H37   H     H_    0.073871 0.821491 0.144576 0.174327
H38   H     H_    0.053611 0.840238 0.243360 0.191959
H39   H     H_    0.490191 0.920970 0.581884 0.265122
H40   H     H_    0.400568 0.974873 0.574280 0.258343
H41   H     H_    0.462792 0.986706 0.657883 0.252978
H42   H     H_    0.348899 0.904014 0.688793 0.194032
H43   H     H_    0.437910 0.851285 0.696884 0.191519
H44   H     H_    0.416537 0.789839 0.569520 0.178788
H45   H     H_    0.334794 0.845604 0.548832 0.186108
H46   H     H_    0.247884 0.925445 0.380401 0.104441
H47   H     H_    0.090193 0.683804 0.837554 0.259521
H48   H     H_    0.088895 0.702322 0.734942 0.260570
H49   H     H_    0.139008 0.768025 0.800005 0.255567
H50   H     H_    0.016528 0.826876 0.761731 0.207228
H51   H     H_    0.014211 0.803023 0.860789 0.183745
H52   H     H_    0.944587 0.676024 0.825972 0.177043
H53   H     H_    0.937391 0.700150 0.731142 0.165366
H54   H     H_    0.534201 0.232731 0.467639 0.261265
H55   H     H_    0.604451 0.164335 0.431445 0.261586
H56   H     H_    0.513682 0.130270 0.470088 0.253129
H57   H     H_    0.955422 0.784423 0.336868 0.092314
H58   H     H_    0.620338 0.110107 0.563294 0.185038
H59   H     H_    0.551320 0.179324 0.600344 0.204912
H60   H     H_    0.640879 0.286919 0.550301 0.185386
H61   H     H_    0.709236 0.213495 0.525665 0.194860
H62   H     H_    0.914437 0.221794 0.904273 0.264769
H63   H     H_    0.892288 0.253380 0.807597 0.260051
H64   H     H_    0.867128 0.156226 0.837076 0.255833
H65   H     H_    0.982222 0.145093 0.759854 0.209117
H66   H     H_    0.011266 0.131167 0.858293 0.191331
H67   H     H_    0.037007 0.283330 0.856755 0.199230
H68   H     H_    0.747660 0.075846 0.395458 0.099204
H69   H     H_    0.037211 0.277588 0.757981 0.160459
H70   H     H_    0.570007 0.748656 0.113456 0.094470
H71   H     H_    0.248691 0.575206 0.090717 0.088954
H72   H     H_    0.423207 0.249586 0.104785 0.087762
H73   H     H_    0.752190 0.582236 0.105628 0.102265
H74   H     H_    0.711109 0.468827 0.160459 0.105147
H75   H     H_    0.530929 0.289014 0.840206 0.104269
H76   H     H_    0.249343 0.426354 0.890262 0.090290
H77   H     H_    0.449437 0.727954 0.850445 0.101542
H78   H     H_    0.749415 0.572556 0.890657 0.087254
H79   H     H_    0.043712 0.219978 0.653891 0.100833
H80   H     H_    0.749392 0.075193 0.606864 0.089367
H81   H     H_    0.962145 0.781800 0.650556 0.115061
H82   H     H_    0.251813 0.924573 0.597609 0.110412
H83   H     H_    0.070305 0.752719 0.380705 0.083896
H84   H     H_    0.421359 0.752180 0.100134 0.091104
H85   H     H_    0.779556 0.958016 0.346707 0.102046
H86   H     H_    0.923255 0.251014 0.395865 0.089910
H87   H     H_    0.216578 0.039308 0.344662 0.121522
H88   H     H_    0.715719 0.760799 0.787960 0.137491
H89   H     H_    0.258629 0.709348 0.767879 0.143526
H90   H     H_    0.282131 0.239216 0.787151 0.137516
H91   H     H_    0.684814 0.372439 0.700582 0.137133
H92   H     H_    0.626170 0.319077 0.301822 0.137523
H93   H     H_    0.226106 0.293131 0.198134 0.139752
H94   H     H_    0.285520 0.799265 0.141495 0.129529
H95   H     H_    0.248674 0.425227 0.104877 0.097691
H96   H     H_    0.758691 0.718966 0.215047 0.141274
H97   H     H_    0.126825 0.184997 0.202048 0.139794
H98   H     H_    0.738511 0.207282 0.287701 0.145310
H99   H     H_    0.866118 0.786326 0.217246 0.123108
H100  H     H_    0.252592 0.750904 0.301638 0.138952
H101  H     H_    0.210603 0.699724 0.646346 0.129772
H102  H     H_    0.792845 0.867112 0.786522 0.131491
H103  H     H_    0.791370 0.251029 0.721780 0.147149
H104  H     H_    0.215508 0.130948 0.783764 0.121229
H105  H     H_    0.871945 0.743423 0.089023 0.275105
H106  H     H_    0.578550 0.750975 0.892532 0.097304
H107  H     H_    0.924288 0.655763 0.067463 0.270914
H108  H     H_    0.975646 0.746396 0.081321 0.247083
H109  H     H_    0.967669 0.713320 0.945721 0.208018
H110  H     H_    0.915226 0.800763 0.964566 0.191278
H111  H     H_    0.794426 0.700853 0.979358 0.214679
H112  H     H_    0.855293 0.637934 0.924297 0.162246
H113  H     H_    0.551756 0.630852 0.572644 0.261063
H114  H     H_    0.530276 0.547771 0.632248 0.264520
H115  H     H_    0.504484 0.546738 0.531186 0.250293
H116  H     H_    0.388079 0.569516 0.611445 0.202348
H117  H     H_    0.715271 0.455843 0.836882 0.099088
H118  H     H_    0.409301 0.651447 0.551334 0.192941
H119  H     H_    0.476492 0.716968 0.665805 0.178118
H120  H     H_    0.456464 0.633602 0.721978 0.205217
H121  H     H_    0.043944 0.241783 0.093191 0.254988
H122  H     H_    0.115447 0.318552 0.090127 0.270801
H123  H     H_    0.030024 0.322281 0.028736 0.267082
H124  H     H_    0.073165 0.204322 0.959421 0.208615
H125  H     H_    0.157247 0.198903 0.019351 0.210900
H126  H     H_    0.211576 0.315874 0.975547 0.199875
H127  H     H_    0.126491 0.346090 0.925376 0.173718
H128  H     H_    0.418995 0.247998 0.895837 0.098523
H129  H     H_    0.636494 0.992694 0.791174 0.257172
H130  H     H_    0.629366 0.066527 0.864678 0.268038
H131  H     H_    0.548793 0.048582 0.798944 0.264361
H132  H     H_    0.629937 0.091250 0.689595 0.192348
H133  H     H_    0.710699 0.109426 0.754278 0.207460
H134  H     H_    0.633591 0.203506 0.825744 0.202047
H135  H     H_    0.551328 0.190072 0.760139 0.177666
H136  H     H_    0.927750 0.343229 0.127577 0.270226
H137  H     H_    0.951073 0.429048 0.183324 0.277286
H138  H     H_    0.004376 0.341019 0.199569 0.259753
H139  H     H_    0.269945 0.553470 0.849343 0.098523
H140  H     H_    0.911484 0.358727 0.302797 0.192236
H141  H     H_    0.883554 0.276195 0.244385 0.210225
H142  H     H_    0.792920 0.358540 0.171268 0.205240
H143  H     H_    0.814955 0.440703 0.233826 0.174815
H144  H     H_    0.257243 0.989729 0.961303 0.252052
H145  H     H_    0.273096 0.088023 0.930348 0.263856
H146  H     H_    0.350846 0.034968 0.976905 0.261398
H147  H     H_    0.271715 0.028486 0.097558 0.186031
H148  H     H_    0.196554 0.082435 0.051803 0.192663
H149  H     H_    0.304964 0.188690 0.027290 0.206194
H150  H     H_    0.079563 0.746815 0.591484 0.091120
H151  H     H_    0.363202 0.134412 0.094575 0.168112
H152  H     H_    0.975827 0.572975 0.239408 0.252138
H153  H     H_    0.016414 0.559437 0.144901 0.263053
H154  H     H_    0.068071 0.525174 0.229476 0.268088
H155  H     H_    0.083765 0.661329 0.275998 0.197276
H156  H     H_    0.031974 0.695343 0.192210 0.196902
H157  H     H_    0.135011 0.634221 0.108346 0.190378
H158  H     H_    0.186256 0.607382 0.197007 0.190195
H159  H     H_    0.746981 0.951815 0.903149 0.255972
H160  H     H_    0.678316 0.872739 0.907070 0.268023
N1    N     N_R   0.574080 0.369570 0.076720 -0.043030
N2    N     N_R   0.130430 0.074080 0.576720 -0.042035
N3    N     N_R   0.925920 0.130430 0.576720 -0.041277
N4    N     N_R   0.869570 0.925920 0.576720 -0.041094
N5    N     N_R   0.074080 0.130430 0.423280 -0.041506
N6    N     N_R   0.130430 0.925920 0.423280 -0.036341
N7    N     N_R   0.925920 0.869570 0.423280 -0.039647
N8    N     N_R   0.869570 0.074080 0.423280 -0.041631
N9    N     N_R   0.574050 0.630410 0.076720 -0.040616
N10   N     N_R   0.369590 0.574050 0.076720 -0.042242
N11   N     N_R   0.425950 0.369590 0.076720 -0.039657
N12   N     N_R   0.630430 0.574080 0.076720 -0.039026
N13   N     N_R   0.630410 0.425950 0.076720 -0.044707
N14   N     N_R   0.574050 0.369590 0.923280 -0.044388
N15   N     N_R   0.369590 0.425950 0.923280 -0.039996
N16   N     N_R   0.425950 0.630410 0.923280 -0.040926
N17   N     N_R   0.630410 0.574050 0.923280 -0.039918
N18   N     N_R   0.074050 0.130410 0.576720 -0.045421
N19   N     N_R   0.869590 0.074050 0.576720 -0.040052
N20   N     N_R   0.925950 0.869590 0.576720 -0.045337
N21   N     N_R   0.130410 0.925950 0.576720 -0.042029
N22   N     N_R   0.074050 0.869590 0.423280 -0.035681
N23   N     N_R   0.425920 0.630430 0.076720 -0.040288
N24   N     N_R   0.869590 0.925950 0.423280 -0.045396
N25   N     N_R   0.925950 0.130410 0.423280 -0.039832
N26   N     N_R   0.130410 0.074050 0.423280 -0.044557
N27   N     N_R   0.369570 0.425920 0.076720 -0.038657
N28   N     N_R   0.574080 0.630430 0.923280 -0.038333
N29   N     N_R   0.630430 0.425920 0.923280 -0.042839
N30   N     N_R   0.425920 0.369570 0.923280 -0.038125
N31   N     N_R   0.369570 0.574080 0.923280 -0.042994
N32   N     N_R   0.074080 0.869570 0.576720 -0.041015
Ni1   Ni    Ni4+2 0.500000 0.370760 0.000000 0.206238
Ni2   Ni    Ni4+2 0.629240 0.500000 0.000000 0.205555
Ni3   Ni    Ni4+2 0.500000 0.629240 0.000000 0.204864
Ni4   Ni    Ni4+2 0.370760 0.500000 0.000000 0.203884
Ni5   Ni    Ni4+2 0.000000 0.870760 0.500000 0.207460
Ni6   Ni    Ni4+2 0.129240 0.000000 0.500000 0.205082
Ni7   Ni    Ni4+2 0.000000 0.129240 0.500000 0.204837
Ni8   Ni    Ni4+2 0.870760 0.000000 0.500000 0.205407

loop_
_geom_bond_atom_site_label_1
_geom_bond_atom_site_label_2
_ccdc_geom_bond_type
N10   Ni4   S    
C126  C127  S    
C19   C20   S    
C17   H25   S    
C18   H38   S    
C110  H109  S    
C77   C89   S    
C1    C56   A    
C74   N28   A    
C5    C6    S    
C72   C101  S    
C124  H136  S    
C29   H58   S    
C45   N16   A    
C110  C111  S    
C80   C86   S    
C7    H160  S    
C89   C106  D    
C65   C118  A    
C74   H106  S    
N2    Ni6   S    
N5    N26   A    
C36   C71   A    
C121  H130  S    
C21   C22   S    
C30   H54   S    
C17   H23   S    
N21   Ni6   S    
C109  H111  S    
C14   H16   S    
C6    H4    S    
C96   N30   A    
C118  H150  S    
C61   C94   S    
C81   C99   D    
C120  H132  S    
C118  N32   A    
C25   C88   S    
C19   H34   S    
N18   Ni7   S    
C73   C88   S    
C38   C57   A    
C11   H22   S    
N11   Ni1   S    
C31   C90   S    
C48   H80   S    
C16   H27   S    
C111  H108  S    
C1    N1    A    
C46   N17   A    
C73   C91   D    
C22   H42   S    
C52   C58   A    
C122  H143  S    
N14   Ni1   S    
C23   H39   S    
C71   C102  S    
C21   H45   S    
C4    H152  S    
N19   Ni8   S    
C53   C71   A    
C43   C61   A    
C54   H86   S    
C126  H148  S    
N30   Ni1   S    
C46   C60   A    
C59   C63   A    
C79   C97   D    
C27   H48   S    
N23   Ni3   S    
C117  H122  S    
C15   C84   S    
C21   H44   S    
C125  H151  S    
C1    H1    S    
C44   N15   A    
C33   H63   S    
C105  H102  S    
C31   H67   S    
C104  H101  S    
C94   H91   S    
C39   N10   A    
C63   N27   A    
C48   C67   A    
C92   H89   S    
C85   N29   A    
C69   C100  S    
C120  H133  S    
C20   H32   S    
C62   C93   S    
C52   H84   S    
C22   C23   S    
C10   H10   S    
C56   C95   S    
C84   C102  D    
N12   Ni2   S    
C58   C98   S    
C49   N20   A    
C28   H61   S    
C25   H52   S    
N1    Ni1   S    
C123  C124  S    
N9    Ni3   S    
C26   H51   S    
C75   C112  S    
N17   N28   A    
C18   C19   S    
C55   H87   S    
C41   N12   A    
C115  C116  S    
C57   C99   S    
C77   C94   D    
C2    H2    S    
N29   Ni2   S    
C31   C32   S    
N24   Ni8   S    
N6    N22   A    
C4    H154  S    
C38   H70   S    
C28   C89   S    
N20   Ni5   S    
C9    C10   S    
C51   N22   A    
C79   C125  S    
C85   H117  S    
C127  H145  S    
C43   N14   A    
N2    N18   A    
C63   H95   S    
C96   H128  S    
C15   H30   S    
C55   N26   A    
C122  H142  S    
C3    C128  S    
N16   N31   A    
C80   C128  S    
C25   C26   S    
C39   C58   A    
C23   H40   S    
C29   C30   S    
N27   Ni4   S    
N7    N24   A    
C23   H41   S    
N25   Ni7   S    
C55   C69   A    
C75   C87   S    
C3    H156  S    
C114  H114  S    
C9    H12   S    
N5    Ni7   S    
C42   H74   S    
C68   C105  S    
C3    C4    S    
C120  C121  S    
C108  H104  S    
C46   H78   S    
C39   H71   S    
C53   H85   S    
C83   C101  D    
C48   N19   A    
C32   H65   S    
C2    C66   A    
C79   C82   S    
C110  H110  S    
C45   C64   A    
C2    N2    A    
C90   C108  D    
C43   H75   S    
C88   C105  D    
C98   H94   S    
C8    H15   S    
N16   Ni3   S    
C50   C65   A    
C50   N21   A    
C7    H159  S    
C50   H82   S    
N13   Ni2   S    
C44   H76   S    
C121  H129  S    
C42   N13   A    
C112  H119  S    
C49   C68   A    
C62   C96   A    
N1    N13   A    
C30   H55   S    
N15   N30   A    
C21   C87   S    
C14   H17   S    
C26   C27   S    
C18   C86   S    
C8    C82   S    
C12   H19   S    
C28   C29   S    
C128  H157  S    
C6    H5    S    
C28   H60   S    
N21   N32   A    
C119  H134  S    
C124  H137  S    
C76   C115  S    
C106  H103  S    
C5    H7    S    
C36   H57   S    
C24   H24   S    
C42   C56   A    
C78   C83   S    
C11   H21   S    
C16   C17   S    
C16   H28   S    
C111  H107  S    
C13   H13   S    
C47   C66   A    
C7    H3    S    
C22   H43   S    
C123  H141  S    
N3    Ni7   S    
C30   H56   S    
C17   H26   S    
C18   H37   S    
C116  H125  S    
N17   Ni2   S    
C27   H47   S    
C117  H121  S    
N26   Ni6   S    
C40   H72   S    
C11   C83   S    
C103  H100  S    
C29   H59   S    
C33   H62   S    
C91   H88   S    
C76   C93   D    
C5    C81   S    
C78   C95   D    
C113  H116  S    
C95   H92   S    
N7    Ni5   S    
N32   Ni5   S    
C24   N4    A    
C121  H131  S    
N3    N19   A    
C125  C126  S    
C64   C92   S    
C41   H73   S    
N15   Ni4   S    
C31   H69   S    
C113  C114  S    
C109  H112  S    
N31   Ni4   S    
C45   H77   S    
N8    Ni8   S    
C80   C98   D    
C70   C103  S    
C40   N11   A    
C27   H49   S    
C66   C108  S    
C119  C120  S    
C67   C106  S    
C73   C109  S    
C32   C33   S    
C41   C57   A    
C109  C110  S    
C9    H11   S    
C115  H126  S    
C125  H149  S    
C111  H105  S    
C24   C68   A    
C87   C104  D    
C35   N6    A    
C37   C72   A    
C49   H81   S    
C101  H98   S    
C8    H14   S    
C54   N25   A    
C113  H118  S    
C76   C90   S    
C126  H147  S    
N6    Ni6   S    
C117  H123  S    
C33   H64   S    
C10   H8    S    
C15   H29   S    
N10   N23   A    
C15   C16   S    
C116  C117  S    
C53   N24   A    
C60   C74   A    
C36   N7    A    
C119  H135  S    
N28   Ni3   S    
C8    C9    S    
C20   H31   S    
C10   H9    S    
N4    N20   A    
N11   N27   A    
C3    H155  S    
C114  H115  S    
C40   C59   A    
C86   C103  D    
C123  H140  S    
C112  C113  S    
C25   H53   S    
C6    C7    S    
C26   H50   S    
C5    H6    S    
N14   N29   A    
C37   H68   S    
C35   C70   A    
C32   H66   S    
C34   H35   S    
C116  H124  S    
C44   C62   A    
C93   H90   S    
C34   N5    A    
C34   C69   A    
C4    H153  S    
C115  H127  S    
C61   C85   A    
C75   C92   D    
C51   C70   A    
C12   C14   S    
C13   N3    A    
C37   N8    A    
C127  H144  S    
C107  H139  S    
C59   C97   S    
N9    N12   A    
C127  H146  S    
C81   C84   S    
C64   C107  A    
C13   C67   A    
C60   C91   S    
C107  N31   A    
C112  H120  S    
C99   H96   S    
N8    N25   A    
C35   H46   S    
C82   C100  D    
C77   C119  S    
C11   C12   S    
C14   H18   S    
C52   N23   A    
C47   H79   S    
C12   H20   S    
C128  H158  S    
N22   Ni5   S    
C20   H33   S    
C124  H138  S    
C102  H99   S    
C97   H93   S    
C47   N18   A    
C19   H36   S    
C100  H97   S    
C78   C122  S    
C51   H83   S    
C114  H113  S    
C54   C72   A    
C38   N9    A    
C65   C104  S    
C122  C123  S    
N4    Ni8   S    
