data_mof_unit_54005.cif
_audit_creation_date              2013-03-05T15:54:01-0500
_audit_creation_method            fapswitch 2.2
_symmetry_space_group_name_H-M    P1
_symmetry_Int_Tables_number       1
_space_group_crystal_system       triclinic
_cell_length_a                    15.743728
_cell_length_b                    10.723312
_cell_length_c                    9.891585
_cell_angle_alpha                 89.19791
_cell_angle_beta                  89.965254
_cell_angle_gamma                 91.748678
_cell_volume                      1669.0037721

loop_
_atom_site_label
_atom_site_type_symbol
_atom_site_description
_atom_site_fract_x
_atom_site_fract_y
_atom_site_fract_z
_atom_type_partial_charge
O1    O     O_R   0.500000 0.316780 0.614690 -0.657113
O2    O     O_R   0.499990 0.316750 0.385360 -0.637877
C1    C     C_R   0.504994 0.259807 0.502029 0.870681
O3    O     O_R   0.377150 0.500020 0.614720 -0.632195
O4    O     O_R   0.377140 0.499990 0.385380 -0.632882
C2    C     C_R   0.338371 0.499557 0.500100 0.884553
Zn1   Zn    Zn3+2 0.500010 0.500020 0.653130 0.934794
Zn2   Zn    Zn3+2 0.499990 0.499980 0.346870 0.949036
O5    O     O_R   0.500010 0.683250 0.614640 -0.627908
O6    O     O_R   0.500000 0.683220 0.385310 -0.620995
O7    O     O_R   0.622860 0.500010 0.614620 -0.613399
O8    O     O_R   0.622850 0.499980 0.385280 -0.600136
C3    C     C_R   0.491281 0.738824 0.499623 0.883981
C4    C     C_R   0.661646 0.500493 0.499890 0.917262
C5    C     C_3   0.046512 0.428399 0.619579 -0.354069
C6    C     C_3   0.049166 0.446525 0.366629 -0.528116
C7    C     C_3   0.950695 0.446978 0.364838 0.210194
H1    H     H_    0.919045 0.342575 0.632075 0.231495
H2    H     H_    0.063311 0.328909 0.608794 0.204015
H3    H     H_    0.074490 0.499931 0.277221 0.161779
H4    H     H_    0.072554 0.350059 0.357584 0.233014
H5    H     H_    0.931173 0.504799 0.276604 0.101689
C8    C     C_1   0.750534 0.503062 0.499534 -0.150322
C9    C     C_3   0.083012 0.506219 0.498731 0.126963
C10   C     C_3   0.949157 0.437411 0.623532 -0.383011
C11   C     C_3   0.917539 0.508948 0.496356 0.108979
C12   C     C_3   0.954073 0.646614 0.504924 -0.139411
C13   C     C_3   0.053456 0.643947 0.502697 0.176330
C14   C     C_1   0.825855 0.505909 0.498397 -0.044294
C15   C     C_1   0.174392 0.503011 0.499656 -0.022568
C16   C     C_1   0.249598 0.500973 0.500083 -0.142341
H6    H     H_    0.077492 0.690100 0.407823 0.115522
H7    H     H_    0.932456 0.683875 0.603333 0.216906
H8    H     H_    0.074474 0.459638 0.716924 0.220186
H9    H     H_    0.930611 0.487006 0.716676 0.190090
H10   H     H_    0.518281 0.114192 0.288833 0.175042
C17   C     C_R   0.512793 0.106663 0.762035 -0.158484
H11   H     H_    0.550086 0.191255 0.777830 0.177335
C18   C     C_R   0.483970 0.043069 0.878035 -0.150221
H12   H     H_    0.494833 0.082881 0.976764 0.149212
C19   C     C_R   0.439353 0.930039 0.866364 -0.149788
H13   H     H_    0.413516 0.882994 0.955501 0.147305
C20   C     C_R   0.431401 0.874915 0.740167 -0.118623
H14   H     H_    0.396503 0.786635 0.734705 0.173881
C21   C     C_R   0.467968 0.933466 0.623657 0.094698
C22   C     C_R   0.496750 0.057644 0.631470 0.092634
C23   C     C_R   0.507942 0.125734 0.507744 -0.112672
C24   C     C_R   0.508382 0.064424 0.383945 -0.205091
H15   H     H_    0.504852 0.891372 0.284896 0.170013
C25   C     C_R   0.497679 0.937501 0.380846 -0.208077
C26   C     C_R   0.480144 0.871196 0.500383 -0.117527
H16   H     H_    0.595220 0.640686 0.123258 0.148521
C27   C     C_R   0.388001 0.336642 0.142533 -0.161747
H17   H     H_    0.383933 0.330756 0.249738 0.206479
C28   C     C_R   0.332779 0.256576 0.073258 -0.203331
H18   H     H_    0.289843 0.193749 0.128645 0.163879
C29   C     C_R   0.332675 0.256988 0.933374 -0.171396
H19   H     H_    0.289917 0.194152 0.879644 0.168851
C30   C     C_R   0.388035 0.337119 0.861988 -0.152406
H20   H     H_    0.384967 0.330714 0.754888 0.207830
C31   C     C_R   0.444869 0.419552 0.928795 0.150994
C32   C     C_R   0.444880 0.419477 0.073519 0.170044
N1    N     N_R   0.499210 0.498800 0.142780 -0.121000
C33   C     C_R   0.552441 0.577434 0.070331 -0.109369
H21   H     H_    0.595147 0.640684 0.872098 0.156249
C34   C     C_R   0.552414 0.577403 0.927078 -0.108583
N2    N     N_R   0.499180 0.498720 0.857170 -0.126956
C35   C     C_3   0.919929 0.736021 0.393634 -0.518632
C36   C     C_3   0.939673 0.873099 0.425210 -0.694193
H22   H     H_    0.911405 0.897667 0.523886 0.263037
H23   H     H_    0.009286 0.892420 0.428233 0.276953
H24   H     H_    0.912127 0.933283 0.345247 0.270245
H25   H     H_    0.947677 0.715255 0.293463 0.221550
H26   H     H_    0.849853 0.724557 0.384764 0.235718
N3    N     N_R   0.914129 0.320593 0.345797 0.225755
O9    O     O_R   0.861572 0.299718 0.246619 -0.390627
O10   O     O_R   0.937126 0.227158 0.421300 -0.416297
N4    N     N_R   0.090629 0.712966 0.616838 0.213878
O11   O     O_R   0.067246 0.688080 0.740767 -0.413578
O12   O     O_R   0.145745 0.803697 0.593904 -0.402336

loop_
_geom_bond_atom_site_label_1
_geom_bond_atom_site_label_2
_geom_bond_distance
_ccdc_geom_bond_type
C28   H18   1.082777 S    
C6    H4    1.113307 S    
C19   H13   1.082565 S    
C20   H14   1.081980 S    
C18   C19   1.388485 A    
C27   H17   1.063192 S    
C12   H7    1.114364 S    
C5    H2    1.113506 S    
C11   C12   1.571313 S    
C17   H11   1.078685 S    
C7    C11   1.565576 S    
C8    C14   1.185339 T    
O4    C2    1.288055 A    
O7    C4    1.288258 A    
N4    O12   1.301186 A    
C5    C10   1.539221 S    
C21   C26   1.414163 A    
C35   H26   1.110012 S    
C36   H23   1.109646 S    
O5    C3    1.286308 A    
C12   C35   1.556473 S    
C3    C26   1.435677 S    
C35   C36   1.529695 S    
C13   N4    1.470636 S    
C5    H8    1.110737 S    
C6    H3    1.113783 S    
C24   C25   1.367081 A    
C2    C16   1.398160 S    
C30   H20   1.063605 S    
C6    C9    1.550675 S    
C19   C20   1.392713 A    
C36   H22   1.110846 S    
H1    C10   1.110960 S    
O3    Zn1   1.971463 S    
C27   C28   1.390755 A    
C30   C31   1.409783 A    
C13   H6    1.115334 S    
C34   N2    1.366156 A    
O3    C2    1.288029 A    
H16   C33   1.081772 S    
C18   H12   1.082894 S    
N4    O11   1.301438 A    
C6    C7    1.550574 S    
C10   C11   1.554291 S    
C21   C22   1.396625 A    
O1    C1    1.281870 A    
C33   C34   1.417009 A    
C4    C8    1.398859 S    
C36   H24   1.110586 S    
Zn1   O7    1.971048 S    
N3    O9    1.301159 A    
C32   N1    1.377374 A    
N3    O10   1.301625 A    
C27   C32   1.410911 A    
C31   N2    1.375467 A    
C23   C24   1.398087 A    
Zn2   O8    1.971461 S    
C25   C26   1.394244 A    
C20   C21   1.417990 A    
C10   H9    1.113473 S    
C5    C9    1.548377 S    
O8    C4    1.288077 A    
H21   C34   1.081763 S    
C28   C29   1.383613 A    
Zn1   O5    1.996139 S    
C22   C23   1.424369 A    
O1    Zn1   2.006605 S    
O2    Zn2   1.996140 S    
C9    C13   1.562964 S    
O6    C3    1.294844 A    
O4    Zn2   1.971049 S    
C7    H5    1.112405 S    
O2    C1    1.301612 A    
C35   H25   1.110773 S    
C17   C18   1.395022 A    
C29   H19   1.082784 S    
C15   C16   1.184908 T    
C1    C23   1.440192 S    
H10   C24   1.083935 S    
C31   C32   1.431540 A    
C9    C15   1.440152 S    
C29   C30   1.390382 A    
Zn2   N1    2.019033 S    
Zn1   N2    2.018165 S    
N1    C33   1.366064 A    
C11   C14   1.442938 S    
Zn2   O6    2.006605 S    
H15   C25   1.083819 S    
C12   C13   1.565935 S    
C7    N3    1.470813 S    
C17   C22   1.421041 A    
