data_mof_unit_22069.cif
_audit_creation_date              2012-10-26T19:52:46-0400
_audit_creation_method            fapswitch 2.2
_symmetry_space_group_name_H-M    P1
_symmetry_Int_Tables_number       1
_space_group_crystal_system       triclinic
_cell_length_a                    15.0326
_cell_length_b                    10.814968
_cell_length_c                    9.561882
_cell_angle_alpha                 89.988865
_cell_angle_beta                  89.52534
_cell_angle_gamma                 90.050544
_cell_volume                      1554.48894991

loop_
_atom_site_label
_atom_site_type_symbol
_atom_type_description
_atom_site_fract_x
_atom_site_fract_y
_atom_site_fract_z
_atom_type_partial_charge
C1    C     C_R   0.501684 0.262349 0.499964 0.535609
C2    C     C_R   0.185487 0.398423 0.573001 -0.048570
C3    C     C_R   0.232225 0.493239 0.501815 -0.007814
C4    C     C_R   0.328993 0.496979 0.500563 0.574300
C5    C     C_R   0.187045 0.584291 0.426613 0.359972
C6    C     C_R   0.514217 0.063537 0.625039 0.096290
C7    C     C_R   0.510938 0.129232 0.499502 -0.026062
C8    C     C_R   0.521236 0.064479 0.372838 -0.126668
C9    C     C_R   0.521509 0.935577 0.372786 -0.110478
C10   C     C_R   0.511262 0.870681 0.499377 0.012464
C11   C     C_R   0.514094 0.936265 0.624918 0.028660
C12   C     C_R   0.907457 0.589607 0.421579 0.032617
C13   C     C_3   0.454892 0.928940 0.750911 -0.185834
C14   C     C_3   0.455010 0.069367 0.751113 0.243342
C15   C     C_R   0.547506 0.586435 0.072135 0.123310
C16   C     C_R   0.501878 0.737611 0.499888 0.590775
C17   C     C_R   0.448027 0.420380 0.075144 0.057227
C18   C     C_R   0.448571 0.419707 0.926372 0.048906
C19   C     C_R   0.544445 0.589918 0.925238 0.178636
C20   C     C_3   0.640725 0.620925 0.912472 0.235998
C21   C     C_3   0.646369 0.609397 0.070623 -0.087683
C22   C     C_R   0.670944 0.501309 0.499665 0.596093
C23   C     C_R   0.948791 0.322254 0.658546 -0.096297
C24   C     C_R   0.814201 0.590532 0.422310 0.383082
C25   C     C_R   0.767202 0.501794 0.499657 0.000311
C26   C     C_R   0.811724 0.413968 0.579668 -0.176285
C27   C     C_R   0.904236 0.411043 0.579680 0.013945
C28   C     C_R   0.952694 0.498435 0.500145 -0.039187
C29   C     C_2   0.704120 0.500713 0.110064 0.244178
C30   C     C_2   0.235490 0.292975 0.634450 0.197560
C31   C     C_R   0.041199 0.317971 0.657615 -0.063576
C32   C     C_R   0.091466 0.402230 0.576677 0.037847
C33   C     C_R   0.046328 0.495060 0.500086 -0.025041
C34   C     C_R   0.094424 0.584937 0.423714 -0.035351
C35   C     C_R   0.049144 0.675207 0.346834 -0.060628
C36   C     C_R   0.956603 0.677498 0.344941 0.404356
Cu1   Cu    Cu3+1 0.500000 0.499980 0.640670 1.019038
Cu2   Cu    Cu3+1 0.500000 0.500020 0.359330 1.066110
F1    F     F_    0.768604 0.679305 0.352325 -0.590133
F2    F     F_    0.499100 0.117829 0.865225 -0.606059
F3    F     F_    0.652776 0.741403 0.867223 -0.607722
F4    F     F_    0.233897 0.673325 0.357291 -0.624191
F5    F     F_    0.915785 0.766161 0.268118 -0.545157
H1    H     H_    0.525149 0.887499 0.273529 0.167814
H2    H     H_    0.912056 0.255977 0.721534 0.143179
H3    H     H_    0.072367 0.249539 0.723355 0.175822
H4    H     H_    0.085302 0.744543 0.287470 0.211946
H5    H     H_    0.524633 0.112637 0.273595 0.188609
H6    H     H_    0.773168 0.516764 0.136603 0.155709
H7    H     H_    0.295299 0.308888 0.693973 0.114026
H8    H     H_    0.388690 0.888366 0.727299 0.110096
H9    H     H_    0.489275 0.887581 0.842162 0.219084
H10   H     H_    0.389097 0.112068 0.731289 0.126684
H11   H     H_    0.407220 0.354310 0.131404 0.128088
H12   H     H_    0.408515 0.352755 0.871414 0.134009
H13   H     H_    0.680802 0.552453 0.852723 0.158547
H14   H     H_    0.774015 0.346765 0.640176 0.146915
H15   H     H_    0.664647 0.696990 0.123982 0.202451
N1    N     N_R   0.500570 0.500930 0.147930 -0.222013
N2    N     N_R   0.500570 0.500890 0.852020 -0.263045
O1    O     O_R   0.500000 0.319640 0.618810 -0.491274
O2    O     O_2   0.212175 0.186435 0.613603 -0.502623
O3    O     O_R   0.500010 0.319680 0.381230 -0.507517
O4    O     O_R   0.370250 0.499950 0.618800 -0.543010
O5    O     O_R   0.370260 0.499990 0.381220 -0.461775
O6    O     O_R   0.499990 0.680320 0.618770 -0.479546
O7    O     O_R   0.500000 0.680360 0.381190 -0.496946
O8    O     O_R   0.629740 0.500010 0.618780 -0.512554
O9    O     O_R   0.629750 0.500050 0.381200 -0.453990
O10   O     O_2   0.675968 0.394723 0.106610 -0.466578

loop_
_geom_bond_atom_site_label_1
_geom_bond_atom_site_label_2
_ccdc_geom_bond_type
Cu1   O1    S    
C5    F4    S    
C8    H5    S    
C5    C34   A    
C6    C7    A    
C23   H2    S    
C23   C27   A    
C19   N2    A    
C6    C14   S    
C13   H9    S    
C9    C10   A    
C4    O4    A    
C22   O9    A    
C31   C32   A    
Cu2   O5    S    
C2    C30   S    
C20   H13   S    
C35   H4    S    
C32   C33   A    
C14   H10   S    
C19   C20   S    
C33   C34   A    
C30   H7    S    
Cu2   O9    S    
C21   H15   S    
C16   O7    A    
C29   H6    S    
C13   C14   S    
C20   C21   S    
C15   C19   A    
C11   C13   S    
C6    C11   A    
C22   O8    A    
C26   C27   A    
Cu1   Cu2   S    
C15   N1    A    
C18   H12   S    
C17   N1    A    
C1    O3    A    
C2    C32   A    
C12   C28   A    
C28   C33   A    
C20   F3    S    
C29   O10   D    
C2    C3    A    
C30   O2    D    
Cu1   O6    S    
C4    O5    A    
C34   C35   A    
C26   H14   S    
Cu1   N2    S    
C12   C36   A    
C10   C11   A    
C14   F2    S    
C3    C4    S    
Cu2   O7    S    
Cu1   O8    S    
C3    C5    A    
C15   C21   S    
Cu1   O4    S    
C16   O6    A    
C24   C25   A    
C17   C18   A    
Cu2   O3    S    
C18   N2    A    
C27   C28   A    
C7    C8    A    
C12   C24   A    
C36   F5    S    
C10   C16   S    
C1    C7    S    
C25   C26   A    
C13   H8    S    
C21   C29   S    
C24   F1    S    
C22   C25   S    
C17   H11   S    
C35   C36   A    
Cu2   N1    S    
C23   C31   A    
C8    C9    A    
C9    H1    S    
C31   H3    S    
C1    O1    A    
