data_mof_unit_22873.cif
_audit_creation_date              2012-10-26T18:26:16-0400
_audit_creation_method            fapswitch 2.2
_symmetry_space_group_name_H-M    P1
_symmetry_Int_Tables_number       1
_space_group_crystal_system       triclinic
_cell_length_a                    14.044065
_cell_length_b                    8.811646
_cell_length_c                    7.717775
_cell_angle_alpha                 104.175833
_cell_angle_beta                  92.723607
_cell_angle_gamma                 103.377037
_cell_volume                      895.366299744

loop_
_atom_site_label
_atom_site_type_symbol
_atom_type_description
_atom_site_fract_x
_atom_site_fract_y
_atom_site_fract_z
_atom_type_partial_charge
C1    C     C_R   0.496951 0.199332 0.452171 0.516049
C2    C     C_1   0.864812 0.485366 0.450016 0.022767
C3    C     C_2   0.495753 0.030012 0.428034 -0.142287
C4    C     C_2   0.504247 0.969988 0.571966 -0.142283
C5    C     C_2   0.015245 0.592099 0.761272 0.571074
C6    C     C_2   0.984754 0.407901 0.238724 0.571077
C7    C     C_R   0.386711 0.311891 0.961098 0.204372
C8    C     C_R   0.332506 0.222981 0.073929 -0.057558
C9    C     C_R   0.255028 0.083634 0.014901 -0.139174
C10   C     C_R   0.222804 0.020970 0.835318 -0.090134
C11   C     C_R   0.267177 0.100315 0.716642 -0.167012
C12   C     C_R   0.503048 0.800667 0.547829 0.516046
C13   C     C_R   0.344508 0.240291 0.777424 -0.073181
C14   C     C_R   0.613296 0.688097 0.038899 0.204374
C15   C     C_R   0.667505 0.776999 0.926066 -0.057554
C16   C     C_R   0.745008 0.916308 0.985086 -0.139171
C17   C     C_R   0.777249 0.978949 0.164664 -0.090139
C18   C     C_R   0.732860 0.899627 0.283345 -0.167008
C19   C     C_R   0.655503 0.759689 0.222571 -0.073178
C20   C     C_R   0.319589 0.502575 0.525026 0.522426
C21   C     C_R   0.680411 0.497425 0.474974 0.522427
C22   C     C_1   0.780859 0.491866 0.464660 0.050700
C23   C     C_1   0.219141 0.508134 0.535340 0.050692
C24   C     C_2   0.965051 0.475824 0.427518 0.008432
C25   C     C_2   0.034948 0.524178 0.572479 0.008428
C26   C     C_1   0.135188 0.514635 0.549982 0.022752
Cu1   Cu    Cu3+1 0.510540 0.517220 0.682700 0.926144
Cu2   Cu    Cu3+1 0.489460 0.482780 0.317300 0.926145
H1    H     H_    0.487979 0.954550 0.291238 0.149071
H2    H     H_    0.656631 0.750689 0.786678 0.177106
H3    H     H_    0.780459 0.975791 0.889108 0.133793
H4    H     H_    0.837088 0.086648 0.211323 0.153277
H5    H     H_    0.759136 0.946455 0.425395 0.111574
H6    H     H_    0.638842 0.724034 0.336476 0.178507
H7    H     H_    0.512021 0.045450 0.708762 0.149077
H8    H     H_    0.928688 0.694552 0.930781 0.357739
H9    H     H_    0.071317 0.305471 0.069210 0.357743
H10   H     H_    0.343366 0.249313 0.213320 0.177107
H11   H     H_    0.219583 0.024141 0.110877 0.133789
H12   H     H_    0.162985 0.913241 0.788652 0.153278
H13   H     H_    0.240907 0.053478 0.574589 0.111574
H14   H     H_    0.361155 0.275968 0.663525 0.178507
N1    N     N_2   0.473570 0.456830 0.042740 -0.144551
N2    N     N_2   0.526430 0.543170 0.957260 -0.144552
O1    O     O_R   0.506850 0.286020 0.618680 -0.521202
O2    O     O_R   0.932087 0.651441 0.797355 -0.700248
O3    O     O_2   0.925733 0.400554 0.113186 -0.496289
O4    O     O_R   0.067920 0.348585 0.202637 -0.700243
O5    O     O_R   0.493150 0.713980 0.381320 -0.521207
O6    O     O_R   0.489050 0.256940 0.310110 -0.523921
O7    O     O_R   0.510950 0.743060 0.689890 -0.523923
O8    O     O_R   0.372320 0.516630 0.676100 -0.514657
O9    O     O_R   0.627680 0.483370 0.323900 -0.514652
O10   O     O_R   0.354510 0.487550 0.367530 -0.512813
O11   O     O_R   0.645490 0.512450 0.632470 -0.512814
O12   O     O_2   0.074259 0.599425 0.886812 -0.496296

loop_
_geom_bond_atom_site_label_1
_geom_bond_atom_site_label_2
_ccdc_geom_bond_type
C2    C22   T    
Cu2   O9    S    
H8    O2    S    
C7    N1    S    
C4    C12   S    
C1    O6    A    
C5    O12   D    
C20   C23   S    
C7    C13   A    
N1    N2    D    
H9    O4    S    
C6    C24   S    
Cu1   O1    S    
C17   C18   A    
C4    H7    S    
C7    C8    A    
C20   O8    A    
C21   C22   S    
Cu1   O8    S    
C16   H3    S    
C21   O9    A    
C3    H1    S    
C11   C13   A    
C1    O1    A    
C5    O2    S    
C6    O4    S    
C5    C25   S    
Cu1   N2    S    
C9    C10   A    
C14   N2    S    
C13   H14   S    
Cu1   O7    S    
C11   H13   S    
C8    H10   S    
C2    C24   S    
C18   H5    S    
Cu1   O11   S    
C12   O5    A    
C10   C11   A    
C3    C4    D    
C6    O3    D    
C9    H11   S    
C12   O7    A    
C24   C25   D    
C15   H2    S    
C20   O10   A    
C18   C19   A    
Cu2   O5    S    
C23   C26   T    
Cu1   Cu2   S    
C21   O11   A    
C17   H4    S    
Cu2   O10   S    
C14   C15   A    
C8    C9    A    
C10   H12   S    
Cu2   N1    S    
C25   C26   S    
Cu2   O6    S    
C14   C19   A    
C15   C16   A    
C16   C17   A    
C1    C3    S    
C19   H6    S    
