data_mof_unit_26748.cif
_audit_creation_date              2013-03-05T16:31:37-0500
_audit_creation_method            fapswitch 2.2
_symmetry_space_group_name_H-M    P1
_symmetry_Int_Tables_number       1
_space_group_crystal_system       triclinic
_cell_length_a                    9.594924
_cell_length_b                    10.84532
_cell_length_c                    15.365412
_cell_angle_alpha                 87.949139
_cell_angle_beta                  74.664666
_cell_angle_gamma                 88.602249
_cell_volume                      1540.82198376

loop_
_atom_site_label
_atom_site_type_symbol
_atom_site_description
_atom_site_fract_x
_atom_site_fract_y
_atom_site_fract_z
_atom_type_partial_charge
O1    O     O_R   0.118810 0.319640 0.500000 -0.542083
O2    O     O_R   0.881230 0.319680 0.499990 -0.594507
C1    C     C_R   0.001582 0.262215 0.497910 0.818904
O3    O     O_R   0.055580 0.499970 0.629840 -0.519363
O4    O     O_R   0.818000 0.500010 0.629830 -0.589953
C2    C     C_R   0.918409 0.500498 0.672438 0.837444
Cu1   Cu    Cu3+1 0.140670 0.499980 0.500000 1.006800
Cu2   Cu    Cu3+1 0.859330 0.500020 0.500000 0.953849
O5    O     O_R   0.118770 0.680320 0.500010 -0.577342
O6    O     O_R   0.881190 0.680360 0.500000 -0.583877
O7    O     O_R   0.182000 0.499990 0.370170 -0.593274
O8    O     O_R   0.944420 0.500030 0.370160 -0.582493
C3    C     C_R   0.999854 0.737489 0.496715 0.797151
C4    C     C_R   0.081573 0.502265 0.327555 0.779254
C5    C     C_R   0.873203 0.501626 0.771743 -0.078916
C6    C     C_R   0.127425 0.518656 0.228645 -0.041358
C7    C     C_R   0.923220 0.468786 0.917174 -0.172646
C8    C     C_R   0.971303 0.475933 0.823353 -0.069267
C9    C     C_R   0.727704 0.525489 0.815258 -0.238903
C10   C     C_R   0.677443 0.523552 0.910007 0.123375
C11   C     C_R   0.776988 0.490154 0.960717 0.153759
C12   C     C_R   0.530128 0.548957 0.955414 0.006617
C13   C     C_R   0.480608 0.524311 0.049827 0.071021
C14   C     C_R   0.583897 0.491641 0.098020 -0.187205
C15   C     C_R   0.729381 0.476992 0.054232 -0.223152
C16   C     C_R   0.432767 0.602738 0.909843 -0.268648
C17   C     C_R   0.287792 0.625602 0.953639 0.305829
C18   C     C_R   0.233848 0.587707 0.044888 0.030715
C19   C     C_R   0.330211 0.536371 0.093271 0.051785
C20   C     C_R   0.085290 0.598885 0.088942 -0.151377
C21   C     C_R   0.033330 0.566783 0.180167 -0.214241
C22   C     C_R   0.272624 0.498004 0.183939 -0.212627
H1    H     H_    0.804683 0.452513 0.093867 0.143552
H2    H     H_    0.338540 0.450896 0.221817 0.135173
H3    H     H_    0.920363 0.582691 0.213015 0.147017
H4    H     H_    0.000144 0.444506 0.955659 0.142245
H5    H     H_    0.084305 0.458061 0.791449 0.212403
H6    H     H_    0.654022 0.540628 0.773709 0.163729
H7    H     H_    0.556951 0.480556 0.170382 0.131830
H8    H     H_    0.469114 0.636232 0.840812 0.186420
H9    H     H_    0.007791 0.633411 0.053876 0.188567
C23   C     C_R   0.132358 0.060588 0.470692 0.063329
C24   C     C_R   0.003699 0.129058 0.487522 -0.094425
C25   C     C_R   0.875220 0.067379 0.489001 -0.182630
H10   H     H_    0.773844 0.117346 0.496337 0.180870
C26   C     C_R   0.874160 0.938740 0.487748 -0.202143
H11   H     H_    0.772433 0.893161 0.494630 0.169300
C27   C     C_R   0.001595 0.870650 0.484930 -0.082507
C28   C     C_R   0.131474 0.933464 0.468989 0.107332
C29   C     C_3   0.248926 0.918509 0.515652 -0.458899
C30   C     C_3   0.247174 0.057592 0.519521 -0.342462
H12   H     H_    0.212863 0.871751 0.583286 0.231786
H13   H     H_    0.350368 0.880800 0.470902 0.192162
H14   H     H_    0.204540 0.089593 0.589558 0.267215
H15   H     H_    0.348640 0.100018 0.478308 0.215699
C31   C     C_R   0.588164 0.594213 0.458590 0.246272
N1    N     N_R   0.648210 0.500930 0.499430 -0.220333
C32   C     C_R   0.559144 0.415423 0.548725 -0.117225
H16   H     H_    0.604331 0.347179 0.587000 0.196949
C33   C     C_R   0.411364 0.412268 0.548777 0.393103
N2    N     N_R   0.352300 0.500890 0.499430 -0.241842
C34   C     C_R   0.441036 0.594677 0.458929 0.202208
C35   C     C_3   0.475795 0.633416 0.361579 -0.478809
C36   C     C_3   0.634055 0.632339 0.361310 -0.501516
H17   H     H_    0.450470 0.561659 0.318759 0.208245
H18   H     H_    0.432691 0.727132 0.350937 0.197122
H19   H     H_    0.697771 0.559064 0.318898 0.206200
H20   H     H_    0.682761 0.725442 0.350568 0.197268
N3    N     N_R   0.332103 0.309564 0.598266 0.105363
O9    O     O_R   0.206659 0.326051 0.654226 -0.359072
O10   O     O_R   0.403868 0.209892 0.610647 -0.432030
N4    N     N_R   0.198795 0.691040 0.904616 0.112782
O11   O     O_R   0.217645 0.672523 0.819028 -0.376912
O12   O     O_R   0.121590 0.786086 0.939721 -0.348604

loop_
_geom_bond_atom_site_label_1
_geom_bond_atom_site_label_2
_geom_bond_distance
_ccdc_geom_bond_type
C5    C8    1.399528 A    
C35   H17   1.108157 S    
C9    C10   1.406938 A    
Cu1   Cu2   2.699424 S    
C6    C21   1.395467 A    
Cu1   O7    1.928317 S    
C1    C24   1.457662 S    
C16   C17   1.396166 A    
C36   H20   1.111520 S    
C18   C19   1.423512 A    
C8    H5    1.081153 S    
C19   C22   1.407789 A    
O4    C2    1.300356 A    
O7    C4    1.299729 A    
C32   C33   1.418968 A    
C14   H7    1.075852 S    
C31   N1    1.366226 A    
N3    O10   1.302725 A    
O5    C3    1.297164 A    
Cu1   N2    2.028539 S    
C2    C5    1.472270 S    
C29   H12   1.112437 S    
C13   C14   1.417154 A    
C31   C36   1.488514 S    
C20   H9    1.080439 S    
C7    H4    1.083521 S    
C23   C30   1.487041 S    
C31   C34   1.410198 A    
C35   H18   1.110937 S    
N3    O9    1.293499 A    
O3    Cu1   1.945563 S    
C25   C26   1.396276 A    
C7    C8    1.392490 A    
C26   C27   1.404455 A    
C29   H13   1.110911 S    
C36   H19   1.110232 S    
C14   C15   1.387997 A    
O3    C2    1.305728 A    
C32   H16   1.081529 S    
C7    C11   1.403094 A    
C33   N2    1.403003 A    
O1    C1    1.307196 A    
C22   H2    1.075835 S    
C5    C9    1.401431 A    
C24   C25   1.411370 A    
C34   C35   1.491047 S    
C9    H6    1.076990 S    
Cu2   N1    2.027798 S    
C3    C27   1.448990 S    
Cu2   O8    1.945563 S    
C29   C30   1.511207 S    
N4    O12   1.301324 A    
C27   C28   1.394649 A    
C10   C12   1.426091 A    
C21   H3    1.080331 S    
C23   C24   1.393696 A    
C13   C19   1.425703 A    
C25   H10   1.083124 S    
Cu1   O5    1.961999 S    
C11   C15   1.391061 A    
C26   H11   1.083246 S    
C4    C6    1.471637 S    
O1    Cu1   1.972140 S    
O2    Cu2   1.961997 S    
O8    C4    1.306018 A    
N4    O11   1.301467 A    
O6    C3    1.297908 A    
O4    Cu2   1.928314 S    
C6    C22   1.397334 A    
C30   H14   1.110336 S    
C18   C20   1.411294 A    
O2    C1    1.292178 A    
C16   H8    1.077761 S    
N1    C32   1.345373 A    
C20   C21   1.392289 A    
C33   N3    1.439481 S    
C30   H15   1.111502 S    
N2    C34   1.365083 A    
C23   C28   1.380164 A    
C35   C36   1.517166 S    
C10   C11   1.416744 A    
Cu2   O6    1.972140 S    
C28   C29   1.490147 S    
C12   C16   1.411873 A    
C17   C18   1.409930 A    
C12   C13   1.419711 A    
C17   N4    1.439673 S    
C15   H1    1.084072 S    
