data_mof_unit_32608.cif
_audit_creation_date              2012-12-11T15:29:47-0500
_audit_creation_method            fapswitch 2.2
_symmetry_space_group_name_H-M    P1
_symmetry_Int_Tables_number       1
_space_group_crystal_system       triclinic
_cell_length_a                    13.493535
_cell_length_b                    13.506756
_cell_length_c                    27.559127
_cell_angle_alpha                 90.611824
_cell_angle_beta                  90.078838
_cell_angle_gamma                 59.991634
_cell_volume                      4349.17568554

loop_
_atom_site_label
_atom_site_type_symbol
_atom_type_description
_atom_site_fract_x
_atom_site_fract_y
_atom_site_fract_z
_atom_type_partial_charge
C1    C     C_R   0.620640 0.101340 0.569725 0.544601
C2    C     C_1   0.651456 0.703402 0.657493 -0.042783
C3    C     C_3   0.070280 0.148509 0.734333 -0.128508
C4    C     C_R   0.599918 0.779114 0.568368 0.552814
C5    C     C_3   0.159657 0.070461 0.772033 -0.013644
C6    C     C_1   0.091657 0.203049 0.899255 0.014168
C7    C     C_1   0.223650 0.140815 0.615732 -0.006048
C8    C     C_3   0.042594 0.254385 0.766880 -0.150942
C9    C     C_3   0.132280 0.174575 0.804078 0.075597
C10   C     C_3   0.136976 0.267775 0.740491 -0.099815
C11   C     C_3   0.164923 0.161640 0.709038 -0.001321
C12   C     C_1   0.632108 0.731107 0.615683 -0.000463
C13   C     C_3   0.224429 0.187239 0.777656 0.271112
C14   C     C_3   0.255114 0.081312 0.745956 -0.089450
C15   C     C_1   0.114380 0.186064 0.856682 0.009208
C16   C     C_R   0.276780 0.122186 0.569023 0.548426
C17   C     C_1   0.191104 0.152176 0.657137 -0.047932
C18   C     C_3   0.621072 0.274858 0.739761 0.268701
C19   C     C_3   0.555838 0.245551 0.777330 -0.089788
C20   C     C_1   0.692539 0.206405 0.901332 0.003655
C21   C     C_1   0.637063 0.133368 0.617433 -0.001441
C22   C     C_3   0.731665 0.215880 0.769620 -0.094591
C23   C     C_3   0.707152 0.556914 0.766230 -0.129817
C24   C     C_3   0.667259 0.183568 0.806773 0.017647
C25   C     C_3   0.767218 0.102551 0.741526 -0.133015
C26   C     C_3   0.656176 0.164336 0.711819 0.080257
C27   C     C_3   0.703584 0.070337 0.779555 -0.106293
C28   C     C_R   0.621937 0.100236 0.431544 0.540229
C29   C     C_3   0.592335 0.132014 0.749182 -0.131862
C30   C     C_1   0.677141 0.194789 0.859138 -0.035108
C31   C     C_1   0.647272 0.151241 0.659502 -0.010748
C32   C     C_R   0.621686 0.752293 0.378926 0.083100
C33   C     C_R   0.725774 0.662864 0.361011 0.226865
C34   C     C_3   0.684432 0.650856 0.804176 0.079746
C35   C     C_R   0.742464 0.650236 0.310510 -0.072551
C36   C     C_R   0.657500 0.728463 0.279455 0.055038
C37   C     C_R   0.557732 0.820900 0.298065 -0.116604
C38   C     C_R   0.539235 0.831765 0.347469 -0.155528
C39   C     C_R   0.586207 0.675346 0.207207 -0.063400
C40   C     C_R   0.600711 0.778765 0.430046 0.597244
C41   C     C_R   0.596600 0.643841 0.158973 -0.161838
C42   C     C_R   0.759298 0.674051 0.149539 -0.038226
C43   C     C_R   0.748180 0.708030 0.198990 0.222891
C44   C     C_R   0.663882 0.704420 0.227582 0.044045
C45   C     C_3   0.596117 0.642049 0.739307 -0.094251
C46   C     C_R   0.686023 0.636405 0.130419 -0.039205
C47   C     C_R   0.215290 0.144237 0.385252 -0.030473
C48   C     C_R   0.194289 0.062202 0.363340 -0.068037
C49   C     C_R   0.151441 0.077257 0.316118 0.246108
C50   C     C_R   0.133842 0.174527 0.289839 0.017969
C51   C     C_R   0.148928 0.258852 0.313150 -0.158231
C52   C     C_R   0.278615 0.120461 0.430968 0.536975
C53   C     C_R   0.187740 0.244631 0.360414 -0.139822
C54   C     C_R   0.026747 0.294874 0.220163 -0.122383
C55   C     C_R   0.012234 0.313546 0.170726 -0.106851
C56   C     C_3   0.666342 0.681568 0.709557 0.014137
C57   C     C_R   0.157131 0.116142 0.154623 -0.127579
C58   C     C_R   0.174939 0.098437 0.204495 -0.114613
C59   C     C_R   0.109016 0.187756 0.237544 0.014222
C60   C     C_R   0.077262 0.224591 0.137731 0.038519
C61   C     C_R   0.641072 0.139552 0.385064 0.020024
C62   C     C_R   0.548332 0.231218 0.361808 -0.119761
C63   C     C_R   0.555862 0.251410 0.313095 -0.113908
C64   C     C_3   0.777272 0.596474 0.735537 -0.113458
C65   C     C_R   0.656827 0.181567 0.287116 0.029487
C66   C     C_R   0.752913 0.096477 0.311386 -0.104467
C67   C     C_3   0.576307 0.734044 0.777367 0.267898
C68   C     C_R   0.744959 0.075203 0.360079 -0.109070
C69   C     C_R   0.717001 0.097412 0.204281 -0.114493
C70   C     C_R   0.728743 0.109626 0.154965 -0.117377
C71   C     C_R   0.618225 0.315958 0.164724 -0.121815
C72   C     C_R   0.608123 0.303794 0.214118 -0.118351
C73   C     C_R   0.660376 0.194512 0.234467 0.026934
C74   C     C_R   0.682558 0.219050 0.135238 0.024688
C75   C     C_R   0.049046 0.235236 0.947764 0.544628
C76   C     C_3   0.754527 0.690208 0.774274 -0.133173
C77   C     C_R   0.712049 0.561734 0.946432 0.546385
C78   C     C_3   0.643496 0.776012 0.747331 -0.087944
C79   C     C_R   0.722606 0.223998 0.949159 0.546840
C80   C     C_R   0.045735 0.245181 0.086866 0.534905
C81   C     C_R   0.708673 0.573032 0.084254 0.543482
C82   C     C_R   0.719782 0.233402 0.087463 0.541156
C83   C     C_1   0.698354 0.606184 0.898529 0.007009
C84   C     C_1   0.499640 0.669201 0.235890 0.180689
C85   C     C_1   0.844609 0.677643 0.118950 0.200004
C86   C     C_1   0.170161 0.963510 0.789545 0.196548
C87   C     C_1   0.691149 0.631168 0.856411 -0.003031
Cr1   Cr    Cr6+3 0.417550 0.169090 0.500530 1.036277
Cr2   Cr    Cr6+3 0.669180 0.913420 0.499920 1.059696
Cr3   Cr    Cr6+3 0.413260 0.917540 0.499520 1.037740
Cr4   Cr    Cr6+3 0.909770 0.175810 0.018240 1.047891
Cr5   Cr    Cr6+3 0.913300 0.427650 0.016090 1.065257
Cr6   Cr    Cr6+3 0.657770 0.431010 0.016900 1.040427
H1    H     H_    0.819484 0.709668 0.789134 0.119106
H2    H     H_    0.538493 0.617171 0.144764 0.151515
H3    H     H_    0.819171 0.578385 0.295379 0.107942
H4    H     H_    0.492102 0.881551 0.274114 0.130780
H5    H     H_    0.460863 0.903828 0.361344 0.131482
H6    H     H_    0.213392 0.984977 0.382437 0.158906
H7    H     H_    0.974400 0.364625 0.244933 0.110194
H8    H     H_    0.947058 0.396829 0.158203 0.130939
H9    H     H_    0.615529 0.866632 0.739305 0.107732
H10   H     H_    0.240599 0.015784 0.217265 0.146301
H11   H     H_    0.205814 0.046271 0.129386 0.118359
H12   H     H_    0.128789 0.348938 0.727350 0.115979
H13   H     H_    0.136313 0.333824 0.293919 0.125396
H14   H     H_    0.202667 0.309660 0.376347 0.149425
H15   H     H_    0.467046 0.282517 0.380180 0.137263
H16   H     H_    0.754760 0.012144 0.219013 0.141625
H17   H     H_    0.778298 0.033857 0.132710 0.140644
H18   H     H_    0.480597 0.317537 0.295214 0.118508
H19   H     H_    0.564269 0.379965 0.236658 0.128223
H20   H     H_    0.582997 0.401390 0.150420 0.133081
H21   H     H_    0.832946 0.043971 0.292305 0.129633
H22   H     H_    0.817997 0.004802 0.377353 0.147990
H23   H     H_    0.955373 0.325155 0.775977 0.107317
H24   H     H_    0.529543 0.624828 0.724612 0.132727
H25   H     H_    0.733650 0.466839 0.774606 0.108582
H26   H     H_    0.006463 0.132219 0.715938 0.121629
H27   H     H_    0.343076 0.011997 0.736915 0.109023
H28   H     H_    0.342823 0.225545 0.775115 0.310572
H29   H     H_    0.555184 0.437016 0.745152 0.314209
H30   H     H_    0.874846 0.531368 0.374237 0.322795
H31   H     H_    0.873325 0.742795 0.197633 0.333267
H32   H     H_    0.077390 0.027427 0.269163 0.329265
H33   H     H_    0.413537 0.829292 0.774925 0.320446
H34   H     H_    0.469708 0.305836 0.792297 0.131274
H35   H     H_    0.536175 0.096302 0.740069 0.111492
H36   H     H_    0.737372 0.985459 0.796664 0.129158
H37   H     H_    0.853734 0.043936 0.726434 0.117821
H38   H     H_    0.787987 0.251673 0.778287 0.099929
H39   H     H_    0.860586 0.539047 0.717541 0.123630
N1    N     N_1   0.430494 0.664211 0.258807 -0.277759
N2    N     N_1   0.912782 0.680611 0.094534 -0.287037
N3    N     N_1   0.178316 0.879177 0.803379 -0.274677
O1    O     O_R   0.301780 0.195490 0.553940 -0.500266
O2    O     O_R   0.636050 0.541380 0.962520 -0.495335
O3    O     O_R   0.666480 0.323610 0.968170 -0.492335
O4    O     O_R   0.522450 0.158840 0.550250 -0.488870
O5    O     O_R   0.817280 0.156800 0.072180 -0.508539
O6    O     O_R   0.005110 0.187160 0.067410 -0.495506
O7    O     O_R   0.026450 0.340060 0.069950 -0.502626
O8    O     O_R   0.808300 0.527240 0.065170 -0.486173
O9    O     O_R   0.634070 0.548770 0.069460 -0.521337
O10   O     O_R   0.664650 0.330470 0.067300 -0.504735
O11   O     O_3   0.826940 0.344820 0.017080 -0.262988
O12   O     O_R   0.658840 0.818280 0.449970 -0.471615
O13   O     O_R   0.694460 0.003360 0.553820 -0.507700
O14   O     O_R   0.657750 0.819520 0.549120 -0.492734
O15   O     O_R   0.501990 0.803120 0.552700 -0.500598
O16   O     O_R   0.318230 0.023430 0.549370 -0.493405
O17   O     O_R   0.302950 0.194150 0.446980 -0.513804
O18   O     O_R   0.523540 0.157600 0.451100 -0.506223
O19   O     O_R   0.695630 0.002030 0.446860 -0.511124
O20   O     O_3   0.304493 0.207298 0.801276 -0.681656
O21   O     O_3   0.578421 0.381297 0.717891 -0.693522
O22   O     O_3   0.807414 0.588797 0.393008 -0.694024
O23   O     O_R   0.503160 0.801780 0.445740 -0.521652
O24   O     O_3   0.817586 0.743616 0.221076 -0.710168
O25   O     O_3   0.129264 0.995260 0.297260 -0.698769
O26   O     O_3   0.472143 0.805726 0.800630 -0.668983
O27   O     O_R   0.319320 0.022190 0.450230 -0.511358
O28   O     O_3   0.499990 0.000010 0.499990 -0.263357
O29   O     O_R   0.819250 0.149410 0.965240 -0.500586
O30   O     O_R   0.006940 0.180310 0.968270 -0.494321
O31   O     O_R   0.028420 0.332670 0.963010 -0.497383
O32   O     O_R   0.810130 0.520390 0.966030 -0.494231

loop_
_geom_bond_atom_site_label_1
_geom_bond_atom_site_label_2
_ccdc_geom_bond_type
Cr2   O13   S    
C83   C87   T    
C63   C65   A    
C1    C21   S    
C23   C45   S    
C22   H38   S    
C78   H9    S    
C16   O16   A    
C66   C68   A    
C35   C36   A    
C18   C26   S    
C24   C27   S    
C79   O29   A    
Cr3   O15   S    
C2    C12   T    
C23   H25   S    
C37   H4    S    
Cr2   O19   S    
H32   O25   S    
C56   C78   S    
C6    C75   S    
C39   C41   A    
C20   C30   T    
C35   H3    S    
C5    C9    S    
C4    O14   A    
C21   C31   T    
C62   C63   A    
Cr3   O27   S    
C50   C59   S    
C40   O23   A    
C36   C37   A    
C77   O2    A    
C39   C84   S    
C43   O24   S    
C11   C14   S    
C62   H15   S    
C77   C83   S    
H31   O24   S    
Cr5   O32   S    
C65   C73   S    
C27   C29   S    
C71   H20   S    
C18   C19   S    
C42   C46   A    
C48   H6    S    
Cr5   O8    S    
C9    C13   S    
C13   O20   S    
C82   O5    A    
Cr6   O3    S    
C70   H17   S    
C76   H1    S    
C6    C15   T    
C10   H12   S    
C69   H16   S    
C81   O9    A    
C60   C80   S    
C64   H39   S    
C45   C56   S    
C8    C9    S    
C7    C17   T    
C22   C25   S    
C70   C74   A    
C41   C46   A    
C56   C64   S    
C49   O25   S    
C69   C73   A    
C32   C38   A    
C4    C12   S    
H33   O26   S    
H28   O20   S    
C1    O4    A    
C38   H5    S    
C85   N2    T    
C47   C53   A    
C28   C61   S    
Cr2   O14   S    
C26   C31   S    
C55   C60   A    
C28   O19   A    
Cr1   O17   S    
C54   H7    S    
C61   C62   A    
C67   C78   S    
C74   C82   S    
C25   H37   S    
C33   O22   S    
C54   C59   A    
C84   N1    T    
Cr5   O11   S    
Cr6   O2    S    
Cr1   O1    S    
C3    C8    S    
C72   C73   A    
C57   C60   A    
H30   O22   S    
C25   C26   S    
C51   C53   A    
Cr3   O23   S    
C43   C44   A    
Cr1   O4    S    
C45   C67   S    
C37   C38   A    
C46   C81   S    
C67   O26   S    
C47   C48   A    
C52   O17   A    
C23   C34   S    
C72   H19   S    
C50   C51   A    
C64   C76   S    
Cr6   O11   S    
C75   O30   A    
C42   C85   S    
Cr6   O10   S    
C53   H14   S    
C5    C14   S    
C39   C44   A    
Cr6   O9    S    
C3    H26   S    
C5    C86   S    
C23   C64   S    
C65   C66   A    
C14   H27   S    
C28   O18   A    
C27   H36   S    
C49   C50   A    
C22   C24   S    
Cr4   O29   S    
C36   C44   S    
C25   C27   S    
C42   C43   A    
C19   C29   S    
C82   O10   A    
C18   O21   S    
C45   H24   S    
Cr2   O12   S    
C57   H11   S    
C54   C55   A    
C11   C17   S    
C66   H21   S    
C20   C79   S    
C18   C22   S    
H29   O21   S    
Cr4   O30   S    
C7    C16   S    
C76   C78   S    
Cr3   O16   S    
C3    C5    S    
C10   C13   S    
C34   C67   S    
C71   C74   A    
C47   C52   S    
C77   O32   A    
Cr1   O28   S    
C4    O15   A    
C55   H8    S    
C80   O7    A    
Cr3   O28   S    
C32   C33   A    
C19   C24   S    
C58   C59   A    
C71   C72   A    
C2    C56   S    
Cr1   O18   S    
C61   C68   A    
C57   C58   A    
C41   H2    S    
C51   H13   S    
C48   C49   A    
C19   H34   S    
Cr5   O7    S    
C33   C35   A    
Cr2   O28   S    
C75   O31   A    
C34   C87   S    
C32   C40   S    
C63   H18   S    
C69   C70   A    
C24   C30   S    
C3    C11   S    
C10   C11   S    
C8    H23   S    
C68   H22   S    
Cr4   O5    S    
Cr5   O31   S    
C86   N3    T    
C81   O8    A    
C79   O3    A    
C26   C29   S    
C8    C10   S    
C80   O6    A    
C29   H35   S    
C34   C76   S    
C1    O13   A    
C58   H10   S    
C13   C14   S    
C40   O12   A    
Cr4   O11   S    
C9    C15   S    
C52   O27   A    
Cr4   O6    S    
C16   O1    A    
