data_mof_unit_22276.cif
_audit_creation_date              2012-12-11T16:43:09-0500
_audit_creation_method            fapswitch 2.2
_symmetry_space_group_name_H-M    P1
_symmetry_Int_Tables_number       1
_space_group_crystal_system       triclinic
_cell_length_a                    6.929848
_cell_length_b                    23.286153
_cell_length_c                    25.799559
_cell_angle_alpha                 104.874281
_cell_angle_beta                  90.303925
_cell_angle_gamma                 90.469917
_cell_volume                      4023.50330304

loop_
_atom_site_label
_atom_site_type_symbol
_atom_type_description
_atom_site_fract_x
_atom_site_fract_y
_atom_site_fract_z
_atom_type_partial_charge
O1    O     O_R   0.505750 0.453350 0.547660 -0.540039
O2    O     O_R   0.170990 0.432220 0.437590 -0.543592
O3    O     O_R   0.005600 0.546650 0.452340 -0.539731
C1    C     C_R   0.339565 0.415313 0.417604 0.714100
O4    O     O_R   0.175720 0.446240 0.546340 -0.542938
O5    O     O_R   0.010370 0.560770 0.561860 -0.537782
C2    C     C_R   0.344824 0.433766 0.562476 0.691286
O6    O     O_R   0.500990 0.439230 0.438140 -0.537867
O7    O     O_3   0.340820 0.537560 0.504970 -0.367396
V1    V     V_3+5 0.064050 0.493030 0.499080 1.383617
O8    O     O_R   0.680940 0.567780 0.562410 -0.541114
C3    C     C_R   0.850816 0.584526 0.582459 0.716489
O9    O     O_R   0.676210 0.553760 0.453660 -0.541383
C4    C     C_R   0.845138 0.565883 0.437212 0.692765
V2    V     V_3+5 0.564640 0.506970 0.500920 1.394871
O10   O     O_3   0.837740 0.462440 0.495030 -0.372927
C5    C     C_R   0.772803 0.876234 0.115383 -0.161226
H1    H     H_    0.640111 0.888577 0.098882 0.120987
C6    C     C_R   0.761372 0.840601 0.151492 -0.142726
H2    H     H_    0.620508 0.826020 0.161208 0.099937
C7    C     C_R   0.929401 0.823290 0.174094 0.094694
C8    C     C_R   0.109403 0.842328 0.159250 -0.140515
H3    H     H_    0.241694 0.830639 0.176401 0.099342
C9    C     C_R   0.120931 0.877816 0.122948 -0.159957
H4    H     H_    0.261874 0.891970 0.112831 0.117637
C10   C     C_R   0.952692 0.895405 0.100634 -0.055396
C11   C     C_R   0.053276 0.741226 0.212576 -0.150675
H5    H     H_    0.168170 0.732890 0.183400 0.110708
C12   C     C_R   0.041029 0.705960 0.249011 -0.151719
H6    H     H_    0.146918 0.671505 0.246811 0.109351
C13   C     C_R   0.891886 0.714186 0.286965 0.080721
C14   C     C_R   0.755266 0.758671 0.287404 -0.150098
H7    H     H_    0.640374 0.767006 0.316581 0.111469
C15   C     C_R   0.767513 0.793938 0.250968 -0.150734
H8    H     H_    0.661629 0.828395 0.253168 0.110423
C16   C     C_R   0.916675 0.785717 0.213020 0.080766
C17   C     C_R   0.699293 0.657584 0.340774 -0.141312
H9    H     H_    0.566961 0.669256 0.323632 0.099113
C18   C     C_R   0.687875 0.622102 0.377086 -0.160164
H10   H     H_    0.546973 0.607934 0.387219 0.117871
C19   C     C_R   0.856180 0.604537 0.399387 -0.055877
C20   C     C_R   0.036014 0.623725 0.384619 -0.161391
H11   H     H_    0.168755 0.611401 0.401111 0.121537
C21   C     C_R   0.047334 0.659349 0.348503 -0.142885
H12   H     H_    0.188163 0.673943 0.338773 0.100203
C22   C     C_R   0.879247 0.676633 0.325908 0.094674
C23   C     C_R   0.713146 0.644973 0.668831 -0.222216
C24   C     C_R   0.864433 0.634228 0.631518 -0.084762
C25   C     C_R   0.031328 0.670365 0.641823 -0.217614
C26   C     C_R   0.047320 0.716984 0.688563 0.088868
C27   C     C_R   0.896407 0.726860 0.726227 0.053302
C28   C     C_R   0.729185 0.690516 0.716434 0.091326
C29   C     C_R   0.211730 0.753891 0.698362 -0.190251
C30   C     C_R   0.227804 0.799779 0.745413 -0.181300
C31   C     C_R   0.080131 0.809433 0.783600 0.091157
C32   C     C_R   0.912907 0.773090 0.773807 0.053255
C33   C     C_R   0.761993 0.782966 0.811471 0.088999
C34   C     C_R   0.597582 0.746059 0.801671 -0.190645
C35   C     C_R   0.581511 0.700170 0.754620 -0.181633
C36   C     C_R   0.096174 0.854973 0.831204 -0.222190
C37   C     C_R   0.944886 0.865719 0.868517 -0.083965
C38   C     C_R   0.777986 0.829585 0.858211 -0.218063
H13   H     H_    0.584750 0.617053 0.661368 0.124462
H14   H     H_    0.148189 0.662561 0.613148 0.128690
H15   H     H_    0.328701 0.747024 0.669778 0.134634
H16   H     H_    0.356609 0.827477 0.752106 0.136300
H17   H     H_    0.224571 0.882893 0.838668 0.124276
H18   H     H_    0.661125 0.837390 0.886886 0.128271
H19   H     H_    0.480610 0.752927 0.830254 0.134410
H20   H     H_    0.452706 0.672473 0.747928 0.136166
C39   C     C_R   0.306279 0.176027 0.136449 -0.213386
C40   C     C_R   0.457491 0.134931 0.131401 -0.085787
C41   C     C_R   0.587532 0.140055 0.174482 -0.189084
C42   C     C_R   0.564893 0.184910 0.222483 0.042312
C43   C     C_R   0.415254 0.226629 0.226679 0.043828
C44   C     C_R   0.285708 0.222155 0.183397 0.111458
C45   C     C_R   0.684533 0.187392 0.267086 -0.260494
C46   C     C_R   0.660374 0.231676 0.315204 0.390909
C47   C     C_R   0.517776 0.275465 0.318611 0.002996
C48   C     C_R   0.393172 0.272356 0.274451 -0.011046
C49   C     C_R   0.244054 0.314333 0.278300 0.110578
C50   C     C_R   0.116037 0.309236 0.234972 -0.195767
C51   C     C_R   0.136063 0.263442 0.188103 -0.185050
C52   C     C_R   0.496742 0.322171 0.365318 -0.208652
C53   C     C_R   0.351677 0.364941 0.368968 -0.094977
C54   C     C_R   0.224628 0.360394 0.325466 -0.239476
H21   H     H_    0.204783 0.172172 0.103566 0.122496
H22   H     H_    0.701677 0.107800 0.171340 0.118816
H23   H     H_    0.793585 0.153850 0.265268 0.140825
H24   H     H_    0.592935 0.325516 0.399222 0.156180
H25   H     H_    0.112056 0.393073 0.328164 0.118500
H26   H     H_    0.999627 0.340579 0.237415 0.127555
H27   H     H_    0.034489 0.260402 0.155412 0.128201
C55   C     C_R   0.274723 0.123390 0.884322 -0.161228
H28   H     H_    0.142108 0.111162 0.900955 0.121221
C56   C     C_R   0.263438 0.158656 0.847916 -0.143445
H29   H     H_    0.122852 0.173086 0.838142 0.099967
C57   C     C_R   0.431264 0.175785 0.825075 0.094613
C58   C     C_R   0.611010 0.156983 0.840049 -0.140953
H30   H     H_    0.743107 0.168565 0.822752 0.099238
C59   C     C_R   0.622409 0.121839 0.876656 -0.160723
H31   H     H_    0.763066 0.107813 0.886836 0.117518
C60   C     C_R   0.454284 0.104385 0.899160 -0.054934
C61   C     C_R   0.557159 0.257451 0.785892 -0.150745
H32   H     H_    0.674009 0.266013 0.814963 0.110654
C62   C     C_R   0.544464 0.292482 0.749274 -0.151319
H33   H     H_    0.651989 0.326987 0.751259 0.109481
C63   C     C_R   0.392804 0.284016 0.711462 0.080492
C64   C     C_R   0.254217 0.239482 0.711337 -0.150054
H34   H     H_    0.137294 0.230955 0.682290 0.111401
C65   C     C_R   0.266897 0.204454 0.747967 -0.150988
H35   H     H_    0.159279 0.169986 0.746031 0.109962
C66   C     C_R   0.418469 0.212963 0.785809 0.080665
C67   C     C_R   0.199492 0.340377 0.657710 -0.140053
H36   H     H_    0.067512 0.328384 0.674787 0.099368
C68   C     C_R   0.187730 0.376246 0.621722 -0.167436
H37   H     H_    0.046918 0.390311 0.611699 0.118949
C69   C     C_R   0.355725 0.394413 0.599684 -0.054896
C70   C     C_R   0.535440 0.375061 0.614049 -0.161003
H38   H     H_    0.667909 0.387631 0.597576 0.121806
C71   C     C_R   0.547078 0.339060 0.649819 -0.142153
H39   H     H_    0.687803 0.324502 0.659339 0.100056
C72   C     C_R   0.379467 0.321492 0.672451 0.095294
O11   O     O_R   0.308350 0.060850 0.061810 -0.536854
O12   O     O_R   0.633860 0.053770 0.953650 -0.542186
O13   O     O_R   0.798960 0.939210 0.938150 -0.538923
C73   C     C_R   0.464876 0.065896 0.937149 0.689175
O14   O     O_R   0.638360 0.067800 0.062400 -0.539353
O15   O     O_R   0.803500 0.953330 0.047670 -0.540659
C74   C     C_R   0.469772 0.084724 0.082464 0.707850
O16   O     O_R   0.303810 0.046730 0.952290 -0.540856
O17   O     O_3   0.468430 0.962490 0.995010 -0.369309
V3    V     V_3+5 0.745300 0.006960 0.000930 1.399261
O18   O     O_R   0.132880 0.946160 0.046390 -0.542265
C75   C     C_R   0.963884 0.934063 0.062814 0.690711
O19   O     O_R   0.128380 0.932130 0.937650 -0.541966
C76   C     C_R   0.958508 0.915421 0.917575 0.713167
V4    V     V_3+5 0.244670 0.992930 0.999140 1.398513
O20   O     O_3   0.971670 0.037510 0.005000 -0.368192
O21   O     O_3   0.759424 0.227509 0.360733 -0.560642
C77   C     C_3   0.944425 0.253102 0.360842 0.097758
H40   H     H_    0.934155 0.299779 0.357691 0.119472
H41   H     H_    0.031045 0.226879 0.326802 0.101463
C78   C     C_3   0.049560 0.252857 0.413085 -0.289988
H42   H     H_    0.051117 0.206911 0.418223 0.202413
H43   H     H_    0.201464 0.267383 0.410835 0.160607
C79   C     C_3   0.954902 0.294228 0.461787 -0.703853
H44   H     H_    0.951414 0.340326 0.457224 0.226579
H45   H     H_    0.039051 0.294226 0.498540 0.201187
H46   H     H_    0.805269 0.279070 0.466631 0.240608

loop_
_geom_bond_atom_site_label_1
_geom_bond_atom_site_label_2
_ccdc_geom_bond_type
C31   C32   A    
O13   C76   A    
C59   H31   S    
C11   C12   A    
C19   C20   A    
C79   H44   S    
C1    O6    A    
C61   C62   A    
C67   H36   S    
C33   C38   A    
C18   C19   A    
C7    C16   S    
C45   C46   A    
C32   C33   A    
C45   H23   S    
C12   H6    S    
C52   H24   S    
C5    C10   A    
O11   V4    S    
C6    C7    A    
C9    C10   A    
C27   C32   A    
C54   H25   S    
C64   C65   A    
C23   H13   S    
C47   C52   A    
C48   C49   A    
C57   C58   A    
C62   H33   S    
O17   V4    S    
V2    O10   S    
C51   H27   S    
C50   H26   S    
C68   H37   S    
C15   H8    S    
C41   C42   A    
C69   C70   A    
C10   C75   S    
C7    C8    A    
O15   C75   A    
O8    V2    S    
C52   C53   A    
C58   H30   S    
O13   V3    S    
O17   V3    S    
C13   C22   S    
C56   C57   A    
O16   V4    S    
O1    V2    S    
C40   C74   S    
C63   C64   A    
C29   H15   S    
C43   C48   A    
C49   C54   A    
C3    C24   S    
C59   C60   A    
C25   H14   S    
O9    C4    A    
C2    C69   S    
C55   H28   S    
C20   C21   A    
C78   C79   S    
C44   C51   A    
C61   H32   S    
C21   C22   A    
C49   C50   A    
C70   C71   A    
C26   C29   A    
C42   C43   A    
C27   C28   A    
C79   H46   S    
O21   C77   S    
C36   H17   S    
O19   V4    S    
V4    O20   S    
C77   C78   S    
C18   H10   S    
O4    C2    A    
C46   C47   A    
C40   C41   A    
C57   C66   S    
C1    C53   S    
C26   C27   A    
C34   C35   A    
C53   C54   A    
C42   C45   A    
C61   C66   A    
C46   O21   S    
C36   C37   A    
C14   C15   A    
O2    C1    A    
C43   C44   A    
C41   H22   S    
O14   V3    S    
C17   H9    S    
C28   C35   A    
C23   C24   A    
C29   C30   A    
C56   H29   S    
C5    H1    S    
O11   C74   A    
C65   C66   A    
C9    H4    S    
C70   H38   S    
C55   C56   A    
C71   H39   S    
O18   C75   A    
O3    C4    A    
C4    C19   S    
C39   H21   S    
C67   C72   A    
C78   H43   S    
C24   C25   A    
C58   C59   A    
C55   C60   A    
C50   C51   A    
O6    V2    S    
O9    V2    S    
C8    C9    A    
C20   H11   S    
C63   C72   S    
O2    V1    S    
C60   C73   S    
C21   H12   S    
O7    V1    S    
O12   V3    S    
C30   C31   A    
O15   V3    S    
C65   H35   S    
C79   H45   S    
O1    C2    A    
C13   C14   A    
C78   H42   S    
O14   C74   A    
O18   V4    S    
C67   C68   A    
O8    C3    A    
C34   H19   S    
V3    O20   S    
C23   C28   A    
C30   H16   S    
C11   C16   A    
C38   H18   S    
C14   H7    S    
C6    H2    S    
C77   H41   S    
O7    V2    S    
O4    V1    S    
C12   C13   A    
O3    V1    S    
V1    O10   S    
C77   H40   S    
O5    C3    A    
C37   C76   S    
C33   C34   A    
C39   C44   A    
C62   C63   A    
C5    C6    A    
C68   C69   A    
C15   C16   A    
C37   C38   A    
C73   O16   A    
C71   C72   A    
O5    V1    S    
C35   H20   S    
C47   C48   A    
C39   C40   A    
C17   C18   A    
C25   C26   A    
C64   H34   S    
C11   H5    S    
O12   C73   A    
C8    H3    S    
O19   C76   A    
C17   C22   A    
C31   C36   A    
