data_mof_unit_25787.cif
_audit_creation_date              2012-12-11T16:28:21-0500
_audit_creation_method            fapswitch 2.2
_symmetry_space_group_name_H-M    P1
_symmetry_Int_Tables_number       1
_space_group_crystal_system       triclinic
_cell_length_a                    16.527668
_cell_length_b                    7.26207
_cell_length_c                    15.308034
_cell_angle_alpha                 90.534093
_cell_angle_beta                  94.341428
_cell_angle_gamma                 91.67756
_cell_volume                      1831.16813415

loop_
_atom_site_label
_atom_site_type_symbol
_atom_type_description
_atom_site_fract_x
_atom_site_fract_y
_atom_site_fract_z
_atom_type_partial_charge
O1    O     O_R   0.663460 0.361760 0.165970 -0.547564
O2    O     O_R   0.336540 0.638240 0.834030 -0.491409
O3    O     O_R   0.836540 0.861760 0.334030 -0.542102
O4    O     O_R   0.163460 0.138240 0.665970 -0.543682
O5    O     O_R   0.827100 0.689870 0.163730 -0.524017
O6    O     O_R   0.172900 0.310130 0.836270 -0.539353
O7    O     O_R   0.672900 0.189870 0.336270 -0.531810
O8    O     O_R   0.327100 0.810130 0.663730 -0.484186
H1    H     H_    0.199801 0.846274 0.505045 0.138140
H2    H     H_    0.794338 0.122882 0.496614 0.136362
H3    H     H_    0.293748 0.375724 0.987785 0.138888
H4    H     H_    0.716094 0.498392 0.014304 0.115854
C1    C     C_R   0.853050 0.523720 0.143345 0.728726
C2    C     C_R   0.147010 0.475938 0.856747 0.736220
C3    C     C_R   0.646816 0.022029 0.356438 0.739095
C4    C     C_R   0.351255 0.978591 0.641427 0.757139
O9    O     O_R   0.663490 0.691370 0.155500 -0.505976
O10   O     O_R   0.336510 0.308630 0.844500 -0.551193
O11   O     O_R   0.836510 0.191370 0.344500 -0.513834
O12   O     O_R   0.163490 0.808630 0.655500 -0.511814
O13   O     O_R   0.671770 0.863320 0.325740 -0.507623
O14   O     O_R   0.328230 0.136680 0.674260 -0.548491
O15   O     O_R   0.828230 0.363320 0.174260 -0.512402
O16   O     O_R   0.171770 0.636680 0.825740 -0.482787
C5    C     C_R   0.632450 0.521586 0.138888 0.776631
C6    C     C_R   0.369221 0.478866 0.859939 0.754367
C7    C     C_R   0.866085 0.025973 0.364106 0.759842
C8    C     C_R   0.132844 0.973198 0.636900 0.754822
O17   O     O_3   0.752910 0.528800 0.305860 -0.371555
O18   O     O_3   0.247090 0.471200 0.694140 -0.366801
O19   O     O_3   0.747090 0.028800 0.194140 -0.366075
O20   O     O_3   0.252910 0.971200 0.805860 -0.358306
V1    V     V_3+5 0.749460 0.803010 0.239640 1.654793
V2    V     V_3+5 0.250540 0.196990 0.760360 1.616970
V3    V     V_3+5 0.750540 0.303010 0.260360 1.631585
V4    V     V_3+5 0.249460 0.696990 0.739640 1.751781
C9    C     C_1   0.465615 0.998279 0.526453 0.174281
C10   C     C_1   0.529208 0.005278 0.467595 0.176888
C11   C     C_1   0.030914 0.491213 0.969757 0.202920
C12   C     C_1   0.968021 0.503757 0.029257 0.186956
H5    H     H_    0.761604 0.129046 0.645539 0.238601
H6    H     H_    0.219739 0.770635 0.355927 0.225994
H7    H     H_    0.757011 0.518219 0.871553 0.246210
H8    H     H_    0.268912 0.288222 0.133356 0.227287
C13   C     C_R   0.039675 0.984821 0.322593 0.300481
C14   C     C_R   0.952269 0.961505 0.677524 0.228823
C15   C     C_R   0.457116 0.485299 0.175082 0.300397
C16   C     C_R   0.553222 0.563655 0.822847 0.222401
C17   C     C_R   0.108534 0.885889 0.302714 0.395641
C18   C     C_R   0.875585 0.026070 0.698366 0.465278
C19   C     C_R   0.384149 0.390316 0.191264 0.414773
C20   C     C_R   0.637521 0.548599 0.808846 0.467820
C21   C     C_R   0.164384 0.836994 0.370291 -0.215269
C22   C     C_R   0.821553 0.086549 0.631535 -0.170196
C23   C     C_R   0.327435 0.350242 0.121660 -0.217348
C24   C     C_R   0.692693 0.523738 0.879823 -0.165508
C25   C     C_R   0.151756 0.879553 0.456551 -0.214699
C26   C     C_R   0.841217 0.083301 0.545296 -0.269699
C27   C     C_R   0.343395 0.397876 0.036992 -0.208047
C28   C     C_R   0.668072 0.512851 0.963142 -0.265410
C29   C     C_R   0.076793 0.947231 0.479455 0.022154
C30   C     C_R   0.919124 0.035003 0.522769 0.022421
C31   C     C_R   0.421958 0.460085 0.016804 0.026379
C32   C     C_R   0.585423 0.515511 0.980156 0.034380
C33   C     C_R   0.016310 0.986544 0.411001 -0.082436
C34   C     C_R   0.979266 0.991756 0.591176 -0.110274
C35   C     C_R   0.482307 0.488939 0.087472 -0.082504
C36   C     C_R   0.524462 0.525678 0.908791 -0.061023
C37   C     C_R   0.061521 0.969512 0.569102 -0.068772
C38   C     C_R   0.935916 0.024842 0.433017 -0.071072
C39   C     C_R   0.440023 0.493587 0.928213 -0.074282
C40   C     C_R   0.564966 0.510567 0.068399 -0.080675
C41   C     C_1   0.412689 0.990570 0.577852 -0.062262
C42   C     C_1   0.583170 0.011930 0.417459 -0.061597
C43   C     C_1   0.084156 0.482607 0.918846 -0.027355
C44   C     C_1   0.915250 0.514797 0.080609 -0.064491
S1    S     S_3+6 0.127428 0.817967 0.194737 0.087185
O21   O     O_2   0.050876 0.817312 0.135420 -0.292838
O22   O     O_2   0.188635 0.948627 0.159072 -0.311552
O23   O     O_3   0.164189 0.604358 0.196198 -0.462345
H9    H     H_    0.223938 0.622428 0.199032 0.367821
S2    S     S_3+6 0.843151 0.032434 0.806616 0.102651
O24   O     O_2   0.808281 0.847451 0.829332 -0.287722
O25   O     O_2   0.913344 0.084441 0.871203 -0.297580
O26   O     O_3   0.769744 0.184580 0.814398 -0.485420
H10   H     H_    0.743778 0.151281 0.868559 0.355276
S3    S     S_3+6 0.361220 0.318094 0.297117 0.082798
O27   O     O_2   0.437165 0.305745 0.356854 -0.297892
O28   O     O_2   0.305960 0.453030 0.335391 -0.324237
O29   O     O_3   0.314442 0.109221 0.289785 -0.461055
H11   H     H_    0.257178 0.131504 0.300337 0.370486
S4    S     S_3+6 0.680365 0.564540 0.705315 0.090415
O30   O     O_2   0.626543 0.463810 0.635879 -0.324868
O31   O     O_2   0.690356 0.763575 0.681028 -0.285399
O32   O     O_3   0.773121 0.474671 0.709693 -0.470765
H12   H     H_    0.796169 0.511945 0.654413 0.355302
S5    S     S_3+6 0.002832 0.150429 0.245555 0.050377
O33   O     O_2   0.976521 0.318579 0.292418 -0.338004
O34   O     O_2   0.068708 0.210363 0.188489 -0.280906
O35   O     O_3   0.924472 0.055824 0.182414 -0.491608
H13   H     H_    0.932768 0.095442 0.121917 0.368503
S6    S     S_3+6 0.001210 0.800360 0.749048 0.039534
O36   O     O_2   0.068341 0.901130 0.803130 -0.312847
O37   O     O_2   0.945822 0.710296 0.810106 -0.277130
O38   O     O_3   0.036988 0.628667 0.689880 -0.515063
H14   H     H_    0.988560 0.572797 0.656504 0.321296
S7    S     S_3+6 0.497597 0.647823 0.255477 0.045664
O39   O     O_2   0.528608 0.816918 0.211445 -0.339096
O40   O     O_2   0.432928 0.706699 0.312933 -0.282778
O41   O     O_3   0.572874 0.550950 0.317595 -0.498416
H15   H     H_    0.564312 0.585938 0.378833 0.367833
S8    S     S_3+6 0.491541 0.678184 0.742537 0.028581
O42   O     O_2   0.452388 0.831489 0.788705 -0.344557
O43   O     O_2   0.536568 0.766096 0.671946 -0.284269
O44   O     O_3   0.423100 0.526803 0.693931 -0.501858
H16   H     H_    0.455760 0.430429 0.668547 0.337079

loop_
_geom_bond_atom_site_label_1
_geom_bond_atom_site_label_2
_ccdc_geom_bond_type
C26   C30   A    
S3    O27   D    
C23   C27   A    
C8    C37   S    
O10   C6    A    
S8    O43   D    
S5    O33   D    
S1    O21   D    
C14   S6    S    
C1    O15   A    
O16   V4    S    
C32   C36   A    
H2    C26   S    
C14   C34   A    
C16   C20   A    
H6    C21   S    
C10   C42   T    
C34   C37   A    
O13   V1    S    
O3    V1    S    
C29   C37   A    
O44   H16   S    
C30   C38   A    
S6    O38   S    
C35   C40   A    
O8    V4    S    
C2    O16   A    
O41   H15   S    
O35   H13   S    
O4    C8    A    
O32   H12   S    
C12   C44   T    
O5    V1    S    
S7    O39   D    
O19   V1    S    
C11   C43   T    
O11   C7    A    
O5    C1    A    
O7    C3    A    
O8    C4    A    
O1    C5    A    
C6    C39   S    
S7    O40   D    
O9    V1    S    
H3    C27   S    
C15   C35   A    
S8    O42   D    
S5    O34   D    
C14   C18   A    
O4    V2    S    
S1    O22   D    
O14   V2    S    
C31   C35   A    
C30   C34   A    
C4    C41   S    
C19   S3    S    
C11   C12   S    
O1    V3    S    
C21   C25   A    
C15   C19   A    
O12   C8    A    
C19   C23   A    
O26   H10   S    
S4    O32   S    
O6    V2    S    
O20   V2    S    
C9    C10   S    
O6    C2    A    
C1    C44   S    
C13   C17   A    
S4    O31   D    
O2    C6    A    
C5    C40   S    
C18   C22   A    
C16   C36   A    
S6    O37   D    
O10   V2    S    
C7    C38   S    
H4    C28   S    
C16   S8    S    
C31   C39   A    
S2    O25   D    
S3    O28   D    
C13   C33   A    
S7    O41   S    
C27   C31   A    
C20   S4    S    
S5    O35   S    
C18   S2    S    
C22   C26   A    
S1    O23   S    
O2    V4    S    
C9    C41   T    
C4    O14   A    
O7    V3    S    
O23   H9    S    
C25   C29   A    
S2    O26   S    
O38   H14   S    
O17   V3    S    
C15   S7    S    
O18   V4    S    
C28   C32   A    
O9    C5    A    
C2    C43   S    
O3    C7    A    
O11   V3    S    
H8    C23   S    
O29   H11   S    
C36   C39   A    
C17   C21   A    
S4    O30   D    
C17   S1    S    
H1    C25   S    
C32   C40   A    
S6    O36   D    
O15   V3    S    
H5    C22   S    
O12   V4    S    
C29   C33   A    
H7    C24   S    
C3    O13   A    
C3    C42   S    
C24   C28   A    
S2    O24   D    
S3    O29   S    
C13   S5    S    
C33   C38   A    
S8    O44   S    
C20   C24   A    
