data_mof_unit_63913.cif
_audit_creation_date              2012-12-10T16:57:06-0500
_audit_creation_method            fapswitch 2.2
_symmetry_space_group_name_H-M    P1
_symmetry_Int_Tables_number       1
_space_group_crystal_system       triclinic
_cell_length_a                    20.920081
_cell_length_b                    15.955035
_cell_length_c                    13.16901
_cell_angle_alpha                 90.047256
_cell_angle_beta                  91.064161
_cell_angle_gamma                 90.031495
_cell_volume                      4394.80006046

loop_
_atom_site_label
_atom_site_type_symbol
_atom_type_description
_atom_site_fract_x
_atom_site_fract_y
_atom_site_fract_z
_atom_type_partial_charge
C1    C     C_R   0.620938 0.840188 0.469097 0.864162
C2    C     C_2   0.992352 0.499639 0.945001 -0.152595
C3    C     C_R   0.379648 0.159950 0.530661 0.845969
C4    C     C_R   0.379746 0.839904 0.530559 0.846614
C5    C     C_R   0.879652 0.659953 0.530663 0.845941
C6    C     C_R   0.879743 0.339905 0.530554 0.846628
C7    C     C_R   0.530206 0.999973 0.771984 0.861842
C8    C     C_R   0.030206 0.499973 0.771984 0.861842
C9    C     C_R   0.469107 0.999968 0.228630 0.854893
C10   C     C_R   0.969107 0.499968 0.228630 0.854893
C11   C     C_2   0.331270 0.775634 0.541262 -0.283380
C12   C     C_R   0.620711 0.160188 0.469886 0.864052
C13   C     C_2   0.330825 0.223594 0.542650 -0.283249
C14   C     C_2   0.831272 0.275626 0.541246 -0.283442
C15   C     C_2   0.830834 0.723604 0.542635 -0.283175
C16   C     C_2   0.272902 0.787426 0.501616 -0.152290
C17   C     C_2   0.277849 0.221424 0.484885 -0.152480
C18   C     C_2   0.772858 0.287496 0.501810 -0.152334
C19   C     C_2   0.777776 0.721285 0.485072 -0.152451
C20   C     C_2   0.668474 0.226742 0.460338 -0.333348
C21   C     C_2   0.670539 0.776949 0.453242 -0.334142
C22   C     C_2   0.168492 0.726707 0.460259 -0.333347
C23   C     C_R   0.120942 0.340194 0.469088 0.864154
C24   C     C_2   0.170569 0.277002 0.453157 -0.334149
C25   C     C_2   0.725018 0.220846 0.508722 -0.142721
C26   C     C_2   0.727232 0.783097 0.501208 -0.142772
C27   C     C_2   0.225039 0.720816 0.508634 -0.142720
C28   C     C_2   0.227263 0.283161 0.501124 -0.142772
C29   C     C_2   0.452998 0.999914 0.120517 0.064648
C30   C     C_2   0.952998 0.499915 0.120517 0.064645
C31   C     C_3   0.383308 0.000415 0.084712 -0.418988
C32   C     C_3   0.335029 0.000922 0.170661 -0.877061
C33   C     C_3   0.883309 0.500426 0.084712 -0.418996
C34   C     C_R   0.120712 0.660183 0.469877 0.864059
C35   C     C_3   0.835029 0.500941 0.170660 -0.877025
C36   C     C_2   0.501957 0.999583 0.055745 -0.227502
C37   C     C_2   0.001957 0.499577 0.055745 -0.227505
C38   C     C_2   0.541792 0.999855 0.882039 -0.324495
C39   C     C_2   0.041792 0.499853 0.882039 -0.324504
C40   C     C_2   0.492352 0.999644 0.945001 -0.152605
H1    H     H_    0.736590 0.165688 0.553941 0.185758
H2    H     H_    0.660804 0.725377 0.401215 0.155507
H3    H     H_    0.157098 0.781277 0.413999 0.155674
H4    H     H_    0.160860 0.225471 0.401060 0.155509
H5    H     H_    0.344490 0.716694 0.577201 0.130082
H6    H     H_    0.336758 0.269584 0.603012 0.129857
H7    H     H_    0.844545 0.216588 0.576897 0.130134
H8    H     H_    0.836884 0.769797 0.602740 0.129796
H9    H     H_    0.444007 0.999553 0.913748 0.184524
H10   H     H_    0.944007 0.499547 0.913748 0.184528
H11   H     H_    0.550804 0.999346 0.085793 0.138568
H12   H     H_    0.736594 0.834288 0.554042 0.185486
H13   H     H_    0.050804 0.499335 0.085793 0.138566
H14   H     H_    0.590654 0.999940 0.911556 0.155817
H15   H     H_    0.090654 0.499938 0.911556 0.155812
H16   H     H_    0.340800 0.944065 0.218593 0.257873
H17   H     H_    0.341313 0.057874 0.218406 0.256661
H18   H     H_    0.285740 0.001212 0.137886 0.252878
H19   H     H_    0.374537 0.056990 0.037272 0.217746
H20   H     H_    0.373976 0.943845 0.037385 0.218043
H21   H     H_    0.840796 0.444085 0.218594 0.257873
H22   H     H_    0.841318 0.557894 0.218404 0.256682
H23   H     H_    0.236590 0.665697 0.553938 0.185754
H24   H     H_    0.785740 0.501238 0.137885 0.252881
H25   H     H_    0.874543 0.557001 0.037270 0.217755
H26   H     H_    0.873971 0.443856 0.037386 0.218045
H27   H     H_    0.236593 0.334297 0.554049 0.185495
H28   H     H_    0.261087 0.845616 0.462523 0.151041
H29   H     H_    0.271487 0.172991 0.427336 0.150234
H30   H     H_    0.760994 0.345766 0.462931 0.151081
H31   H     H_    0.771335 0.672701 0.427731 0.150183
H32   H     H_    0.657064 0.281344 0.414144 0.155674
O1    O     O_3   0.500000 0.000000 0.500000 -0.486575
O2    O     O_R   0.880760 0.402800 0.590320 -0.633134
O3    O     O_R   0.577210 0.000000 0.711160 -0.642495
O4    O     O_R   0.077210 0.500000 0.711160 -0.642503
O5    O     O_R   0.475030 0.069050 0.275760 -0.643565
O6    O     O_R   0.475030 0.930950 0.275760 -0.643616
O7    O     O_R   0.975030 0.569050 0.275760 -0.643557
O8    O     O_R   0.975030 0.430950 0.275760 -0.643618
O9    O     O_R   0.632300 0.097230 0.527310 -0.643932
O10   O     O_R   0.632300 0.902770 0.527310 -0.643957
O11   O     O_R   0.132300 0.597230 0.527310 -0.643929
O12   O     O_3   1.000000 0.500000 0.500000 -0.486574
O13   O     O_R   0.132300 0.402770 0.527310 -0.643953
O14   O     O_R   0.419940 0.833680 0.459580 -0.634728
O15   O     O_R   0.419940 0.166320 0.459580 -0.633075
O16   O     O_R   0.919940 0.333680 0.459580 -0.634749
O17   O     O_R   0.919940 0.666320 0.459580 -0.633087
O18   O     O_R   0.472710 0.000000 0.737340 -0.645886
O19   O     O_R   0.972710 0.500000 0.737340 -0.645876
O20   O     O_R   0.566980 0.833700 0.422750 -0.641589
O21   O     O_R   0.566980 0.166300 0.422750 -0.641133
O22   O     O_R   0.066980 0.333700 0.422750 -0.641586
O23   O     O_R   0.066980 0.666300 0.422750 -0.641144
O24   O     O_R   0.380760 0.097200 0.590320 -0.635386
O25   O     O_R   0.380760 0.902800 0.590320 -0.633140
O26   O     O_R   0.880760 0.597200 0.590320 -0.635363
Zn1   Zn    Zn3+2 0.434690 0.000000 0.602700 0.965901
Zn2   Zn    Zn3+2 0.934690 0.500000 0.602700 0.965903
Zn3   Zn    Zn3+2 0.584000 0.000000 0.565300 0.962033
Zn4   Zn    Zn3+2 0.084000 0.500000 0.565300 0.962031
Zn5   Zn    Zn3+2 0.490640 0.098690 0.416020 0.969148
Zn6   Zn    Zn3+2 0.490640 0.901310 0.416020 0.969091
Zn7   Zn    Zn3+2 0.990640 0.598690 0.416020 0.969144
Zn8   Zn    Zn3+2 0.990640 0.401310 0.416020 0.969087

loop_
_geom_bond_atom_site_label_1
_geom_bond_atom_site_label_2
_ccdc_geom_bond_type
C18   H30   S    
C21   C26   D    
C17   H29   S    
O11   Zn4   S    
O12   Zn4   S    
C14   C18   D    
C19   H31   S    
C32   H18   S    
O14   Zn6   S    
O21   Zn5   S    
C33   H25   S    
O9    Zn3   S    
C1    C21   S    
C29   C36   D    
C32   H17   S    
C13   H6    S    
C4    O14   A    
C20   C25   D    
C40   H9    S    
O24   Zn1   S    
O8    Zn8   S    
C8    O4    A    
C6    O16   A    
O7    Zn7   S    
C31   H19   S    
C19   C26   S    
O23   Zn7   S    
C2    C39   D    
O10   Zn3   S    
O1    Zn6   S    
C39   H15   S    
C22   H3    S    
O12   Zn8   S    
C23   C24   S    
C3    O24   A    
C16   H28   S    
C8    C39   S    
O19   Zn2   S    
C2    H10   S    
C3    C13   S    
C9    C29   S    
C37   H13   S    
C16   C27   S    
O1    Zn3   S    
C4    O25   A    
C18   C25   S    
C15   H8    S    
O25   Zn1   S    
C33   H26   S    
C6    O2    A    
O4    Zn4   S    
C22   C34   S    
C3    O15   A    
O12   Zn2   S    
C36   C40   S    
C28   H27   S    
C34   O23   A    
C25   H1    S    
C10   O8    A    
O2    Zn2   S    
C1    O10   A    
C7    O18   A    
O6    Zn6   S    
C30   C37   D    
C31   H20   S    
C15   C19   D    
C26   H12   S    
C6    C14   S    
O16   Zn8   S    
C11   C16   D    
C10   C30   S    
C31   C32   S    
C38   H14   S    
C12   C20   S    
O12   Zn7   S    
C35   H21   S    
C8    O19   A    
C9    O5    A    
C4    C11   S    
C35   H24   S    
C36   H11   S    
C27   H23   S    
O15   Zn5   S    
C1    O20   A    
O26   Zn2   S    
C22   C27   D    
C24   H4    S    
C12   O21   A    
C11   H5    S    
C34   O11   A    
O18   Zn1   S    
O1    Zn1   S    
O22   Zn8   S    
C30   C33   S    
C17   C28   S    
C24   C28   D    
C7    O3    A    
C10   O7    A    
C14   H7    S    
C23   O22   A    
C13   C17   D    
C29   C31   S    
C38   C40   D    
C2    C37   S    
C33   C35   S    
C7    C38   S    
C12   O9    A    
C35   H22   S    
C9    O6    A    
C5    C15   S    
O5    Zn5   S    
O20   Zn6   S    
C21   H2    S    
O1    Zn5   S    
C5    O26   A    
C23   O13   A    
O17   Zn7   S    
O3    Zn3   S    
C20   H32   S    
C32   H16   S    
C5    O17   A    
O13   Zn4   S    
