data_mof_unit_27968.cif
_audit_creation_date              2012-12-10T17:51:23-0500
_audit_creation_method            fapswitch 2.2
_symmetry_space_group_name_H-M    P1
_symmetry_Int_Tables_number       1
_space_group_crystal_system       triclinic
_cell_length_a                    9.951855
_cell_length_b                    10.61817
_cell_length_c                    16.749678
_cell_angle_alpha                 92.32519
_cell_angle_beta                  85.964251
_cell_angle_gamma                 90.650894
_cell_volume                      1764.03988592

loop_
_atom_site_label
_atom_site_type_symbol
_atom_type_description
_atom_site_fract_x
_atom_site_fract_y
_atom_site_fract_z
_atom_type_partial_charge
C1    C     C_R   0.500615 0.739100 0.500345 0.870979
C2    C     C_R   0.528307 0.525722 0.261772 -0.034009
C3    C     C_R   0.498906 0.879339 0.650934 -0.197980
C4    C     C_R   0.482085 0.506992 0.653052 0.811501
C5    C     C_R   0.495372 0.950034 0.723014 -0.141656
C6    C     C_R   0.491683 0.080991 0.722684 -0.134108
C7    C     C_R   0.492156 0.141475 0.650255 -0.150238
C8    C     C_R   0.496315 0.070988 0.576560 0.054672
C9    C     C_R   0.499078 0.939351 0.577138 0.092870
C10   C     C_R   0.501787 0.871454 0.503359 -0.132581
C11   C     C_R   0.504233 0.929122 0.430373 -0.190923
C12   C     C_R   0.348391 0.553254 0.781878 -0.205188
C13   C     C_R   0.503595 0.058616 0.428657 0.175968
C14   C     C_R   0.498263 0.128254 0.501906 -0.114623
C15   C     C_R   0.850211 0.667693 0.603893 -0.201841
C16   C     C_R   0.499458 0.260843 0.499716 0.895149
C17   C     C_R   0.914272 0.748444 0.656815 -0.218914
C18   C     C_R   0.053610 0.746924 0.658868 0.216447
C19   C     C_R   0.128971 0.665100 0.606192 -0.148741
C20   C     C_R   0.067081 0.581841 0.551942 0.076381
C21   C     C_R   0.922929 0.582377 0.551406 0.158013
C22   C     C_R   0.931744 0.421637 0.450778 -0.122935
C23   C     C_R   0.418571 0.568436 0.141933 -0.149646
C24   C     C_R   0.074252 0.420915 0.450078 0.247703
C25   C     C_R   0.518038 0.502319 0.346979 0.850594
C26   C     C_R   0.473276 0.547499 0.737456 -0.036635
C27   C     C_R   0.588162 0.599182 0.770498 -0.224494
C28   C     C_R   0.579296 0.654176 0.846776 -0.175602
C29   C     C_R   0.457016 0.650972 0.893535 0.203030
C30   C     C_R   0.340562 0.604207 0.859976 -0.173330
C31   C     C_3   0.510020 0.120954 0.348957 -0.912448
C32   C     C_3   0.120865 0.832618 0.717763 -0.913848
C33   C     C_3   0.143932 0.328206 0.391633 -0.869686
C34   C     C_R   0.411256 0.529875 0.220169 -0.210532
C35   C     C_R   0.653354 0.557568 0.223573 -0.198023
C36   C     C_R   0.660559 0.596346 0.145308 -0.185293
C37   C     C_R   0.543207 0.604165 0.104596 0.205040
C38   C     C_2   0.454094 0.673437 0.980347 -0.245035
C39   C     C_2   0.556821 0.633248 0.020024 -0.228075
H1    H     H_    0.685115 0.599239 0.737235 0.162443
H2    H     H_    0.854474 0.811844 0.696927 0.161032
H3    H     H_    0.313791 0.504675 0.248247 0.159610
H4    H     H_    0.235311 0.668868 0.609331 0.204470
H5    H     H_    0.745176 0.555399 0.254563 0.159729
H6    H     H_    0.651130 0.605199 0.988076 0.149396
H7    H     H_    0.245227 0.601608 0.895367 0.124663
H8    H     H_    0.327100 0.566850 0.110655 0.124062
H9    H     H_    0.257556 0.517357 0.756692 0.162586
H10   H     H_    0.359174 0.700139 0.012066 0.145212
H11   H     H_    0.669573 0.694628 0.870164 0.128764
H12   H     H_    0.757840 0.620389 0.116446 0.125659
H13   H     H_    0.418488 0.178045 0.344463 0.233906
H14   H     H_    0.600370 0.183140 0.343181 0.237440
H15   H     H_    0.516279 0.050720 0.297864 0.242294
H16   H     H_    0.101757 0.932391 0.705020 0.254448
H17   H     H_    0.079793 0.813743 0.779530 0.236119
H18   H     H_    0.231306 0.817844 0.714725 0.246590
H19   H     H_    0.253238 0.330123 0.392417 0.290312
H20   H     H_    0.109139 0.231194 0.405333 0.225228
H21   H     H_    0.118690 0.348388 0.329912 0.205870
H22   H     H_    0.507138 0.872425 0.374864 0.144986
H23   H     H_    0.501063 0.777942 0.653359 0.120198
H24   H     H_    0.494855 0.903098 0.779203 0.150392
H25   H     H_    0.488518 0.135912 0.778650 0.137588
H26   H     H_    0.489290 0.243235 0.652548 0.128837
H27   H     H_    0.880192 0.357924 0.410781 0.154990
H28   H     H_    0.743359 0.673737 0.606329 0.207818
N1    N     N_R   0.857140 0.501200 0.500750 -0.131408
N2    N     N_R   0.142740 0.501280 0.500770 -0.116823
O1    O     O_R   0.385310 0.683220 0.500000 -0.625687
O2    O     O_R   0.614640 0.683250 0.500010 -0.628333
O3    O     O_R   0.371780 0.500010 0.615800 -0.635572
O4    O     O_R   0.601110 0.500030 0.615800 -0.631646
O5    O     O_R   0.385360 0.316750 0.499990 -0.616037
O6    O     O_R   0.614690 0.316780 0.500000 -0.607921
O7    O     O_R   0.398890 0.499970 0.384200 -0.623344
O8    O     O_R   0.628220 0.499990 0.384200 -0.618012
Zn1   Zn    Zn3+2 0.346870 0.499980 0.499990 0.933542
Zn2   Zn    Zn3+2 0.653130 0.500020 0.500010 0.934636

loop_
_geom_bond_atom_site_label_1
_geom_bond_atom_site_label_2
_ccdc_geom_bond_type
C2    C35   A    
C33   H19   S    
O1    Zn1   S    
C16   O6    A    
C19   C20   A    
C34   H3    S    
C31   H13   S    
C12   H9    S    
O2    Zn2   S    
C7    C8    A    
C38   H10   S    
C26   C27   A    
C1    O2    A    
C16   O5    A    
C36   C37   A    
O7    Zn1   S    
C38   C39   D    
C5    H24   S    
C18   C19   A    
C6    H25   S    
C22   H27   S    
O3    Zn1   S    
C28   H11   S    
C35   C36   A    
C8    C9    A    
C29   C38   S    
C14   C16   S    
C9    C10   A    
C32   H16   S    
C39   H6    S    
C2    C34   A    
N1    Zn2   S    
C33   H20   S    
C13   C14   A    
N2    Zn1   S    
C32   H18   S    
C19   H4    S    
C24   N2    A    
O8    Zn2   S    
C23   H8    S    
C3    C5    A    
C23   C37   A    
C12   C26   A    
C29   C30   A    
C3    C9    A    
C7    H26   S    
C27   H1    S    
C23   C34   A    
C15   H28   S    
C17   C18   A    
O4    Zn2   S    
C31   H14   S    
C35   H5    S    
C22   N1    A    
C4    O4    A    
C36   H12   S    
C33   H21   S    
C21   N1    A    
C25   O8    A    
C20   N2    A    
C18   C32   S    
C4    O3    A    
C3    H23   S    
C15   C17   A    
C28   C29   A    
C8    C14   A    
C12   C30   A    
C13   C31   S    
C1    C10   S    
C1    O1    A    
C11   H22   S    
C4    C26   S    
C6    C7    A    
C24   C33   S    
C30   H7    S    
C25   O7    A    
C37   C39   S    
C11   C13   A    
C5    C6    A    
C2    C25   S    
C22   C24   A    
C31   H15   S    
C17   H2    S    
C10   C11   A    
C15   C21   A    
C20   C21   A    
O5    Zn1   S    
C27   C28   A    
O6    Zn2   S    
C32   H17   S    
