data_mof_unit_25578.cif
_audit_creation_date              2012-12-10T17:55:54-0500
_audit_creation_method            fapswitch 2.2
_symmetry_space_group_name_H-M    P1
_symmetry_Int_Tables_number       1
_space_group_crystal_system       triclinic
_cell_length_a                    11.078312
_cell_length_b                    10.745813
_cell_length_c                    9.584311
_cell_angle_alpha                 91.178699
_cell_angle_beta                  104.554726
_cell_angle_gamma                 91.64682
_cell_volume                      1103.44118829

loop_
_atom_site_label
_atom_site_type_symbol
_atom_type_description
_atom_site_fract_x
_atom_site_fract_y
_atom_site_fract_z
_atom_type_partial_charge
C1    C     C_R   0.501755 0.262615 0.499294 0.786449
C2    C     C_R   0.498245 0.737385 0.500706 0.786449
C3    C     C_R   0.262004 0.499606 0.439421 0.747084
C4    C     C_R   0.737996 0.500394 0.560579 0.747084
C5    C     C_R   0.424754 0.416427 0.047546 0.258834
C6    C     C_R   0.575246 0.583573 0.952454 0.258835
C7    C     C_R   0.425288 0.418504 0.899786 -0.027771
C8    C     C_R   0.574712 0.581496 0.100214 -0.027771
C9    C     C_2   0.125004 0.501597 0.400829 -0.200107
C10   C     C_2   0.874996 0.498403 0.599171 -0.200107
C11   C     C_2   0.066473 0.488961 0.507913 -0.126447
C12   C     C_2   0.933527 0.511039 0.492087 -0.126447
C13   C     C_R   0.600585 0.064589 0.461167 0.136093
C14   C     C_R   0.399415 0.935411 0.538833 0.136093
C15   C     C_R   0.594971 0.934651 0.462775 -0.189893
C16   C     C_R   0.405029 0.065349 0.537225 -0.189893
C17   C     C_R   0.497084 0.871468 0.502312 -0.113795
C18   C     C_R   0.502916 0.128532 0.497688 -0.113795
Cu1   Cu    Cu3+1 0.500000 0.500020 0.640660 0.934982
Cu2   Cu    Cu3+1 0.500000 0.499980 0.359340 0.934982
H1    H     H_    0.879067 0.536025 0.386716 0.211579
H2    H     H_    0.120933 0.463975 0.613284 0.211579
H3    H     H_    0.365270 0.354264 0.822481 0.138949
H4    H     H_    0.634730 0.645736 0.177519 0.138949
H5    H     H_    0.666990 0.880535 0.435228 0.148248
H6    H     H_    0.333010 0.119465 0.564772 0.148248
N1    N     N_R   0.500030 0.500030 0.852080 -0.195384
N2    N     N_R   0.499970 0.499970 0.147920 -0.195384
O1    O     O_R   0.499990 0.319660 0.618740 -0.576187
O2    O     O_R   0.500010 0.680340 0.381260 -0.576187
O3    O     O_R   0.499990 0.319630 0.381170 -0.585592
O4    O     O_R   0.500010 0.680370 0.618830 -0.585592
O5    O     O_R   0.320690 0.500020 0.575130 -0.570948
O6    O     O_R   0.679310 0.499980 0.424870 -0.570948
O7    O     O_R   0.320680 0.499990 0.337560 -0.600776
O8    O     O_R   0.679320 0.500010 0.662440 -0.600775
C19   C     C_3   0.337468 0.318965 0.084983 -0.377156
C20   C     C_3   0.383166 0.187360 0.071260 -0.849393
H7    H     H_    0.380644 0.163262 0.957312 0.239122
H8    H     H_    0.479978 0.179460 0.138163 0.268457
H9    H     H_    0.321848 0.119074 0.108709 0.249493
H10   H     H_    0.323114 0.331361 0.192759 0.260417
H11   H     H_    0.243299 0.326040 0.010406 0.189007
C21   C     C_3   0.662532 0.681035 0.915018 -0.377156
C22   C     C_3   0.616834 0.812640 0.928740 -0.849395
H12   H     H_    0.520022 0.820540 0.861836 0.268457
H13   H     H_    0.619355 0.836738 0.042688 0.239123
H14   H     H_    0.678153 0.880926 0.891292 0.249494
H15   H     H_    0.756700 0.673959 0.989594 0.189007
H16   H     H_    0.676886 0.668639 0.807241 0.260417
C23   C     C_2   0.940202 0.480229 0.752985 0.341034
H17   H     H_    0.893820 0.426738 0.820465 0.111497
O9    O     O_2   0.041578 0.530755 0.808146 -0.560717
C24   C     C_2   0.059798 0.519771 0.247015 0.341034
H18   H     H_    0.106180 0.573262 0.179535 0.111497
O10   O     O_2   0.958422 0.469245 0.191854 -0.560717
C25   C     C_3   0.709854 0.136939 0.426863 -0.363796
C26   C     C_3   0.817883 0.059305 0.405691 -0.856608
H19   H     H_    0.857135 0.005494 0.503507 0.251628
H20   H     H_    0.786351 0.995334 0.310057 0.249260
H21   H     H_    0.893144 0.122310 0.386932 0.257819
H22   H     H_    0.675106 0.189816 0.327312 0.224339
H23   H     H_    0.748721 0.205380 0.516646 0.190278
C27   C     C_3   0.290146 0.863061 0.573137 -0.363796
C28   C     C_3   0.182117 0.940695 0.594309 -0.856608
H24   H     H_    0.213648 0.004666 0.689943 0.249259
H25   H     H_    0.142865 0.994506 0.496493 0.251628
H26   H     H_    0.106856 0.877690 0.613068 0.257819
H27   H     H_    0.251279 0.794620 0.483354 0.190278
H28   H     H_    0.324894 0.810184 0.672688 0.224339

loop_
_geom_bond_atom_site_label_1
_geom_bond_atom_site_label_2
_ccdc_geom_bond_type
C21   H15   S    
C19   H11   S    
C6    C8    A    
C11   C12   S    
C4    O8    A    
C24   O10   D    
C19   C20   S    
C3    C9    S    
C27   H28   S    
C5    N2    A    
Cu1   N1    S    
C11   H2    S    
C6    N1    A    
C3    O7    A    
C2    O2    A    
C28   H26   S    
C14   C27   S    
C27   C28   S    
C26   H21   S    
C13   C15   A    
C1    C18   S    
C27   H27   S    
Cu2   O6    S    
C25   H22   S    
C16   C18   A    
C6    C21   S    
C22   H12   S    
C2    C17   S    
C20   H8    S    
C9    C11   D    
C14   C17   A    
C25   C26   S    
C10   C12   D    
C13   C18   A    
C7    H3    S    
Cu1   O4    S    
C1    O1    A    
C8    H4    S    
C25   H23   S    
C4    O6    A    
Cu1   O8    S    
C22   H13   S    
C16   H6    S    
C20   H7    S    
C8    N2    A    
C14   C16   A    
C15   H5    S    
C13   C25   S    
C5    C19   S    
C10   C23   S    
C26   H20   S    
C23   H17   S    
Cu1   O1    S    
C1    O3    A    
C7    N1    A    
C21   C22   S    
C20   H9    S    
C2    O4    A    
C28   H24   S    
Cu1   O5    S    
C22   H14   S    
C21   H16   S    
C19   H10   S    
C15   C17   A    
C3    O5    A    
C5    C7    A    
Cu2   O2    S    
C9    C24   S    
Cu2   N2    S    
C23   O9    D    
C26   H19   S    
C24   H18   S    
Cu2   O7    S    
C4    C10   S    
C12   H1    S    
Cu1   Cu2   S    
C28   H25   S    
Cu2   O3    S    
