data_mof_unit_7003.cif
_audit_creation_date              2012-12-10T18:32:55-0500
_audit_creation_method            fapswitch 2.2
_symmetry_space_group_name_H-M    P1
_symmetry_Int_Tables_number       1
_space_group_crystal_system       triclinic
_cell_length_a                    14.979641
_cell_length_b                    15.450781
_cell_length_c                    15.727961
_cell_angle_alpha                 89.813787
_cell_angle_beta                  103.606051
_cell_angle_gamma                 82.009882
_cell_volume                      3501.24226561

loop_
_atom_site_label
_atom_site_type_symbol
_atom_type_description
_atom_site_fract_x
_atom_site_fract_y
_atom_site_fract_z
_atom_type_partial_charge
C1    C     C_R   0.441795 0.662196 0.489754 0.859747
C2    C     C_R   0.592342 0.245026 0.534769 -0.062588
C3    C     C_R   0.281901 0.874121 0.486734 -0.095318
C4    C     C_R   0.500424 0.500122 0.661390 0.896457
C5    C     C_R   0.311865 0.785778 0.478172 -0.217306
C6    C     C_R   0.471006 0.811459 0.524597 -0.207254
C7    C     C_R   0.443040 0.899494 0.536932 0.034633
C8    C     C_R   0.346605 0.932682 0.514045 0.006465
C9    C     C_R   0.509959 0.956071 0.564630 0.076109
C10   C     C_R   0.481448 0.046683 0.551785 -0.009826
C11   C     C_R   0.385699 0.079105 0.533932 -0.296122
C12   C     C_3   0.424132 0.572085 0.031342 -0.356508
C13   C     C_R   0.318332 0.023394 0.517199 0.441158
C14   C     C_R   0.604670 0.925215 0.603079 -0.188213
C15   C     C_R   0.670669 0.982001 0.618591 -0.214700
C16   C     C_R   0.558193 0.337737 0.513754 0.861794
C17   C     C_R   0.644721 0.070061 0.593052 0.167426
C18   C     C_R   0.549954 0.102226 0.557539 0.128241
C19   C     C_R   0.711973 0.126468 0.601463 -0.186222
C20   C     C_R   0.685620 0.214226 0.573704 -0.181251
C21   C     C_R   0.526598 0.187962 0.523957 -0.236889
C22   C     C_R   0.850732 0.593667 0.665472 -0.310806
C23   C     C_3   0.500643 0.500358 0.082948 0.274121
C24   C     C_R   0.758624 0.583299 0.630781 -0.057820
C25   C     C_R   0.793590 0.534319 0.497760 0.437319
C26   C     C_R   0.889623 0.525099 0.537829 -0.130735
C27   C     C_R   0.917232 0.563441 0.619387 0.138607
C28   C     C_R   0.499525 0.500037 0.338604 0.918444
C29   C     C_R   0.958599 0.481158 0.499031 0.100592
C30   C     C_R   0.052239 0.495386 0.529245 0.075474
C31   C     C_R   0.076718 0.541181 0.607021 -0.217228
C32   C     C_R   0.010530 0.571417 0.653203 -0.168076
C33   C     C_R   0.937246 0.418382 0.435552 -0.101158
C34   C     C_3   0.479415 0.410677 0.045743 -0.502543
C35   C     C_R   0.003382 0.379113 0.393827 -0.203051
C36   C     C_R   0.092664 0.401617 0.414277 0.158992
C37   C     C_R   0.118171 0.460358 0.482034 0.004335
C38   C     C_R   0.157175 0.365291 0.368179 -0.250457
C39   C     C_R   0.245500 0.389111 0.387906 0.037111
C40   C     C_3   0.427697 0.574581 0.934213 -0.395588
C41   C     C_R   0.208419 0.482687 0.498045 -0.033759
C42   C     C_3   0.597536 0.514982 0.972018 -0.417393
C43   C     C_3   0.598284 0.514672 0.070897 -0.145861
C44   C     C_1   0.498693 0.500004 0.249491 -0.100696
C45   C     C_3   0.480241 0.409259 0.947287 -0.141145
C46   C     C_3   0.500926 0.499413 0.917436 0.230012
C47   C     C_2   0.632064 0.595496 0.113998 0.439597
C48   C     C_2   0.390274 0.384808 0.893081 0.429589
C49   C     C_1   0.499157 0.500141 0.174247 -0.091206
C50   C     C_1   0.501585 0.500104 0.825929 -0.085456
C51   C     C_1   0.501415 0.500289 0.750537 -0.148907
C52   C     C_R   0.406791 0.754629 0.495641 -0.054423
H1    H     H_    0.432137 0.637322 0.059275 0.223113
H2    H     H_    0.543643 0.786669 0.533926 0.167376
H3    H     H_    0.445982 0.638800 0.917172 0.208277
H4    H     H_    0.362168 0.148166 0.535360 0.214735
H5    H     H_    0.629057 0.857668 0.623962 0.143989
H6    H     H_    0.784512 0.102875 0.629969 0.153124
H7    H     H_    0.032231 0.602380 0.714932 0.143644
H8    H     H_    0.232236 0.529355 0.545848 0.125921
H9    H     H_    0.296277 0.361401 0.353022 0.134149
H10   H     H_    0.984202 0.331807 0.344537 0.161705
H11   H     H_    0.870257 0.621452 0.729199 0.158564
H12   H     H_    0.357854 0.569562 0.892052 0.153432
H13   H     H_    0.708185 0.600768 0.669127 0.162584
H14   H     H_    0.651948 0.462512 0.960555 0.155270
H15   H     H_    0.147446 0.549857 0.636394 0.141018
H16   H     H_    0.869866 0.396996 0.419876 0.181679
H17   H     H_    0.139332 0.319293 0.317224 0.161024
H18   H     H_    0.614959 0.577682 0.949707 0.209538
H19   H     H_    0.649407 0.458016 0.103539 0.119035
H20   H     H_    0.537649 0.357984 0.939400 0.173349
H21   H     H_    0.411308 0.397764 0.056180 0.177927
H22   H     H_    0.122543 0.200211 0.493390 0.385615
H23   H     H_    0.354606 0.557983 0.036354 0.158436
H24   H     H_    0.857949 0.646693 0.377372 0.357977
H25   H     H_    0.686669 0.588363 0.173732 0.163776
H26   H     H_    0.324458 0.423383 0.894802 0.063502
H27   H     H_    0.532487 0.357297 0.082137 0.185280
H28   H     H_    0.456731 0.211153 0.487603 0.166187
H29   H     H_    0.737618 0.257751 0.583253 0.165266
H30   H     H_    0.742550 0.956329 0.647751 0.153588
H31   H     H_    0.207985 0.895652 0.470136 0.212885
H32   H     H_    0.260823 0.742241 0.456900 0.167583
N1    N     N_R   0.731690 0.552720 0.548990 -0.135158
N2    N     N_R   0.268300 0.447240 0.450950 -0.104731
O1    O     O_R   0.383120 0.605620 0.475300 -0.622345
O2    O     O_2   0.152762 0.028755 0.555847 -0.298135
O3    O     O_3   0.190049 0.179135 0.510908 -0.557628
O4    O     O_2   0.726252 0.483331 0.333699 -0.334826
O5    O     O_2   0.677818 0.635286 0.366646 -0.283834
O6    O     O_3   0.844103 0.592784 0.346104 -0.551906
O7    O     O_2   0.598027 0.668787 0.083692 -0.561022
O8    O     O_2   0.390819 0.321129 0.847361 -0.542158
O9    O     O_R   0.531890 0.639510 0.506740 -0.603205
O10   O     O_R   0.425580 0.483050 0.607130 -0.603502
O11   O     O_R   0.574360 0.516930 0.638570 -0.637739
O12   O     O_R   0.468110 0.360490 0.493260 -0.615950
O13   O     O_R   0.616880 0.394380 0.524700 -0.618769
O14   O     O_R   0.425640 0.483070 0.361430 -0.639625
O15   O     O_R   0.574420 0.516950 0.392870 -0.509584
O16   O     O_2   0.153586 0.055397 0.402273 -0.314606
S1    S     S_3+6 0.199927 0.070802 0.495546 0.004958
S2    S     S_3+6 0.756885 0.561077 0.383546 0.008017
Zn1   Zn    Zn3+2 0.400660 0.477370 0.479010 0.956959
Zn2   Zn    Zn3+2 0.599340 0.522630 0.520990 1.007521

loop_
_geom_bond_atom_site_label_1
_geom_bond_atom_site_label_2
_ccdc_geom_bond_type
C44   C49   T    
C1    O1    A    
O10   Zn1   S    
C8    C13   A    
C18   C21   A    
C19   C20   A    
O5    S2    D    
C7    C8    A    
C45   C46   S    
C40   C46   S    
C41   N2    A    
C12   C23   S    
O14   Zn1   S    
O12   Zn1   S    
C48   O8    D    
H22   O3    S    
C36   C37   A    
C30   C31   A    
C23   C49   S    
C29   C33   A    
C42   H18   S    
C23   C43   S    
C7    C9    A    
C42   C46   S    
C48   H26   S    
C14   H5    S    
C17   C19   A    
C22   H11   S    
C4    O10   A    
C28   O15   A    
C35   C36   A    
C5    C52   A    
C13   S1    S    
C2    C16   S    
C9    C10   A    
C12   H1    S    
C40   H3    S    
C28   O14   A    
C38   H17   S    
C4    O11   A    
O3    S1    S    
C45   H20   S    
C6    H2    S    
C50   C51   T    
C15   H30   S    
C19   H6    S    
C39   H9    S    
C4    C51   S    
C2    C20   A    
C3    C8    A    
C5    H32   S    
C25   C26   A    
C28   C44   S    
C30   C37   A    
C12   C40   S    
C31   H15   S    
C9    C14   A    
C29   C30   A    
O9    Zn2   S    
C34   H27   S    
C31   C32   A    
O1    Zn1   S    
C1    O9    A    
C23   C34   S    
C2    C21   A    
C25   N1    A    
C17   C18   A    
C47   O7    D    
C25   S2    S    
C34   C45   S    
O4    S2    D    
C24   H13   S    
H24   O6    S    
O11   Zn2   S    
C22   C27   A    
C26   C27   A    
C22   C24   A    
N2    Zn1   S    
C42   C43   S    
C47   H25   S    
N1    Zn2   S    
O2    S1    D    
C24   N1    A    
C45   C48   S    
O15   Zn2   S    
C15   C17   A    
O13   Zn2   S    
C43   H19   S    
C27   C32   A    
C41   H8    S    
C3    C5    A    
C16   O13   A    
C6    C7    A    
C46   C50   S    
C40   H12   S    
C36   C38   A    
C3    H31   S    
C11   C13   A    
C16   O12   A    
C38   C39   A    
C10   C18   A    
C32   H7    S    
C21   H28   S    
C33   C35   A    
C35   H10   S    
C37   C41   A    
O16   S1    D    
C1    C52   S    
C10   C11   A    
O6    S2    S    
C34   H21   S    
C26   C29   A    
C12   H23   S    
C42   H14   S    
C14   C15   A    
C39   N2    A    
C6    C52   A    
C20   H29   S    
C43   C47   S    
C11   H4    S    
C33   H16   S    
