data_mof_unit_48319.cif
_audit_creation_date              2013-03-05T15:49:57-0500
_audit_creation_method            fapswitch 2.2
_symmetry_space_group_name_H-M    P1
_symmetry_Int_Tables_number       1
_space_group_crystal_system       triclinic
_cell_length_a                    12.09543
_cell_length_b                    12.879509
_cell_length_c                    14.938671
_cell_angle_alpha                 91.195854
_cell_angle_beta                  84.939745
_cell_angle_gamma                 92.487074
_cell_volume                      2315.60048302

loop_
_atom_site_label
_atom_site_type_symbol
_atom_site_description
_atom_site_fract_x
_atom_site_fract_y
_atom_site_fract_z
_atom_type_partial_charge
O1    O     O_R   0.421700 0.658830 0.504450 -0.571471
O2    O     O_R   0.578300 0.341170 0.495550 -0.566712
O3    O     O_R   0.609310 0.646410 0.493750 -0.647568
O4    O     O_R   0.390690 0.353590 0.506250 -0.641089
C1    C     C_R   0.521343 0.700152 0.498551 0.899991
C2    C     C_R   0.478656 0.299848 0.501457 0.897637
O5    O     O_R   0.406180 0.506230 0.637500 -0.555477
O6    O     O_R   0.593820 0.493770 0.362500 -0.559089
O7    O     O_R   0.593800 0.493820 0.626800 -0.644941
O8    O     O_R   0.406200 0.506180 0.373200 -0.638497
C3    C     C_R   0.499295 0.500206 0.673036 0.894837
C4    C     C_R   0.500711 0.499758 0.326964 0.893461
Zn1   Zn    Zn3+2 0.374730 0.508290 0.507150 1.030039
Zn2   Zn    Zn3+2 0.625270 0.491710 0.492850 1.025008
C5    C     C_R   0.420895 0.438012 0.190886 -0.129154
C6    C     C_R   0.579352 0.561610 0.809099 -0.163674
C7    C     C_R   0.501517 0.498449 0.231340 -0.064608
C8    C     C_R   0.498552 0.501388 0.768656 -0.063385
C9    C     C_R   0.581264 0.558909 0.181280 -0.121798
C10   C     C_R   0.418818 0.440905 0.818711 -0.124145
C11   C     C_R   0.580930 0.560077 0.088780 0.075333
C12   C     C_R   0.419320 0.439540 0.911198 0.076082
C13   C     C_R   0.500618 0.498372 0.046552 0.026449
C14   C     C_R   0.499707 0.501163 0.953419 0.030890
C15   C     C_R   0.421159 0.434331 0.097688 0.005395
C16   C     C_R   0.579173 0.565201 0.902286 0.001300
C17   C     C_R   0.658548 0.623675 0.038637 -0.217921
C18   C     C_R   0.341751 0.375884 0.961340 -0.215784
C19   C     C_R   0.657495 0.628659 0.945595 0.301168
C20   C     C_R   0.342864 0.370846 0.054377 0.313760
H1    H     H_    0.358530 0.394751 0.233070 0.201077
H2    H     H_    0.641761 0.604818 0.766913 0.201327
H3    H     H_    0.641886 0.606604 0.214807 0.161782
H4    H     H_    0.358098 0.393328 0.785189 0.163124
H5    H     H_    0.718287 0.672059 0.072351 0.200019
H6    H     H_    0.281973 0.327537 0.927635 0.200702
C21   C     C_R   0.466135 0.188725 0.501248 -0.061258
C22   C     C_R   0.533850 0.811274 0.498811 -0.053528
C23   C     C_R   0.645508 0.968232 0.516241 -0.162951
C24   C     C_R   0.354460 0.031765 0.483873 -0.165374
C25   C     C_R   0.636652 0.860908 0.512033 -0.170363
C26   C     C_R   0.363328 0.139091 0.488041 -0.160377
C27   C     C_R   0.440491 0.868112 0.488264 -0.202481
C28   C     C_R   0.559478 0.131887 0.511844 -0.200605
C29   C     C_R   0.448363 0.974806 0.492922 0.161570
C30   C     C_R   0.551602 0.025191 0.507201 0.160365
H7    H     H_    0.638733 0.170439 0.523116 0.186820
H8    H     H_    0.361230 0.829561 0.477003 0.176918
H9    H     H_    0.290655 0.182980 0.479633 0.182843
H10   H     H_    0.709333 0.817018 0.520417 0.175248
H11   H     H_    0.724970 0.006478 0.527015 0.163557
H12   H     H_    0.274996 0.993518 0.473104 0.157956
N1    N     N_R   0.207800 0.519350 0.516680 -0.180809
N2    N     N_R   0.792200 0.480650 0.483320 -0.189870
C31   C     C_R   0.963894 0.481326 0.383555 0.238918
C32   C     C_R   0.036080 0.518867 0.616509 0.286166
C33   C     C_R   0.848305 0.456512 0.400254 0.424671
C34   C     C_R   0.151746 0.543580 0.599764 0.333752
C35   C     C_R   0.853567 0.506097 0.553270 -0.034205
C36   C     C_R   0.146394 0.494087 0.446712 -0.034619
C37   C     C_R   0.972055 0.505091 0.543204 -0.137414
C38   C     C_R   0.027925 0.494999 0.456849 -0.170955
H13   H     H_    0.190170 0.473443 0.383195 0.223949
H14   H     H_    0.809717 0.526994 0.616686 0.212490
S1    S     S_3+6 0.027299 0.504323 0.272595 0.090543
O9    O     O_2   0.087144 0.409705 0.238402 -0.180340
O10   O     O_2   0.943669 0.529785 0.208690 -0.203695
O11   O     O_3   0.120615 0.604875 0.275016 -0.543145
H15   H     H_    0.077920 0.663588 0.301587 0.351486
S2    S     S_3+6 0.972247 0.497236 0.727521 0.082738
O12   O     O_2   0.055720 0.471406 0.791423 -0.181811
O13   O     O_2   0.913280 0.592749 0.760823 -0.242620
O14   O     O_3   0.878720 0.396799 0.724903 -0.563587
H16   H     H_    0.830778 0.402738 0.781918 0.385949
N3    N     N_R   0.733655 0.700832 0.897356 0.226906
O15   O     O_R   0.833292 0.717380 0.922551 -0.270346
O16   O     O_R   0.697295 0.764837 0.841522 -0.360497
N4    N     N_R   0.266706 0.298687 0.102635 0.229814
O17   O     O_R   0.166996 0.282262 0.077558 -0.281254
O18   O     O_R   0.303081 0.234647 0.158431 -0.365819
S3    S     S_3+6 0.208115 0.632323 0.679408 0.116487
O19   O     O_2   0.247904 0.574671 0.755812 -0.208800
O20   O     O_2   0.301146 0.701629 0.639709 -0.292551
O21   O     O_3   0.108059 0.710308 0.722371 -0.429665
H17   H     H_    0.085822 0.748196 0.670224 0.340666
S4    S     S_3+6 0.792244 0.367774 0.320586 0.099476
O22   O     O_2   0.700132 0.297924 0.360972 -0.289965
O23   O     O_2   0.751810 0.425453 0.244414 -0.267760
O24   O     O_3   0.893330 0.290552 0.278133 -0.481569
H18   H     H_    0.862252 0.252737 0.226998 0.404878

loop_
_geom_bond_atom_site_label_1
_geom_bond_atom_site_label_2
_geom_bond_distance
_ccdc_geom_bond_type
C23   H11   1.084066 S    
C3    C8    1.427448 S    
C17   C19   1.393944 A    
O14   H16   0.990736 S    
O7    Zn2   2.003505 S    
S3    O19   1.499669 D    
C23   C25   1.382339 A    
C29   C30   1.413086 A    
O5    C3    1.292698 A    
C35   H14   1.079029 S    
C36   H13   1.079089 S    
O1    C1    1.292719 A    
C9    C11   1.382588 A    
C14   C16   1.419703 A    
S4    O23   1.500292 D    
C5    C15   1.391798 A    
C31   C38   1.399782 A    
O4    Zn1   2.009762 S    
C33   S4    1.789066 S    
C36   C38   1.428101 A    
C21   C26   1.401035 A    
C31   S1    1.788854 S    
O11   H15   0.990591 S    
S1    O10   1.501444 D    
C4    C7    1.427432 S    
C13   C14   1.393526 A    
S2    O12   1.501252 D    
C27   H8    1.085158 S    
C8    C10   1.388503 A    
C28   H7    1.085144 S    
O7    C3    1.287237 A    
C10   H4    1.085661 S    
C24   C26   1.382341 A    
C11   C17   1.395794 A    
C12   C18   1.395859 A    
C1    C22   1.432593 S    
O2    C2    1.292735 A    
S3    O20   1.493945 D    
N1    C36   1.360810 A    
C28   C30   1.374085 A    
Zn1   N1    2.022546 S    
N2    C35   1.360782 A    
C11   C13   1.411863 A    
C6    C16   1.391711 A    
C24   C29   1.396430 A    
C35   C37   1.428373 A    
O21   H17   0.990734 S    
C22   C25   1.401027 A    
O4    C2    1.290233 A    
C9    H3    1.085673 S    
C34   S3    1.790387 S    
S4    O22   1.493888 D    
C17   H5    1.084484 S    
C24   H12   1.084071 S    
S4    O24   1.681893 S    
N3    O15   1.301487 A    
N3    O16   1.301348 A    
O6    C4    1.292585 A    
S1    O11   1.682508 S    
S2    O14   1.683240 S    
C2    C21   1.432612 S    
C27   C29   1.374076 A    
O3    Zn2   2.009762 S    
O8    C4    1.287336 A    
C23   C30   1.396437 A    
Zn2   N2    2.022546 S    
C10   C12   1.382663 A    
C32   S2    1.788481 S    
C31   C33   1.422001 A    
C12   C14   1.411899 A    
O1    Zn1   1.996816 S    
C25   H10   1.083308 S    
S3    O21   1.681355 S    
C15   C20   1.415211 A    
C5    C7    1.393007 A    
O6    Zn2   2.017652 S    
N4    O17   1.301487 A    
O3    C1    1.290242 A    
O8    Zn1   2.003505 S    
N1    C34   1.396898 A    
C5    H1    1.082096 S    
C19   N3    1.438231 S    
C6    H2    1.082090 S    
C21   C28   1.394178 A    
C18   C20   1.393991 A    
C22   C27   1.394193 A    
C7    C9    1.388489 A    
C32   C34   1.422710 A    
N4    O18   1.301347 A    
C13   C15   1.419699 A    
C37   C38   1.408752 A    
O2    Zn2   1.996816 S    
C26   H9    1.083304 S    
C20   N4    1.438227 S    
O5    Zn1   2.017650 S    
C18   H6    1.084481 S    
C16   C19   1.415237 A    
C6    C8    1.393041 A    
S1    O9    1.501766 D    
C32   C37   1.399982 A    
S2    O13   1.502504 D    
O24   H18   0.990597 S    
N2    C33   1.396656 A    
