data_mof_unit_49859.cif
_audit_creation_date              2012-10-26T20:14:34-0400
_audit_creation_method            fapswitch 2.2
_symmetry_space_group_name_H-M    P1
_symmetry_Int_Tables_number       1
_space_group_crystal_system       triclinic
_cell_length_a                    7.769654
_cell_length_b                    9.088886
_cell_length_c                    17.294663
_cell_angle_alpha                 90.046022
_cell_angle_beta                  86.599081
_cell_angle_gamma                 89.989836
_cell_volume                      1219.1545605

loop_
_atom_site_label
_atom_site_type_symbol
_atom_type_description
_atom_site_fract_x
_atom_site_fract_y
_atom_site_fract_z
_atom_type_partial_charge
C1    C     C_R   0.500003 0.780017 0.499939 0.537242
C2    C     C_R   0.373726 0.507503 0.226951 -0.177705
C3    C     C_R   0.626994 0.422943 0.850060 0.249619
C4    C     C_R   0.372563 0.519522 0.146462 0.255430
C5    C     C_R   0.471281 0.432212 0.894779 0.044707
C6    C     C_R   0.529647 0.538149 0.103189 0.046272
C7    C     C_R   0.316479 0.461257 0.860492 -0.147571
C8    C     C_R   0.683878 0.552844 0.140273 -0.150981
C9    C     C_R   0.315637 0.488737 0.781148 0.245667
C10   C     C_R   0.684416 0.547355 0.220865 0.246648
C11   C     C_2   0.471547 0.424978 0.979428 0.363882
C12   C     C_R   0.500020 0.219973 0.499938 0.554013
C13   C     C_2   0.534548 0.540082 0.017973 0.337448
C14   C     C_3   0.858050 0.709491 0.281514 0.024025
C15   C     C_3   0.963036 0.800830 0.221110 -0.286022
C16   C     C_3   0.994569 0.956163 0.250719 -0.459528
C17   C     C_3   0.135703 0.670365 0.741786 0.018564
C18   C     C_3   0.025746 0.730098 0.811335 -0.272563
C19   C     C_3   0.982897 0.892451 0.800826 -0.458977
C20   C     C_1   0.500017 0.934616 0.499892 -0.060362
C21   C     C_1   0.500040 0.065355 0.499896 -0.052940
C22   C     C_R   0.478823 0.496734 0.650622 0.550366
C23   C     C_R   0.521249 0.504578 0.349414 0.550320
C24   C     C_R   0.471987 0.479676 0.735191 -0.020926
C25   C     C_R   0.528592 0.518245 0.264652 -0.021576
C26   C     C_R   0.626214 0.446813 0.770309 -0.179041
Cu1   Cu    Cu3+1 0.330920 0.500000 0.500000 1.023006
Cu2   Cu    Cu3+1 0.669080 0.500000 0.500000 1.019681
H1    H     H_    0.196871 0.467096 0.895934 0.156623
H2    H     H_    0.892915 0.808158 0.167127 0.167173
H3    H     H_    0.870002 0.013603 0.263835 0.162854
H4    H     H_    0.070588 0.019582 0.205717 0.177128
H5    H     H_    0.068008 0.952189 0.303876 0.154447
H6    H     H_    0.065296 0.689069 0.688576 0.170949
H7    H     H_    0.258737 0.733748 0.733939 0.121391
H8    H     H_    0.903638 0.666691 0.818297 0.206237
H9    H     H_    0.096426 0.717560 0.864893 0.179395
H10   H     H_    0.103081 0.958715 0.794848 0.156945
H11   H     H_    0.903761 0.932392 0.852178 0.181029
H12   H     H_    0.804455 0.567930 0.106411 0.154113
H13   H     H_    0.908419 0.907917 0.748552 0.153632
H14   H     H_    0.637627 0.734652 0.014829 0.315426
H15   H     H_    0.368730 0.230905 0.980327 0.321294
H16   H     H_    0.746778 0.438644 0.735747 0.152539
H17   H     H_    0.252683 0.489821 0.260027 0.154090
H18   H     H_    0.123318 0.494766 0.147372 0.343128
H19   H     H_    0.874478 0.386886 0.845896 0.336677
H20   H     H_    0.929585 0.705522 0.335245 0.174241
H21   H     H_    0.732680 0.765145 0.297542 0.117864
H22   H     H_    0.089346 0.746749 0.207387 0.186185
N1    N     N_1   0.923170 0.500000 0.500010 -0.083853
N2    N     N_1   0.076830 0.500000 0.499990 -0.082339
O1    O     O_R   0.357240 0.711600 0.500000 -0.507748
O2    O     O_3   0.777255 0.391163 0.885657 -0.680060
O3    O     O_3   0.839652 0.562749 0.255391 -0.563060
O4    O     O_3   0.160011 0.516584 0.748995 -0.564614
O5    O     O_3   0.604590 0.658957 0.977136 -0.719227
O6    O     O_3   0.407513 0.302551 0.018937 -0.678960
O7    O     O_R   0.642760 0.288400 0.500000 -0.494710
O8    O     O_R   0.642760 0.711600 0.500000 -0.510402
O9    O     O_R   0.357240 0.288400 0.500000 -0.493196
O10   O     O_R   0.340660 0.500000 0.613590 -0.462381
O11   O     O_R   0.659340 0.500000 0.386410 -0.464518
O12   O     O_R   0.626230 0.500000 0.613600 -0.519287
O13   O     O_R   0.373770 0.500000 0.386400 -0.520153
O14   O     O_3   0.220528 0.513455 0.108888 -0.677547

loop_
_geom_bond_atom_site_label_1
_geom_bond_atom_site_label_2
_ccdc_geom_bond_type
C2    C4    A    
Cu1   O1    S    
C9    C24   A    
H18   O14   S    
C1    O8    A    
C7    H1    S    
Cu1   O10   S    
C6    C8    A    
C16   H5    S    
C22   O10   A    
C11   O6    S    
C17   H7    S    
Cu2   N1    S    
C14   O3    S    
C23   O13   A    
Cu2   O8    S    
C17   C18   S    
C26   H16   S    
C9    O4    S    
Cu1   N2    S    
C16   H3    S    
C4    O14   S    
C10   O3    S    
C11   C13   D    
C17   O4    S    
C8    H12   S    
C19   H11   S    
H19   O2    S    
Cu1   O13   S    
C15   C16   S    
Cu2   O12   S    
C10   C25   A    
C23   O11   A    
C19   H10   S    
C18   H9    S    
C24   C26   A    
C5    C11   S    
C2    C25   A    
C5    C7    A    
C23   C25   S    
C2    H17   S    
C12   O9    A    
C3    O2    S    
C22   C24   S    
C15   H22   S    
C14   H21   S    
C16   H4    S    
C17   H6    S    
C22   O12   A    
N1    N2    T    
Cu2   O11   S    
C13   O5    S    
C20   C21   T    
H14   O5    S    
C15   H2    S    
C8    C10   A    
C4    C6    A    
Cu2   O7    S    
Cu1   Cu2   S    
C7    C9    A    
C1    O1    A    
C14   C15   S    
C18   C19   S    
C1    C20   S    
C14   H20   S    
Cu1   O9    S    
H15   O6    S    
C3    C5    A    
C12   O7    A    
C18   H8    S    
C12   C21   S    
C3    C26   A    
C19   H13   S    
C6    C13   S    
