data_mof_unit_64502.cif
_audit_creation_date              2013-03-05T16:11:22-0500
_audit_creation_method            fapswitch 2.2
_symmetry_space_group_name_H-M    P1
_symmetry_Int_Tables_number       1
_space_group_crystal_system       triclinic
_cell_length_a                    8.360725
_cell_length_b                    16.080531
_cell_length_c                    17.400725
_cell_angle_alpha                 111.558016
_cell_angle_beta                  83.532201
_cell_angle_gamma                 95.057878
_cell_volume                      2159.16667203

loop_
_atom_site_label
_atom_site_type_symbol
_atom_site_description
_atom_site_fract_x
_atom_site_fract_y
_atom_site_fract_z
_atom_type_partial_charge
P1    P     P_3+3 0.533580 0.585010 0.696460 0.436449
O1    O     O_2   0.351410 0.559500 0.703710 -0.354866
O2    O     O_3   0.622300 0.553110 0.604480 -0.431267
O3    O     O_3   0.077860 0.395310 0.623380 -0.394041
O4    O     O_2   0.160330 0.468193 0.777310 -0.397114
O5    O     O_3   0.540522 0.699709 0.760004 -0.608429
O6    O     O_3   0.084566 0.294793 0.723054 -0.514024
H1    H     H_    0.107409 0.231029 0.595314 0.151977
C1    C     C_3   0.037012 0.135899 0.654313 -1.035501
H2    H     H_    0.163553 0.118325 0.650333 0.289779
H3    H     H_    0.972862 0.133322 0.712884 0.269418
P2    P     P_3+3 0.097450 0.292710 0.397510 0.454890
P3    P     P_3+3 0.492147 0.231691 0.546899 0.479382
O7    O     O_2   0.261760 0.281010 0.418880 -0.373043
O8    O     O_3   0.488390 0.347430 0.574410 -0.368028
O9    O     O_2   0.357133 0.188692 0.488752 -0.353912
O10   O     O_3   0.103459 0.258807 0.288880 -0.614076
O11   O     O_3   0.427165 0.206104 0.635751 -0.533197
C2    C     C_3   0.536510 0.243752 0.697375 0.668579
H4    H     H_    0.634268 0.286667 0.680046 -0.012090
C3    C     C_3   0.617487 0.169049 0.710676 -0.993397
H5    H     H_    0.526772 0.119327 0.722237 0.276980
H6    H     H_    0.696017 0.134176 0.654602 0.223053
C4    C     C_3   0.775949 0.261409 0.270419 0.495627
H7    H     H_    0.868414 0.272017 0.223374 0.122367
H8    H     H_    0.813696 0.292767 0.334014 0.124130
C5    C     C_3   0.749159 0.161186 0.251121 -1.055108
H9    H     H_    0.865736 0.131398 0.247812 0.253372
H10   H     H_    0.667474 0.148601 0.300944 0.268714
H11   H     H_    0.697032 0.128235 0.190608 0.262878
Ba1   Ba    Ba6+2 0.325860 0.460280 0.530510 1.531758
C6    C     C_3   0.588239 0.757394 0.717487 0.054420
H12   H     H_    0.478014 0.775751 0.700069 0.112360
H13   H     H_    0.676829 0.727289 0.664710 0.120177
C7    C     C_3   0.665942 0.845194 0.774629 0.324264
H14   H     H_    0.777445 0.830148 0.795104 0.116538
C8    C     C_3   0.254015 0.270129 0.248670 0.719096
H15   H     H_    0.340951 0.312526 0.292233 0.128086
C9    C     C_3   0.225756 0.316985 0.189617 -1.096218
H16   H     H_    0.143038 0.275400 0.142757 0.255336
H17   H     H_    0.341104 0.329609 0.156425 0.234790
H18   H     H_    0.167544 0.380795 0.225090 0.288657
P4    P     P_3+3 0.656110 0.414920 0.303520 0.453669
O12   O     O_2   0.838300 0.440470 0.296230 -0.365268
O13   O     O_3   0.567380 0.446810 0.395500 -0.389994
O14   O     O_3   0.111820 0.604620 0.376600 -0.387298
O15   O     O_3   0.633599 0.297555 0.266293 -0.613441
P5    P     P_3+3 0.707439 0.771645 0.459040 0.446759
O16   O     O_3   0.149150 0.609060 0.561440 -0.405176
O17   O     O_3   0.701290 0.652490 0.425560 -0.400403
O18   O     O_2   0.865946 0.808753 0.500155 -0.381806
O19   O     O_3   0.732753 0.802410 0.371497 -0.518045
Ba2   Ba    Ba6+2 0.863950 0.539650 0.469460 1.509054
P6    P     P_3+3 0.037560 0.399231 0.724164 0.435600
C10   C     C_3   0.029907 0.228677 0.650615 0.535075
H19   H     H_    0.903621 0.238219 0.642927 -0.006836
H20   H     H_    0.979422 0.085208 0.601067 0.226184
O20   O     O_3   0.040530 0.390860 0.438530 -0.372133
C11   C     C_3   0.990925 0.661105 0.734414 0.368662
H21   H     H_    0.861101 0.653123 0.725177 0.044786
H22   H     H_    0.050447 0.600161 0.691480 0.131608
C12   C     C_3   0.015542 0.667130 0.822413 -0.410286
H23   H     H_    0.974731 0.601874 0.827411 0.156273
H24   H     H_    0.146204 0.676983 0.831950 0.230977
P7    P     P_3+3 0.095894 0.720760 0.616272 0.409089
O21   O     O_2   0.927940 0.718960 0.581060 -0.377351
O22   O     O_3   0.056203 0.739220 0.722284 -0.587604
H25   H     H_    0.693178 0.197296 0.763818 0.246724
C13   C     C_3   0.685767 0.729089 0.302401 0.528789
H26   H     H_    0.767815 0.673433 0.287352 0.156355
H27   H     H_    0.560115 0.705285 0.313768 -0.021704
C14   C     C_3   0.694181 0.757595 0.227818 -1.022066
H28   H     H_    0.819422 0.780388 0.213709 0.276334
H29   H     H_    0.656026 0.700199 0.172998 0.218199
H30   H     H_    0.613000 0.813158 0.240913 0.262033
P8    P     P_3+3 0.141736 0.590188 0.270118 0.432846
C15   C     C_3   0.223380 0.744669 0.251656 0.694908
H31   H     H_    0.340314 0.716825 0.251308 0.032737
O23   O     O_2   0.009492 0.521882 0.226385 -0.375935
O24   O     O_3   0.088565 0.686408 0.255256 -0.518027
H32   H     H_    0.333681 0.809946 0.167347 0.230088
C16   C     C_3   0.227683 0.764640 0.171854 -1.052537
H33   H     H_    0.116334 0.796912 0.170627 0.257869
H34   H     H_    0.237168 0.702411 0.116576 0.285018
C17   C     C_2   0.743397 0.473928 0.717145 -0.463346
C18   C     C_3   0.822125 0.424181 0.760928 0.128217
C19   C     C_2   0.791876 0.462234 0.853548 -0.182812
C20   C     C_2   0.659975 0.509283 0.888636 0.075367
C21   C     C_2   0.568005 0.539961 0.834483 -0.296568
C22   C     C_1   0.621281 0.525899 0.755241 0.352941
C23   C     C_R   0.396786 0.527432 0.137880 0.389514
C24   C     C_R   0.335649 0.539284 0.220443 0.084134
C25   C     C_R   0.564470 0.466158 0.238694 0.335082
C26   C     C_R   0.632432 0.460690 0.159144 -0.373302
C27   C     C_R   0.548865 0.490025 0.107493 -0.128567
C28   C     C_2   0.605921 0.528819 0.978856 -0.181724
C29   C     C_2   0.610774 0.468948 0.017627 0.563295
C30   C     C_R   0.415498 0.503321 0.266350 -0.499960
H35   H     H_    0.458261 0.575105 0.861063 0.175099
H36   H     H_    0.555783 0.593483 0.013259 0.133075
H37   H     H_    0.867271 0.442624 0.890220 0.194780
H38   H     H_    0.746458 0.429550 0.135815 0.187906
H39   H     H_    0.768516 0.452768 0.650384 0.177464
H40   H     H_    0.352192 0.495884 0.320586 0.170625
C31   C     C_2   0.424778 0.775289 0.563651 -0.276269
C32   C     C_R   0.807129 0.248499 0.477909 -0.491777
C33   C     C_2   0.228285 0.891750 0.624168 -0.320742
C34   C     C_2   0.257147 0.804581 0.599869 0.247176
C35   C     C_2   0.531528 0.825887 0.532596 0.258570
C36   C     C_3   0.478591 0.915918 0.538693 -0.057390
C37   C     C_3   0.361955 0.958437 0.615761 0.079828
C38   C     C_2   0.611172 0.981006 0.527690 -0.279178
C39   C     C_2   0.597707 0.030484 0.480456 0.588866
C40   C     C_R   0.879089 0.070388 0.438660 0.025345
C41   C     C_R   0.725157 0.098042 0.474421 -0.139468
C42   C     C_R   0.995246 0.130662 0.421496 -0.304400
C43   C     C_R   0.958279 0.219352 0.438300 0.317525
C44   C     C_R   0.689674 0.188469 0.495535 0.202345
H41   H     H_    0.111076 0.915610 0.653408 0.158911
H42   H     H_    0.112090 0.106991 0.392897 0.179290
H43   H     H_    0.778174 0.317061 0.491732 0.177304
H44   H     H_    0.717649 0.989838 0.560867 0.137268
C45   C     C_3   0.551326 0.891185 0.851758 -0.215290
C46   C     C_3   0.627458 0.978386 0.909592 -0.884124
H45   H     H_    0.741758 0.965637 0.929259 0.246600
H46   H     H_    0.652125 0.027677 0.878183 0.293195
H47   H     H_    0.543406 0.007557 0.965674 0.234770
H48   H     H_    0.437958 0.905968 0.832478 0.189958
H49   H     H_    0.519970 0.845874 0.887060 0.172803
O25   O     O_3   0.704748 0.903070 0.730529 -0.748316
H50   H     H_    0.803374 0.881252 0.693345 0.326044
C47   C     C_3   0.320910 0.177757 0.196050 -0.391087
C48   C     C_3   0.328479 0.117175 0.245261 -0.798885
H51   H     H_    0.389813 0.152562 0.302471 0.287222
H52   H     H_    0.204807 0.094004 0.261137 0.244617
H53   H     H_    0.396170 0.057299 0.206749 0.234253
H54   H     H_    0.243725 0.141843 0.144511 0.193586
H55   H     H_    0.443269 0.187195 0.167351 0.198977
C49   C     C_3   0.919459 0.739191 0.891757 -0.273182
C50   C     C_3   0.006482 0.831732 0.916444 -0.829473
H56   H     H_    0.936203 0.879536 0.969898 0.227591
H57   H     H_    0.127982 0.829190 0.935352 0.250159
H58   H     H_    0.019171 0.857118 0.864750 0.277626
H59   H     H_    0.797177 0.741726 0.873848 0.193006
H60   H     H_    0.902867 0.720073 0.947525 0.195073
C51   C     C_3   0.205441 0.832748 0.326099 -0.396958
C52   C     C_3   0.210608 0.818198 0.407127 -0.801816
H61   H     H_    0.116321 0.767980 0.412978 0.322821
H62   H     H_    0.329649 0.794152 0.408978 0.203041
H63   H     H_    0.187392 0.881500 0.459966 0.246292
H64   H     H_    0.304792 0.881700 0.321089 0.201608
H65   H     H_    0.088861 0.861777 0.327051 0.234718
C53   C     C_3   0.447539 0.304143 0.778583 -0.295640
C54   C     C_3   0.330363 0.254269 0.822968 -0.723714
H66   H     H_    0.254374 0.202947 0.779074 0.275914
H67   H     H_    0.397711 0.221065 0.854268 0.230182
H68   H     H_    0.251215 0.302795 0.871114 0.256491
H69   H     H_    0.537391 0.341737 0.822302 0.188864
H70   H     H_    0.382477 0.353756 0.765076 0.234494
O26   O     O_3   0.664361 0.384481 0.971443 -0.788106
H71   H     H_    0.640364 0.345679 0.004696 0.316207
O27   O     O_3   0.307163 0.543690 0.083364 -0.788340
H72   H     H_    0.193699 0.551343 0.106442 0.350351
C55   C     C_3   0.455297 0.679543 0.543332 -0.302017
C56   C     C_3   0.388799 0.630235 0.460183 -0.516420
H73   H     H_    0.276902 0.660811 0.465699 0.238353
H74   H     H_    0.446540 0.643277 0.405773 0.159551
H75   H     H_    0.369657 0.559006 0.448037 0.255041
H76   H     H_    0.580445 0.667591 0.546548 0.235983
H77   H     H_    0.398500 0.656230 0.592174 0.211139
O28   O     O_3   0.466407 0.021373 0.435629 -0.735443
H78   H     H_    0.372395 0.994597 0.459464 0.325361

loop_
_geom_bond_atom_site_label_1
_geom_bond_atom_site_label_2
_geom_bond_distance
_ccdc_geom_bond_type
O5    C6    1.392682 S    
C10   H19   1.109824 S    
C20   C28   1.506739 S    
C56   H73   1.073490 S    
Ba2   O20   2.773331 S    
C5    H10   1.109119 S    
C55   H77   1.095521 S    
C52   H61   1.101821 S    
C50   H58   1.108028 S    
O6    C10   1.409703 S    
O7    Ba1   2.866643 S    
C19   C20   1.348060 D    
O14   P8    1.771818 S    
C40   C41   1.399433 A    
C24   C30   1.394978 A    
C45   C46   1.527764 S    
C39   O28   1.384037 S    
C17   C18   1.518980 S    
P1    C22   1.869133 S    
O16   P7    1.766572 S    
P3    O11   1.758875 S    
C21   H35   1.085782 S    
C15   C51   1.533594 S    
Ba1   O20   2.928542 S    
C55   C56   1.513797 S    
C2    C3    1.529053 S    
C50   H57   1.111005 S    
O11   C2    1.413617 S    
O16   Ba2   2.927610 S    
C47   H55   1.110037 S    
P1    Ba1   3.411282 S    
C42   C43   1.402101 A    
C32   H43   1.082157 S    
P1    O1    1.545484 D    
C53   H69   1.104194 S    
C13   H27   1.107794 S    
C36   C37   1.538161 S    
C12   H24   1.112223 S    
O19   C13   1.404641 S    
C11   O22   1.402953 S    
C19   H37   1.085145 S    
O12   Ba2   2.868477 S    
P4    Ba2   3.411714 S    
P5    O18   1.544218 D    
C7    H14   1.110184 S    
C47   C48   1.523950 S    
P7    O22   1.754470 S    
P2    O10   1.760352 S    
C48   H53   1.110365 S    
C33   C34   1.342733 D    
C4    C5    1.521803 S    
C23   O27   1.380814 S    
C1    C10   1.523335 S    
C12   C49   1.536975 S    
C1    H2    1.107160 S    
P7    C34   1.895126 S    
C54   H67   1.111133 S    
C17   H39   1.084682 S    
P2    O20   1.566850 S    
P5    O17   1.783941 S    
P5    C35   1.882496 S    
O13   Ba2   2.947444 S    
C11   H21   1.104547 S    
C56   H74   1.094765 S    
C3    H5    1.109914 S    
C32   C44   1.404562 A    
C5    H11   1.110005 S    
C55   H76   1.091531 S    
C13   H26   1.111608 S    
Ba1   O16   2.773835 S    
C14   H30   1.110570 S    
H1    C10   1.108717 S    
C33   H41   1.084847 S    
C38   C39   1.355898 D    
H32   C16   1.111227 S    
C9    H18   1.107098 S    
C31   C34   1.510815 S    
C11   H22   1.109241 S    
O17   Ba2   2.722738 S    
P1    O5    1.767682 S    
C6    C7    1.534995 S    
P3    C44   1.850027 S    
O4    P6    1.548566 D    
C52   H63   1.107272 S    
C4    H7    1.110719 S    
C54   H68   1.111027 S    
C14   H29   1.110493 S    
C23   C24   1.418470 A    
P6    C18   1.869148 S    
C18   C19   1.498855 S    
C47   H54   1.112790 S    
C15   H31   1.109129 S    
Ba1   Ba2   4.523441 S    
C42   H42   1.078756 S    
O1    Ba1   2.868015 S    
P1    O2    1.603522 S    
C6    H13   1.099817 S    
C53   H70   1.109388 S    
C13   C14   1.519968 S    
P4    O12   1.545826 D    
C29   O26   1.384006 S    
C38   H44   1.085901 S    
C8    H15   1.106659 S    
C1    H3    1.109974 S    
C49   H59   1.110171 S    
C7    O25   1.405636 S    
C17   C22   1.330835 D    
C41   C44   1.412915 A    
C28   C29   1.368966 D    
C12   H23   1.105614 S    
C31   C55   1.486456 S    
C25   C26   1.410259 A    
O10   C8    1.400697 S    
C50   H56   1.110134 S    
O2    Ba1   2.946544 S    
Ba2   O21   2.866788 S    
P4    O13   1.603553 S    
O28   H78   0.986565 S    
C26   H38   1.082583 S    
C54   H66   1.105322 S    
P8    C24   1.855794 S    
C46   H47   1.110588 S    
C51   H65   1.113153 S    
P2    O7    1.507626 D    
P7    O21   1.587992 D    
C56   H75   1.086115 S    
C16   H34   1.105578 S    
P3    O8    1.745336 S    
C3    H25   1.111023 S    
C48   H51   1.106810 S    
C2    C53   1.541201 S    
C9    H16   1.111364 S    
C46   H46   1.110673 S    
C51   C52   1.517392 S    
C15   O24   1.411784 S    
C32   C43   1.400910 A    
C31   C35   1.355361 D    
C49   H60   1.112126 S    
C11   C12   1.534578 S    
O3    P6    1.726966 S    
C4    O15   1.389737 S    
C33   C37   1.512442 S    
P8    O24   1.760627 S    
C4    H8    1.104066 S    
C14   H28   1.109766 S    
C40   C42   1.397556 A    
C49   C50   1.529077 S    
C27   C29   1.512332 S    
O8    Ba1   2.722229 S    
O27   H72   0.987296 S    
C52   H62   1.106959 S    
C8    C47   1.545695 S    
O26   H71   0.990685 S    
C2    H4    1.110456 S    
C3    H6    1.102758 S    
O25   H50   0.992803 S    
C21   C22   1.342040 D    
P2    Ba1   3.430636 S    
C35   C36   1.514148 S    
C6    H12   1.097689 S    
O2    Ba2   2.877958 S    
C45   H48   1.112395 S    
C15   C16   1.532024 S    
C30   H40   1.069740 S    
C28   H36   1.085458 S    
O14   Ba2   2.846326 S    
C7    C45   1.540209 S    
P4    C25   1.878126 S    
C1    H20   1.109504 S    
C26   C27   1.424646 A    
C36   C38   1.501901 S    
O3    Ba1   2.847123 S    
C23   C27   1.416954 A    
C51   H64   1.111776 S    
P5    O19   1.752914 S    
P8    O23   1.539227 D    
C20   C21   1.514699 S    
C9    H17   1.109502 S    
C8    C9    1.527919 S    
C16   H33   1.110973 S    
Ba1   O13   2.877139 S    
P3    O9    1.543251 D    
C5    H9    1.110017 S    
C48   H52   1.107996 S    
P2    C43   1.853764 S    
O6    P6    1.751021 S    
C53   C54   1.531558 S    
P4    O15   1.755933 S    
C25   C30   1.387398 A    
C45   H49   1.111723 S    
C46   H45   1.110029 S    
C39   C41   1.476886 S    
