data_mof_unit_50357.cif
_audit_creation_date              2013-03-05T15:46:33-0500
_audit_creation_method            fapswitch 2.2
_symmetry_space_group_name_H-M    P1
_symmetry_Int_Tables_number       1
_space_group_crystal_system       triclinic
_cell_length_a                    17.386181
_cell_length_b                    24.58235
_cell_length_c                    14.903416
_cell_angle_alpha                 89.83228
_cell_angle_beta                  125.573835
_cell_angle_gamma                 90.151714
_cell_volume                      5180.8086492

loop_
_atom_site_label
_atom_site_type_symbol
_atom_site_description
_atom_site_fract_x
_atom_site_fract_y
_atom_site_fract_z
_atom_type_partial_charge
C1    C     C_R   0.311041 0.374904 0.909628 -0.093522
C2    C     C_R   0.653922 0.350511 0.091529 -0.048737
C3    C     C_R   0.811041 0.874904 0.909628 -0.093465
C4    C     C_R   0.154052 0.850559 0.091555 -0.049543
H1    H     H_    0.253655 0.365601 0.825670 0.171874
H2    H     H_    0.694893 0.335110 0.174925 0.186013
H3    H     H_    0.753656 0.865600 0.825670 0.171864
H4    H     H_    0.195008 0.835147 0.174943 0.185827
N1    N     N_R   0.394180 0.396910 0.943210 -0.040175
N2    N     N_R   0.605820 0.396910 0.056790 -0.057836
N3    N     N_R   0.894180 0.896910 0.943210 -0.040217
N4    N     N_R   0.105820 0.896910 0.056790 -0.057718
C5    C     C_R   0.404889 0.627115 0.092443 0.294984
C6    C     C_R   0.558353 0.651368 0.908847 0.284418
C7    C     C_R   0.904903 0.127122 0.092441 0.294730
C8    C     C_R   0.058348 0.151370 0.908848 0.284416
N5    N     N_R   0.450950 0.603070 0.056740 -0.120714
N6    N     N_R   0.549050 0.603070 0.943260 -0.127415
N7    N     N_R   0.950950 0.103070 0.056740 -0.120817
N8    N     N_R   0.049050 0.103070 0.943260 -0.127415
C9    C     C_R   0.553312 0.453881 0.304993 -0.123697
C10   C     C_R   0.518233 0.453896 0.750667 -0.126794
C11   C     C_R   0.053317 0.953877 0.304993 -0.123629
C12   C     C_R   0.018207 0.953897 0.750634 -0.127023
H5    H     H_    0.574094 0.412269 0.331634 0.109230
H6    H     H_    0.528522 0.411703 0.742113 0.109524
H7    H     H_    0.074092 0.912263 0.331626 0.109243
H8    H     H_    0.028467 0.911706 0.742041 0.110141
N9    N     N_R   0.525650 0.471570 0.206150 -0.057223
N10   N     N_R   0.474350 0.471570 0.793850 -0.050788
N11   N     N_R   0.025650 0.971570 0.206150 -0.057211
N12   N     N_R   0.974350 0.971570 0.793850 -0.050832
C13   C     C_R   0.248279 0.545215 0.694056 -0.059313
C14   C     C_R   0.767940 0.546317 0.251251 -0.169137
C15   C     C_R   0.748222 0.045232 0.694113 -0.060275
C16   C     C_R   0.267934 0.046321 0.251245 -0.169140
H9    H     H_    0.242310 0.586082 0.663939 0.212831
H10   H     H_    0.787848 0.588333 0.258918 0.222957
H11   H     H_    0.742205 0.086111 0.664031 0.212885
H12   H     H_    0.287836 0.088338 0.258904 0.222948
N13   N     N_R   0.319480 0.528420 0.793810 -0.078343
N14   N     N_R   0.680520 0.528420 0.206190 -0.066908
N15   N     N_R   0.819480 0.028420 0.793810 -0.078393
N16   N     N_R   0.180520 0.028420 0.206190 -0.066900
C17   C     C_R   0.552442 0.544004 0.306730 -0.075464
C18   C     C_R   0.518322 0.544914 0.748600 -0.025933
C19   C     C_R   0.052465 0.043997 0.306744 -0.075271
C20   C     C_R   0.018315 0.044915 0.748592 -0.025788
H13   H     H_    0.569750 0.585100 0.336239 0.204065
H14   H     H_    0.527443 0.586623 0.734883 0.199344
H15   H     H_    0.069806 0.085086 0.336276 0.204018
H16   H     H_    0.027443 0.086624 0.734883 0.199335
N17   N     N_R   0.525640 0.528390 0.206120 -0.064067
N18   N     N_R   0.474360 0.528390 0.793880 -0.057540
N19   N     N_R   0.025640 0.028390 0.206120 -0.064007
N20   N     N_R   0.974360 0.028390 0.793880 -0.057488
C21   C     C_R   0.245205 0.455132 0.694718 0.490349
C22   C     C_R   0.770550 0.455390 0.259312 0.525767
C23   C     C_R   0.745184 0.955140 0.694729 0.490361
C24   C     C_R   0.270555 0.955394 0.259334 0.525745
N21   N     N_R   0.319490 0.471590 0.793840 -0.088352
N22   N     N_R   0.680510 0.471590 0.206160 -0.080529
N23   N     N_R   0.819490 0.971590 0.793840 -0.088308
N24   N     N_R   0.180510 0.971590 0.206160 -0.080483
C25   C     C_R   0.311291 0.624859 0.908504 0.501261
C26   C     C_R   0.647849 0.651177 0.091707 0.483466
C27   C     C_R   0.811386 0.125025 0.908506 0.501576
C28   C     C_R   0.147839 0.151179 0.091707 0.483311
N25   N     N_R   0.394130 0.603080 0.943110 -0.091949
N26   N     N_R   0.605870 0.603080 0.056890 -0.101082
N27   N     N_R   0.894130 0.103080 0.943110 -0.092018
N28   N     N_R   0.105870 0.103080 0.056890 -0.101084
C29   C     C_R   0.403747 0.377228 0.094218 -0.113740
C30   C     C_R   0.562516 0.350922 0.907690 -0.124941
C31   C     C_R   0.903745 0.877230 0.094218 -0.113808
C32   C     C_R   0.062646 0.850972 0.907701 -0.123679
H17   H     H_    0.432393 0.370551 0.180004 0.113674
H18   H     H_    0.521451 0.336760 0.823301 0.126834
H19   H     H_    0.932392 0.870552 0.180003 0.113677
H20   H     H_    0.021580 0.836788 0.823329 0.127101
N29   N     N_R   0.450990 0.396900 0.056840 -0.051034
N30   N     N_R   0.549010 0.396900 0.943160 -0.051499
N31   N     N_R   0.950990 0.896900 0.056840 -0.051051
N32   N     N_R   0.049010 0.896900 0.943160 -0.051668
C33   C     C_R   0.315807 0.362692 0.003516 0.006862
C34   C     C_R   0.629012 0.322469 0.999497 -0.008962
C35   C     C_R   0.815806 0.862694 0.003515 0.006902
C36   C     C_R   0.129322 0.822585 0.999531 -0.008562
C37   C     C_R   0.315424 0.640046 0.000626 -0.279295
C38   C     C_R   0.620201 0.682315 0.000710 -0.244943
C39   C     C_R   0.815485 0.140115 0.000655 -0.279575
C40   C     C_R   0.120188 0.182319 0.000711 -0.245037
C41   C     C_R   0.572267 0.498201 0.371144 0.065689
C42   C     C_R   0.548395 0.498833 0.722571 0.082548
C43   C     C_R   0.072289 0.998194 0.371155 0.065670
C44   C     C_R   0.048376 0.998833 0.722546 0.082528
C45   C     C_R   0.200096 0.500732 0.628984 -0.139121
C46   C     C_R   0.826681 0.501680 0.283481 -0.123055
C47   C     C_R   0.700045 0.000748 0.629029 -0.138848
C48   C     C_R   0.326678 0.001688 0.283485 -0.123208
Ni1   Ni    Ni4+2 0.434860 0.434850 0.869700 0.255776
Ni2   Ni    Ni4+2 0.565140 0.434850 0.130300 0.226309
Ni3   Ni    Ni4+2 0.934860 0.934850 0.869700 0.255817
Ni4   Ni    Ni4+2 0.065140 0.934850 0.130300 0.226254
Ni5   Ni    Ni4+2 0.565130 0.565140 0.130240 0.276940
Ni6   Ni    Ni4+2 0.434870 0.565140 0.869760 0.292017
Ni7   Ni    Ni4+2 0.065130 0.065140 0.130240 0.276892
Ni8   Ni    Ni4+2 0.934870 0.065140 0.869760 0.292111
C49   C     C_R   0.067888 0.553671 0.484194 -0.111660
C50   C     C_R   0.972179 0.553954 0.398559 -0.032785
C51   C     C_R   0.567858 0.053692 0.484218 -0.111932
C52   C     C_R   0.472157 0.053972 0.398556 -0.032769
C53   C     C_R   0.119707 0.505497 0.513565 0.164511
C54   C     C_R   0.928581 0.506065 0.340422 0.080167
C55   C     C_R   0.619674 0.005515 0.513606 0.164700
C56   C     C_R   0.428572 0.006080 0.340425 0.080377
C57   C     C_R   0.080659 0.461061 0.441030 -0.198390
C58   C     C_R   0.984684 0.461417 0.353939 -0.216324
C59   C     C_R   0.580650 0.961082 0.441063 -0.198368
C60   C     C_R   0.484682 0.961435 0.353955 -0.216866
H21   H     H_    0.121886 0.425271 0.454108 0.174015
H22   H     H_    0.953535 0.425611 0.302696 0.172059
H23   H     H_    0.621884 0.925295 0.454150 0.173962
H24   H     H_    0.453541 0.925627 0.302716 0.171518
C61   C     C_3   0.981381 0.605544 0.350776 0.195545
C62   C     C_3   0.085723 0.605102 0.444067 0.279834
C63   C     C_3   0.481378 0.105556 0.350774 0.195537
C64   C     C_3   0.585711 0.105117 0.444094 0.280004
H25   H     H_    0.964187 0.600304 0.266794 0.122638
H26   H     H_    0.109470 0.639309 0.503353 0.143171
H27   H     H_    0.464211 0.100307 0.266806 0.122631
H28   H     H_    0.609441 0.139328 0.503367 0.143057
C65   C     C_R   0.201590 0.680267 0.025878 -0.065101
C66   C     C_R   0.762875 0.731218 0.069050 -0.150450
C67   C     C_R   0.699064 0.179946 0.021892 -0.071399
C68   C     C_R   0.262866 0.231221 0.069059 -0.150450
H29   H     H_    0.187600 0.641031 0.046955 0.143532
H30   H     H_    0.802810 0.695144 0.114176 0.170488
H31   H     H_    0.683074 0.140450 0.039752 0.143034
H32   H     H_    0.302799 0.195148 0.114190 0.170528
C69   C     C_R   0.653887 0.225833 0.022218 -0.189707
C70   C     C_R   0.310378 0.275893 0.071447 -0.172203
C71   C     C_R   0.156632 0.726217 0.026379 -0.190627
C72   C     C_R   0.810384 0.775891 0.071438 -0.172101
H33   H     H_    0.601696 0.222312 0.039783 0.153807
H34   H     H_    0.386695 0.273289 0.117678 0.154408
H35   H     H_    0.106535 0.722988 0.047202 0.153549
H36   H     H_    0.886700 0.773289 0.117666 0.154333
C73   C     C_R   0.676270 0.276213 0.999376 -0.049646
C74   C     C_R   0.260188 0.321815 0.009134 -0.054939
C75   C     C_R   0.176459 0.776269 0.999407 -0.049050
C76   C     C_R   0.760190 0.821814 0.009133 -0.054922
C77   C     C_R   0.744424 0.282096 0.977156 0.527943
C78   C     C_R   0.160440 0.324010 0.946870 0.507963
C79   C     C_R   0.241973 0.781782 0.973062 0.527385
C80   C     C_R   0.660443 0.824009 0.946872 0.507872
C81   C     C_R   0.285482 0.735652 0.972254 -0.150448
C82   C     C_R   0.613014 0.778263 0.946356 -0.067944
C83   C     C_R   0.788161 0.236021 0.976503 -0.145782
C84   C     C_R   0.113007 0.278266 0.946355 -0.067854
H37   H     H_    0.336737 0.738726 0.953054 0.167647
H38   H     H_    0.536560 0.778440 0.899284 0.173533
H39   H     H_    0.841324 0.239318 0.960320 0.165593
H40   H     H_    0.036554 0.278444 0.899279 0.173494
C85   C     C_R   0.265173 0.685693 0.998483 0.073499
C86   C     C_R   0.664709 0.732013 0.005252 0.045161
C87   C     C_R   0.765375 0.185765 0.998730 0.075912
C88   C     C_R   0.164700 0.232017 0.005255 0.045159
C89   C     C_R   0.628192 0.542826 0.643507 0.473545
C90   C     C_R   0.638969 0.541794 0.556575 0.368894
C91   C     C_R   0.128187 0.042826 0.643496 0.473564
C92   C     C_R   0.138987 0.041790 0.556582 0.368903
C93   C     C_R   0.607087 0.495415 0.487455 -0.078566
C94   C     C_R   0.591448 0.496353 0.662177 -0.016547
C95   C     C_R   0.107120 0.995408 0.487471 -0.078726
C96   C     C_R   0.091443 0.996352 0.662165 -0.016924
C97   C     C_R   0.591822 0.446866 0.523744 -0.171105
C98   C     C_R   0.585017 0.447223 0.610817 -0.218907
C99   C     C_R   0.091866 0.946858 0.523770 -0.171117
C100  C     C_R   0.085043 0.947219 0.610831 -0.217665
H41   H     H_    0.573596 0.409354 0.477933 0.149361
H42   H     H_    0.563682 0.409535 0.627549 0.154902
H43   H     H_    0.073660 0.909343 0.477973 0.149450
H44   H     H_    0.063724 0.909529 0.627576 0.155434
O1    O     O_3   0.933229 0.649968 0.356242 -0.736141
H45   H     H_    0.943375 0.649494 0.429107 0.333065
O2    O     O_3   0.144774 0.597857 0.408909 -0.701575
H46   H     H_    0.120328 0.566958 0.356253 0.323609
O3    O     O_3   0.433211 0.149985 0.356198 -0.736186
H47   H     H_    0.443331 0.149518 0.429050 0.333006
O4    O     O_3   0.644791 0.097864 0.408978 -0.701277
H48   H     H_    0.620358 0.066963 0.356329 0.323628
O5    O     O_3   0.771130 0.331156 0.957116 -0.744138
H49   H     H_    0.743761 0.361902 0.972249 0.325551
O6    O     O_3   0.107631 0.368780 0.886026 -0.737494
H50   H     H_    0.150302 0.399836 0.902602 0.315009
O7    O     O_3   0.266402 0.830577 0.949267 -0.744654
H51   H     H_    0.241656 0.861527 0.967463 0.325392
O8    O     O_3   0.607632 0.868779 0.886034 -0.737521
H52   H     H_    0.650300 0.899835 0.902608 0.314986
O9    O     O_3   0.653201 0.587674 0.710980 -0.756750
H53   H     H_    0.675124 0.617434 0.686105 0.383170
O10   O     O_3   0.679423 0.585796 0.541035 -0.742481
H54   H     H_    0.709005 0.572585 0.504936 0.325673
O11   O     O_3   0.153179 0.087678 0.710956 -0.756795
H55   H     H_    0.175103 0.117437 0.686081 0.383138
O12   O     O_3   0.179450 0.085790 0.541052 -0.742540
H56   H     H_    0.209044 0.072576 0.504967 0.325660
N33   N     N_R   0.451417 0.653506 0.197207 0.234341
O13   O     O_R   0.535459 0.673969 0.242820 -0.362340
O14   O     O_R   0.406225 0.662884 0.240904 -0.369937
N34   N     N_R   0.493378 0.671776 0.799128 0.231461
O15   O     O_R   0.407740 0.652540 0.737386 -0.389193
O16   O     O_R   0.522019 0.705212 0.756458 -0.366925
N35   N     N_R   0.951384 0.153437 0.197274 0.234095
O17   O     O_R   0.035434 0.173907 0.242982 -0.362701
O18   O     O_R   0.905949 0.162996 0.240612 -0.368589
N36   N     N_R   0.993375 0.171776 0.799126 0.231493
O19   O     O_R   0.907741 0.152535 0.737378 -0.388878
O20   O     O_R   0.022015 0.205215 0.756461 -0.366952
O21   O     O_3   0.233092 0.402109 0.660565 -0.767806
H57   H     H_    0.164136 0.395272 0.614381 0.314608
O22   O     O_3   0.799944 0.403610 0.299828 -0.783989
H58   H     H_    0.865727 0.405755 0.366584 0.328257
O23   O     O_3   0.733058 0.902121 0.660550 -0.767822
H59   H     H_    0.664102 0.895284 0.614403 0.314583
O24   O     O_3   0.299964 0.903627 0.299921 -0.784144
H60   H     H_    0.365753 0.905785 0.366663 0.328267
O25   O     O_3   0.243685 0.639580 0.800888 -0.757676
H61   H     H_    0.188158 0.653650 0.796344 0.316309
O26   O     O_3   0.689196 0.669442 0.197809 -0.708139
H62   H     H_    0.702017 0.708873 0.200031 0.341820
O27   O     O_3   0.743993 0.139958 0.800963 -0.757141
H63   H     H_    0.688658 0.154334 0.796472 0.316165
O28   O     O_3   0.189172 0.169445 0.197806 -0.708191
H64   H     H_    0.201985 0.208878 0.200026 0.341827

loop_
_geom_bond_atom_site_label_1
_geom_bond_atom_site_label_2
_geom_bond_distance
_ccdc_geom_bond_type
C22   N22   1.339910 A    
O10   H54   0.991622 S    
C65   H29   1.083518 S    
N22   Ni2   1.864175 S    
C79   C81   1.368756 A    
C57   C58   1.396141 A    
C23   C47   1.391316 A    
C89   C90   1.413128 A    
C70   H34   1.084380 S    
N7    N27   1.377417 A    
O22   H58   0.988310 S    
C14   N14   1.328627 A    
N13   N21   1.397012 A    
C72   H36   1.084381 S    
C17   C41   1.385230 A    
C32   N32   1.326971 A    
N6    Ni6   1.864462 S    
N36   O19   1.300748 A    
N15   N23   1.397012 A    
C26   C38   1.376051 A    
C21   O21   1.371173 S    
O11   H55   0.989566 S    
N16   N24   1.397013 A    
C25   C37   1.384765 A    
N10   N18   1.396770 A    
C63   O3    1.408814 S    
C9    C41   1.376196 A    
C5    N5    1.331894 A    
C1    H1    1.077653 S    
C84   H40   1.083544 S    
C39   C87   1.412471 S    
C62   O2    1.409871 S    
N4    Ni4   1.865831 S    
C3    H3    1.077653 S    
N35   O18   1.300721 A    
C47   C55   1.458888 S    
C56   C60   1.404382 A    
C46   C54   1.456278 S    
C62   H26   1.111882 S    
C51   C64   1.503830 S    
C50   C54   1.395799 A    
N4    N32   1.377419 A    
C61   O1    1.408815 S    
C58   H22   1.082333 S    
C41   C93   1.467824 S    
C4    H4    1.078926 S    
C6    N6    1.338189 A    
C33   C74   1.428432 S    
N20   Ni8   1.865219 S    
C52   C63   1.505735 S    
C68   C70   1.360429 A    
N33   O14   1.300686 A    
C7    N7    1.331757 A    
C60   H24   1.082334 S    
C31   N31   1.321943 A    
C6    C38   1.377772 A    
C76   C80   1.413976 A    
C11   C43   1.376167 A    
C48   C56   1.456220 S    
N9    Ni2   1.864494 S    
O28   H64   0.990363 S    
C66   C86   1.388995 A    
C8    N36   1.432006 S    
C75   C79   1.410366 A    
C4    N4    1.328915 A    
C20   C44   1.395997 A    
O27   H63   0.990806 S    
N14   N22   1.397013 A    
C27   N27   1.328845 A    
C25   O25   1.374879 S    
C79   O7    1.383852 S    
C92   C95   1.416835 A    
C68   H32   1.084986 S    
C71   C75   1.396557 A    
C66   H30   1.084987 S    
C17   N17   1.342475 A    
O8    H52   0.989482 S    
C94   C98   1.400740 A    
C38   C86   1.424951 S    
C10   C42   1.385755 A    
C18   N18   1.342184 A    
C2    H2    1.078921 S    
C30   N30   1.327174 A    
C15   C47   1.376322 A    
C64   H28   1.111882 S    
C29   N29   1.321943 A    
C18   H14   1.074157 S    
N33   O13   1.300994 A    
C99   H43   1.080400 S    
N29   Ni2   1.864348 S    
C1    C33   1.384801 A    
C65   C71   1.377840 A    
N31   Ni4   1.864348 S    
N18   Ni6   1.865219 S    
C69   C73   1.396512 A    
O12   H56   0.991622 S    
C97   H41   1.080400 S    
C5    N33   1.430619 S    
N2    Ni2   1.865831 S    
C1    N1    1.337243 A    
C7    N35   1.430600 S    
N13   Ni6   1.864162 S    
C34   C73   1.405240 S    
C81   C85   1.393274 A    
C67   C87   1.389488 A    
C19   H15   1.073053 S    
C32   H20   1.081274 S    
C68   C88   1.389000 A    
C89   O9    1.382368 S    
N3    N31   1.377418 A    
C3    C35   1.384798 A    
C26   O26   1.377936 S    
N2    N30   1.377419 A    
C13   H9    1.079438 S    
C32   C36   1.362561 A    
O4    H48   0.993548 S    
N19   Ni7   1.860247 S    
C28   N28   1.325982 A    
C11   N11   1.327958 A    
C77   C83   1.369087 A    
C89   C94   1.411288 A    
C15   H11   1.079411 S    
N35   O17   1.300996 A    
C12   N12   1.326567 A    
C78   C84   1.390119 A    
O25   H61   0.990835 S    
C28   O28   1.377939 S    
C65   C85   1.389458 A    
O21   H57   0.989351 S    
C51   C55   1.396233 A    
C40   C88   1.424964 S    
C96   C100  1.400756 A    
N36   O20   1.300446 A    
O24   H60   0.988311 S    
C18   C42   1.395991 A    
N28   Ni7   1.859568 S    
C67   C69   1.377873 A    
C8    N8    1.338196 A    
C21   C45   1.391264 A    
N21   Ni1   1.866112 S    
C27   C39   1.384813 A    
O23   H59   0.989358 S    
N12   Ni3   1.859522 S    
C16   C48   1.381907 A    
C54   C58   1.404408 A    
C30   C34   1.362378 A    
C59   C60   1.396110 A    
C49   C53   1.396242 A    
C91   C92   1.413128 A    
C29   C33   1.373995 A    
C90   O10   1.379260 S    
C98   H42   1.078218 S    
C10   H6    1.073454 S    
C42   C94   1.469225 S    
C53   C57   1.404199 A    
C78   O6    1.381036 S    
N23   Ni3   1.866112 S    
N34   O16   1.300448 A    
C8    C40   1.377777 A    
C11   H7    1.080394 S    
C35   C76   1.428423 S    
C61   H25   1.112630 S    
C30   H18   1.081290 S    
C61   C62   1.513132 S    
C36   C75   1.405222 S    
C83   H39   1.085315 S    
C16   N16   1.328586 A    
C80   O8    1.381035 S    
C91   O11   1.382367 S    
C45   C53   1.458931 S    
C63   C64   1.513124 S    
C2    N2    1.329007 A    
C81   H37   1.085305 S    
C71   H35   1.084064 S    
C52   C56   1.395799 A    
C16   H12   1.073520 S    
C15   N15   1.330676 A    
C82   C86   1.397337 A    
C66   C72   1.360426 A    
C19   N19   1.342500 A    
N16   Ni7   1.866098 S    
C31   C35   1.373994 A    
C20   N20   1.342193 A    
C9    H5    1.080392 S    
N5    N25   1.377417 A    
C27   O27   1.374881 S    
N25   Ni6   1.864654 S    
C29   H17   1.080690 S    
C10   N10   1.326556 A    
C51   C52   1.388123 A    
C5    C37   1.384402 A    
C14   H10   1.073515 S    
C23   N23   1.339699 A    
C97   C98   1.369958 A    
C92   O12   1.379259 S    
N24   Ni4   1.864175 S    
N7    Ni7   1.866511 S    
C12   H8    1.073424 S    
C14   C46   1.381965 A    
C24   C48   1.401637 A    
N26   Ni5   1.859568 S    
C9    N9    1.327946 A    
C44   C96   1.469254 S    
C95   C99   1.396005 A    
C22   O22   1.373261 S    
C21   N21   1.339730 A    
N5    Ni5   1.866511 S    
C4    C36   1.362553 A    
C59   H23   1.079628 S    
C22   C46   1.401632 A    
O6    H50   0.989483 S    
C91   C96   1.411291 A    
C67   H31   1.083501 S    
C55   C59   1.404200 A    
N6    N26   1.377420 A    
O9    H53   0.989567 S    
C6    N34   1.432005 S    
C24   N24   1.339923 A    
C64   O4    1.409869 S    
C13   N13   1.330756 A    
N11   Ni4   1.864494 S    
C24   O24   1.373267 S    
C12   C44   1.385750 A    
O2    H46   0.993549 S    
C72   C76   1.398011 A    
C43   C95   1.467847 S    
C70   C74   1.398009 A    
O1    H45   0.993775 S    
C26   N26   1.325981 A    
N9    N17   1.396768 A    
O7    H51   0.988012 S    
C25   N25   1.328592 A    
C73   C77   1.410685 A    
N10   Ni1   1.859522 S    
C80   C82   1.390116 A    
C69   H33   1.084063 S    
C28   C40   1.376049 A    
N30   Ni1   1.866399 S    
C83   C87   1.393064 A    
C17   H13   1.073103 S    
C2    C34   1.362649 A    
C13   C45   1.376274 A    
N15   Ni8   1.864162 S    
C84   C88   1.397335 A    
O3    H47   0.993775 S    
C23   O23   1.371171 S    
N14   Ni5   1.866098 S    
C63   H27   1.112630 S    
C3    N3    1.337240 A    
C82   H38   1.083545 S    
C50   C61   1.505736 S    
C7    C39   1.384147 A    
C99   C100  1.369977 A    
N17   Ni5   1.860247 S    
C49   C62   1.503823 S    
C20   H16   1.074155 S    
C77   O5    1.384022 S    
N34   O15   1.300746 A    
N1    Ni1   1.860744 S    
O5    H49   0.988078 S    
C74   C78   1.413980 A    
C49   C50   1.388131 A    
O26   H62   0.990362 S    
N32   Ni3   1.866399 S    
C19   C43   1.385215 A    
N8    N28   1.377420 A    
N3    Ni3   1.860744 S    
C57   H21   1.079635 S    
N11   N19   1.396768 A    
C93   C97   1.396009 A    
N27   Ni8   1.864654 S    
C31   H19   1.080690 S    
N12   N20   1.396770 A    
C100  H44   1.078215 S    
N1    N29   1.377418 A    
N8    Ni8   1.864462 S    
C90   C93   1.416834 A    
C37   C85   1.412794 S    
