data_mof_unit_66080.cif
_audit_creation_date              2012-12-10T18:22:07-0500
_audit_creation_method            fapswitch 2.2
_symmetry_space_group_name_H-M    P1
_symmetry_Int_Tables_number       1
_space_group_crystal_system       triclinic
_cell_length_a                    41.579725
_cell_length_b                    35.634659
_cell_length_c                    21.54361
_cell_angle_alpha                 89.919357
_cell_angle_beta                  58.982562
_cell_angle_gamma                 90.002113
_cell_volume                      27356.3558211

loop_
_atom_site_label
_atom_site_type_symbol
_atom_type_description
_atom_site_fract_x
_atom_site_fract_y
_atom_site_fract_z
_atom_type_partial_charge
C1    C     C_R   0.927591 0.499969 0.572457 0.789690
C2    C     C_R   0.072409 0.499998 0.427543 0.790042
C3    C     C_R   0.427591 0.999969 0.572457 0.789762
C4    C     C_R   0.572409 0.999998 0.427543 0.789973
C5    C     C_3   0.987286 0.461834 0.225599 -0.392770
C6    C     C_3   0.011658 0.461524 0.775676 -0.392979
C7    C     C_3   0.472062 0.969381 0.241985 -0.378952
C8    C     C_3   0.511656 0.961524 0.775678 -0.392809
C9    C     C_R   0.673066 0.500053 0.883599 -0.160636
C10   C     C_R   0.326934 0.500186 0.116400 -0.160636
C11   C     C_R   0.173066 0.000048 0.883599 -0.160637
C12   C     C_R   0.826934 0.000180 0.116401 -0.160637
C13   C     C_R   0.633842 0.500074 0.922762 -0.192378
C14   C     C_R   0.366158 0.500150 0.077238 -0.192377
C15   C     C_R   0.133842 0.000072 0.922762 -0.192378
C16   C     C_R   0.866158 0.000147 0.077238 -0.192377
C17   C     C_R   0.613745 0.500073 0.886514 -0.035064
C18   C     C_R   0.386255 0.500122 0.113486 -0.035063
C19   C     C_R   0.113745 0.000071 0.886514 -0.035063
C20   C     C_R   0.886255 0.000120 0.113486 -0.035063
C21   C     C_R   0.633762 0.500052 0.810293 -0.192170
C22   C     C_R   0.366238 0.500134 0.189707 -0.192170
C23   C     C_R   0.133762 0.000048 0.810293 -0.192171
C24   C     C_R   0.866238 0.000131 0.189707 -0.192170
C25   C     C_R   0.672980 0.500031 0.771279 -0.160803
C26   C     C_R   0.327020 0.500169 0.228721 -0.160802
C27   C     C_R   0.172980 0.000025 0.771279 -0.160802
C28   C     C_R   0.827020 0.000165 0.228721 -0.160802
C29   C     C_R   0.692684 0.500030 0.807841 0.147755
C30   C     C_R   0.307316 0.500195 0.192159 0.147754
C31   C     C_R   0.192684 0.000024 0.807841 0.147755
C32   C     C_R   0.807316 0.000189 0.192159 0.147754
C33   C     C_1   0.733023 0.500008 0.767600 -0.068127
C34   C     C_1   0.266977 0.500206 0.232400 -0.068123
C35   C     C_1   0.233023 0.000001 0.767599 -0.068126
C36   C     C_1   0.766977 0.000199 0.232401 -0.068124
C37   C     C_1   0.766827 0.499993 0.733790 -0.069546
C38   C     C_1   0.233173 0.500197 0.266210 -0.069544
C39   C     C_1   0.266827 0.999986 0.733790 -0.069546
C40   C     C_1   0.733173 0.000190 0.266210 -0.069544
C41   C     C_R   0.826791 0.465999 0.673650 -0.161449
C42   C     C_R   0.173185 0.466153 0.326346 -0.161461
C43   C     C_R   0.326792 0.965994 0.673508 -0.161446
C44   C     C_R   0.673183 0.966148 0.326221 -0.161425
C45   C     C_R   0.999000 0.499964 0.380727 0.764106
C46   C     C_R   0.000917 0.499922 0.619358 0.764153
C47   C     C_R   0.499033 0.000021 0.380694 0.764141
C48   C     C_R   0.500917 0.999922 0.619358 0.764156
C49   C     C_R   0.866011 0.465952 0.634262 -0.199006
C50   C     C_R   0.133967 0.466062 0.365732 -0.198916
C51   C     C_R   0.366012 0.965949 0.634120 -0.199030
C52   C     C_R   0.633965 0.966060 0.365608 -0.198710
C53   C     C_R   0.886087 0.499971 0.614101 -0.039783
C54   C     C_R   0.113913 0.500059 0.385899 -0.039865
C55   C     C_R   0.386087 0.999969 0.614101 -0.039803
C56   C     C_R   0.613913 0.000057 0.385899 -0.039853
C57   C     C_R   0.866082 0.533996 0.634206 -0.198818
C58   C     C_R   0.133940 0.534107 0.365800 -0.198864
C59   C     C_R   0.366081 0.033993 0.634347 -0.198781
C60   C     C_R   0.633942 0.034104 0.365925 -0.199075
C61   C     C_R   0.826862 0.533961 0.673593 -0.161413
C62   C     C_R   0.173161 0.534115 0.326411 -0.161359
C63   C     C_R   0.326861 0.033956 0.673734 -0.161409
C64   C     C_R   0.673163 0.034110 0.326536 -0.161403
C65   C     C_R   0.807165 0.499984 0.693366 0.148090
C66   C     C_R   0.192835 0.500158 0.306634 0.148087
C67   C     C_R   0.307165 0.999978 0.693366 0.148088
C68   C     C_R   0.692835 0.000152 0.306634 0.148086
C69   C     C_R   0.000014 0.572336 0.999997 0.786268
C70   C     C_R   0.500015 0.072336 0.000016 0.789681
C71   C     C_R   0.000063 0.500773 0.120210 0.764437
C72   C     C_R   0.999940 0.500817 0.879784 0.764385
C73   C     C_R   0.500062 0.999199 0.120218 0.764369
C74   C     C_R   0.499941 0.000817 0.879784 0.764347
C75   C     C_R   0.999985 0.427570 0.000002 0.793358
C76   C     C_R   0.499985 0.927570 0.999984 0.789974
C77   C     C_R   0.500004 0.427800 0.000034 0.790675
C78   C     C_R   0.000004 0.927800 0.000034 0.790670
C79   C     C_R   0.572216 0.500082 0.927867 0.790652
C80   C     C_R   0.427783 0.500090 0.072132 0.790650
C81   C     C_R   0.072216 0.000082 0.927867 0.790652
C82   C     C_R   0.927783 0.000090 0.072132 0.790650
C83   C     C_3   0.971139 0.529838 0.314275 -0.377006
C84   C     C_3   0.029591 0.529049 0.684775 -0.377849
C85   C     C_3   0.488106 0.039110 0.296115 -0.357498
C86   C     C_3   0.529592 0.029048 0.684774 -0.377793
C87   C     C_R   0.499996 0.572309 0.999966 0.790569
C88   C     C_R   0.999996 0.072309 0.999966 0.790573
C89   C     C_R   0.499983 0.326989 0.944027 -0.160717
C90   C     C_R   0.500152 0.326958 0.056259 -0.160618
C91   C     C_R   0.999982 0.826992 0.944017 -0.160710
C92   C     C_R   0.000152 0.826955 0.056249 -0.160657
C93   C     C_R   0.499954 0.366213 0.943923 -0.192166
C94   C     C_R   0.500124 0.366184 0.056297 -0.192256
C95   C     C_R   0.999954 0.866216 0.943918 -0.192173
C96   C     C_R   0.000124 0.866182 0.056292 -0.192260
C97   C     C_R   0.500025 0.386261 0.000092 -0.035076
C98   C     C_R   0.000025 0.886262 0.000089 -0.035070
C99   C     C_R   0.500082 0.307304 0.000158 0.147647
C100  C     C_R   0.000082 0.807305 0.000145 0.147663
C101  C     C_1   0.500099 0.266954 0.000187 -0.068101
C102  C     C_1   0.000098 0.766954 0.000169 -0.068144
C103  C     C_1   0.000101 0.733143 0.000160 -0.069559
C104  C     C_1   0.500102 0.233142 0.000185 -0.069523
C105  C     C_R   0.034055 0.673136 0.965929 -0.161584
C106  C     C_R   0.966097 0.673111 0.034281 -0.161615
C107  C     C_R   0.534056 0.173135 0.965974 -0.161380
C108  C     C_R   0.466098 0.173111 0.034305 -0.161373
C109  C     C_R   0.034075 0.633910 0.965836 -0.199116
C110  C     C_R   0.966035 0.633887 0.034269 -0.199050
C111  C     C_R   0.534075 0.133909 0.965880 -0.198954
C112  C     C_R   0.466035 0.133887 0.034291 -0.198648
C113  C     C_R   0.000044 0.613851 0.000025 -0.039136
C114  C     C_R   0.500044 0.113851 0.000055 -0.040009
C115  C     C_3   0.972421 0.530918 0.241445 -0.379173
C116  C     C_3   0.028353 0.530220 0.757546 -0.378376
C117  C     C_3   0.487766 0.038308 0.224937 -0.392651
C118  C     C_3   0.528354 0.030219 0.757545 -0.378492
C119  C     C_R   0.000086 0.692792 0.000133 0.148016
C120  C     C_R   0.500087 0.192792 0.000166 0.147977
C121  C     C_R   0.499916 0.673073 0.056077 -0.160871
C122  C     C_R   0.499947 0.673104 0.943634 -0.160775
C123  C     C_R   0.999916 0.173071 0.056087 -0.160834
C124  C     C_R   0.999947 0.173106 0.943643 -0.160783
C125  C     C_R   0.499945 0.633860 0.056182 -0.192305
C126  C     C_R   0.499975 0.633888 0.943596 -0.192393
C127  C     C_R   0.999945 0.133858 0.056188 -0.192301
C128  C     C_R   0.999975 0.133890 0.943601 -0.192385
C129  C     C_R   0.499975 0.613824 0.999907 -0.034811
C130  C     C_R   0.999975 0.113824 0.999910 -0.034817
C131  C     C_R   0.499916 0.692740 0.999840 0.147894
C132  C     C_R   0.999916 0.192740 0.999853 0.147879
C133  C     C_1   0.499900 0.733062 0.999810 -0.068146
C134  C     C_1   0.999900 0.233063 0.999828 -0.068103
C135  C     C_1   0.999897 0.266857 0.999836 -0.069535
C136  C     C_1   0.499897 0.766857 0.999811 -0.069572
C137  C     C_R   0.033905 0.326844 0.965738 -0.161301
C138  C     C_R   0.965940 0.326820 0.034045 -0.161265
C139  C     C_R   0.533905 0.826843 0.965697 -0.161501
C140  C     C_R   0.465939 0.826819 0.034019 -0.161508
C141  C     C_R   0.033969 0.366056 0.965750 -0.198645
C142  C     C_R   0.965920 0.366034 0.034140 -0.198717
C143  C     C_R   0.533969 0.866056 0.965711 -0.198814
C144  C     C_R   0.465920 0.866034 0.034114 -0.199118
C145  C     C_R   0.999956 0.386079 0.999973 -0.040621
C146  C     C_R   0.499956 0.886079 0.999944 -0.039746
C147  C     C_3   0.038898 0.509784 0.248560 -0.393508
C148  C     C_3   0.961312 0.510714 0.751229 -0.393071
C149  C     C_3   0.538801 0.989832 0.248685 -0.393281
C150  C     C_3   0.461312 0.010715 0.751228 -0.393061
C151  C     C_R   0.999912 0.307180 0.999863 0.148178
C152  C     C_R   0.499912 0.807180 0.999831 0.148220
C153  C     C_3   0.987595 0.461047 0.296799 -0.357440
C154  C     C_3   0.011281 0.460699 0.704539 -0.357029
C155  C     C_3   0.470795 0.970500 0.314783 -0.377234
C156  C     C_3   0.511279 0.960698 0.704541 -0.357113
C157  C     C_3   0.999053 0.500071 0.311746 0.156277
C158  C     C_3   0.000874 0.499986 0.688327 0.156246
C159  C     C_3   0.499082 0.999970 0.311721 0.156298
C160  C     C_3   0.500874 0.999986 0.688327 0.156250
C161  C     C_3   0.000021 0.500798 0.189173 0.156199
C162  C     C_3   0.999974 0.500805 0.810828 0.156250
C163  C     C_3   0.500022 0.999207 0.189180 0.156194
C164  C     C_3   0.499974 0.000805 0.810828 0.156246
C165  C     C_3   0.039764 0.509308 0.176178 -0.356097
C166  C     C_3   0.960460 0.510281 0.823600 -0.356724
C167  C     C_3   0.539663 0.990293 0.176307 -0.356406
C168  C     C_3   0.460460 0.010282 0.823600 -0.356755
Cu1   Cu    Cu3+1 0.000000 0.537250 0.500000 0.920220
Cu2   Cu    Cu3+1 0.500000 0.037250 0.500000 0.920168
Cu3   Cu    Cu3+1 1.000000 0.462700 0.500000 0.920335
Cu4   Cu    Cu3+1 0.500000 0.962700 0.500000 0.920378
Cu5   Cu    Cu3+1 0.962700 0.499940 0.037300 0.920137
Cu6   Cu    Cu3+1 0.037300 0.499940 0.962700 0.920127
Cu7   Cu    Cu3+1 0.462700 0.999940 0.037300 0.920135
Cu8   Cu    Cu3+1 0.537300 0.999940 0.962700 0.920128
Cu9   Cu    Cu3+1 0.499970 0.500070 0.937560 0.932932
Cu10  Cu    Cu3+1 0.500030 0.500070 0.062440 0.932932
Cu11  Cu    Cu3+1 0.999970 0.000070 0.937560 0.932932
Cu12  Cu    Cu3+1 0.000030 0.000070 0.062440 0.932933
H1    H     H_    0.978244 0.558179 0.325411 0.177914
H2    H     H_    0.023264 0.557546 0.672668 0.177793
H3    H     H_    0.508469 0.060785 0.291696 0.175724
H4    H     H_    0.523266 0.057546 0.672666 0.177783
H5    H     H_    0.006299 0.439645 0.188502 0.152559
H6    H     H_    0.992076 0.439821 0.813507 0.153053
H7    H     H_    0.480711 0.940938 0.217614 0.150961
H8    H     H_    0.492073 0.939822 0.813510 0.153129
H9    H     H_    0.059560 0.489170 0.246446 0.154300
H10   H     H_    0.940092 0.490627 0.754024 0.153655
H11   H     H_    0.546989 0.961500 0.257623 0.169049
H12   H     H_    0.440091 0.990630 0.754025 0.153658
H13   H     H_    0.060079 0.487602 0.140220 0.174174
H14   H     H_    0.939582 0.489084 0.860238 0.174755
H15   H     H_    0.549435 0.962550 0.149295 0.160645
H16   H     H_    0.439582 0.989086 0.860238 0.174782
H17   H     H_    0.688081 0.500054 0.912401 0.130574
H18   H     H_    0.311919 0.500202 0.087599 0.130576
H19   H     H_    0.188081 0.000049 0.912401 0.130574
H20   H     H_    0.811919 0.000196 0.087599 0.130576
H21   H     H_    0.619304 0.500090 0.981355 0.152581
H22   H     H_    0.380696 0.500143 0.018645 0.152582
H23   H     H_    0.119304 0.000088 0.981355 0.152581
H24   H     H_    0.880695 0.000140 0.018645 0.152582
H25   H     H_    0.619166 0.500049 0.780727 0.152739
H26   H     H_    0.380834 0.500114 0.219273 0.152739
H27   H     H_    0.119166 0.000046 0.780727 0.152739
H28   H     H_    0.880834 0.000113 0.219273 0.152739
H29   H     H_    0.687926 0.500013 0.712615 0.130556
H30   H     H_    0.312074 0.500173 0.287386 0.130557
H31   H     H_    0.187926 0.000007 0.712614 0.130556
H32   H     H_    0.812075 0.000168 0.287386 0.130557
H33   H     H_    0.811783 0.439541 0.688704 0.130592
H34   H     H_    0.188173 0.439710 0.311289 0.130599
H35   H     H_    0.311785 0.939535 0.688450 0.130602
H36   H     H_    0.688170 0.939705 0.311067 0.130583
H37   H     H_    0.880571 0.439293 0.619636 0.151289
H38   H     H_    0.119390 0.439387 0.380351 0.151334
H39   H     H_    0.380574 0.939291 0.619380 0.151336
H40   H     H_    0.619387 0.939385 0.380126 0.151282
H41   H     H_    0.880697 0.560651 0.619538 0.151279
H42   H     H_    0.119341 0.560744 0.380475 0.151229
H43   H     H_    0.380695 0.060648 0.619793 0.151232
H44   H     H_    0.619345 0.060741 0.380700 0.151283
H45   H     H_    0.942172 0.523047 0.358875 0.151298
H46   H     H_    0.058361 0.521508 0.640407 0.151133
H47   H     H_    0.459874 0.047380 0.341517 0.159039
H48   H     H_    0.558361 0.021506 0.640406 0.151126
H49   H     H_    0.811911 0.560425 0.688603 0.130591
H50   H     H_    0.188132 0.560594 0.311405 0.130579
H51   H     H_    0.311909 0.060419 0.688855 0.130580
H52   H     H_    0.688136 0.060588 0.311628 0.130596
H53   H     H_    0.499926 0.312024 0.900337 0.130535
H54   H     H_    0.500227 0.311966 0.099976 0.130569
H55   H     H_    0.999925 0.812028 0.900326 0.130539
H56   H     H_    0.000227 0.811962 0.099965 0.130525
H57   H     H_    0.499878 0.380791 0.899867 0.152649
H58   H     H_    0.500181 0.380741 0.100324 0.152595
H59   H     H_    0.999878 0.880795 0.899863 0.152651
H60   H     H_    0.000181 0.880737 0.100320 0.152583
H61   H     H_    0.060525 0.688123 0.939329 0.130588
H62   H     H_    0.939644 0.688078 0.060913 0.130598
H63   H     H_    0.560525 0.188123 0.939382 0.130582
H64   H     H_    0.439644 0.188078 0.060927 0.130566
H65   H     H_    0.060723 0.619331 0.939004 0.151240
H66   H     H_    0.939370 0.619292 0.061067 0.151288
H67   H     H_    0.560723 0.119331 0.939056 0.151280
H68   H     H_    0.439370 0.119291 0.061080 0.151232
H69   H     H_    0.499895 0.688043 0.099841 0.130575
H70   H     H_    0.499949 0.688099 0.899842 0.130609
H71   H     H_    0.999895 0.188039 0.099852 0.130619
H72   H     H_    0.999950 0.188104 0.899853 0.130605
H73   H     H_    0.499942 0.619284 0.100319 0.152785
H74   H     H_    0.499997 0.619333 0.899489 0.152732
H75   H     H_    0.999943 0.119280 0.100322 0.152797
H76   H     H_    0.999997 0.119336 0.899493 0.152729
H77   H     H_    0.060357 0.311871 0.939128 0.130598
H78   H     H_    0.939472 0.311828 0.060623 0.130590
H79   H     H_    0.560357 0.811871 0.939082 0.130603
H80   H     H_    0.439472 0.811828 0.060603 0.130621
H81   H     H_    0.060634 0.380651 0.938973 0.151364
H82   H     H_    0.939272 0.380613 0.060952 0.151320
H83   H     H_    0.560634 0.880651 0.938929 0.151325
H84   H     H_    0.439272 0.880613 0.060933 0.151373
H85   H     H_    0.943660 0.525955 0.251656 0.177339
H86   H     H_    0.056984 0.524571 0.747462 0.177613
H87   H     H_    0.459052 0.045014 0.236436 0.170484
H88   H     H_    0.556985 0.024569 0.747460 0.177617
H89   H     H_    0.981412 0.559264 0.216573 0.151013
H90   H     H_    0.020115 0.558791 0.781476 0.151086
H91   H     H_    0.507041 0.060295 0.187448 0.152870
H92   H     H_    0.520118 0.058791 0.781473 0.151013
H93   H     H_    0.047432 0.538027 0.257030 0.168695
H94   H     H_    0.953535 0.539161 0.741878 0.169487
H95   H     H_    0.559720 0.010225 0.246210 0.154012
H96   H     H_    0.453537 0.039163 0.741876 0.169478
H97   H     H_    0.049872 0.536950 0.148709 0.161028
H98   H     H_    0.951090 0.538163 0.850211 0.160270
H99   H     H_    0.560236 0.011789 0.139985 0.174452
H100  H     H_    0.451092 0.038165 0.850210 0.160218
H101  H     H_    0.007680 0.439151 0.292764 0.176047
H102  H     H_    0.990596 0.439322 0.709308 0.175383
H103  H     H_    0.477538 0.942088 0.326431 0.177957
H104  H     H_    0.490593 0.939322 0.709310 0.175394
H105  H     H_    0.959258 0.453081 0.342330 0.158736
H106  H     H_    0.039385 0.452006 0.659261 0.159527
H107  H     H_    0.441915 0.977609 0.359259 0.151212
H108  H     H_    0.539383 0.952004 0.659264 0.159543
H109  H     H_    0.958496 0.455417 0.237195 0.170782
H110  H     H_    0.040278 0.454415 0.764258 0.170144
H111  H     H_    0.443359 0.974630 0.252126 0.177500
H112  H     H_    0.540276 0.954414 0.764260 0.170167
O1    O     O_R   0.945620 0.531450 0.554380 -0.587840
O2    O     O_R   0.054380 0.531450 0.445620 -0.587742
O3    O     O_R   0.445620 0.031450 0.554380 -0.587854
O4    O     O_R   0.554380 0.031450 0.445620 -0.587742
O5    O     O_R   0.554340 0.500070 0.892900 -0.586856
O6    O     O_R   0.445660 0.500070 0.107100 -0.586855
O7    O     O_R   0.054340 0.000070 0.892900 -0.586856
O8    O     O_R   0.945660 0.000070 0.107100 -0.586855
O9    O     O_R   0.554350 0.500090 0.998410 -0.586655
O10   O     O_R   0.445650 0.500090 0.001590 -0.586656
O11   O     O_R   0.054350 0.000090 0.998410 -0.586655
O12   O     O_R   0.945650 0.000090 0.001590 -0.586656
O13   O     O_R   0.500010 0.554450 0.947200 -0.586832
O14   O     O_R   0.499990 0.554450 0.052800 -0.586844
O15   O     O_R   0.000010 0.054450 0.947200 -0.586828
O16   O     O_R   0.999990 0.054450 0.052800 -0.586842
O17   O     O_R   0.945570 0.468490 0.554430 -0.588028
O18   O     O_R   0.054430 0.468490 0.445570 -0.587943
O19   O     O_R   0.445570 0.968490 0.554430 -0.587977
O20   O     O_R   0.554430 0.968490 0.445570 -0.587981
O21   O     O_R   0.999990 0.531450 0.408860 -0.591430
O22   O     O_R   0.000010 0.531450 0.591140 -0.591483
O23   O     O_R   0.499990 0.031450 0.408860 -0.592652
O24   O     O_R   0.500010 0.031450 0.591140 -0.591474
O25   O     O_R   0.999940 0.468490 0.408900 -0.592774
O26   O     O_R   0.000060 0.468490 0.591100 -0.592758
O27   O     O_R   0.499940 0.968490 0.408900 -0.591579
O28   O     O_R   0.500060 0.968490 0.591100 -0.592766
O29   O     O_R   0.968510 0.554330 0.031500 -0.588749
O30   O     O_R   0.031490 0.554330 0.968500 -0.588734
O31   O     O_R   0.468510 0.054330 0.031500 -0.587785
O32   O     O_R   0.531490 0.054330 0.968500 -0.587739
O33   O     O_R   0.968510 0.499950 0.122650 -0.591478
O34   O     O_R   0.031490 0.499950 0.877350 -0.591522
O35   O     O_R   0.468510 0.999950 0.122650 -0.591491
O36   O     O_R   0.531490 0.999950 0.877350 -0.591512
O37   O     O_R   0.031450 0.499990 0.059700 -0.592774
O38   O     O_R   0.968550 0.499990 0.940300 -0.592704
O39   O     O_R   0.531450 0.999990 0.059700 -0.592732
O40   O     O_R   0.468550 0.999990 0.940300 -0.592695
O41   O     O_R   0.968500 0.445560 0.031500 -0.586932
O42   O     O_R   0.031500 0.445560 0.968500 -0.586945
O43   O     O_R   0.468500 0.945560 0.031500 -0.587891
O44   O     O_R   0.531500 0.945560 0.968500 -0.587936
O45   O     O_R   0.499920 0.445680 0.947340 -0.586789
O46   O     O_R   0.500080 0.445680 0.052660 -0.586775
O47   O     O_R   0.999920 0.945680 0.947340 -0.586792
O48   O     O_R   0.000080 0.945680 0.052660 -0.586777

loop_
_geom_bond_atom_site_label_1
_geom_bond_atom_site_label_2
_ccdc_geom_bond_type
C55   C59   A    
C108  C120  A    
C77   O45   A    
Cu8   O44   S    
C57   H41   S    
C117  C163  S    
Cu4   O19   S    
C118  C164  S    
C89   C99   A    
C150  H96   S    
C154  C158  S    
C81   O7    A    
C7    C163  S    
C82   O8    A    
Cu6   O34   S    
C29   C33   S    
C139  C152  A    
C9    C13   A    
C1    O17   A    
C11   C15   A    
C12   C16   A    
C9    H17   S    
C91   C100  A    
C71   C161  S    
C140  C152  A    
C141  C145  A    
C76   C146  S    
C4    C56   S    
C107  H63   S    
C167  H15   S    
C41   C49   A    
C136  C152  S    
Cu7   O40   S    
C25   C29   A    
C27   C31   A    
C28   C32   A    
C62   C66   A    
C126  C129  A    
C47   O23   A    
C92   H56   S    
C17   C21   A    
C49   H37   S    
C5    C161  S    
C19   C23   A    
C78   O48   A    
C41   H33   S    
C10   C30   A    
Cu7   Cu8   S    
C83   C157  S    
C16   C20   A    
C150  C168  S    
C95   H59   S    
C85   C117  S    
C99   C101  S    
C125  C129  A    
C47   O27   A    
C148  H94   S    
C59   C63   A    
C154  H102  S    
C167  H99   S    
C107  C120  A    
C168  H100  S    
C140  H80   S    
C23   H27   S    
C44   H36   S    
C141  H81   S    
Cu5   O38   S    
C15   H23   S    
C57   C61   A    
C137  H77   S    
C138  C151  A    
C6    H6    S    
Cu3   O18   S    
Cu1   O1    S    
C60   C64   A    
C84   H2    S    
C73   C163  S    
C74   C164  S    
Cu7   O35   S    
C49   C53   A    
Cu11  O7    S    
C51   C55   A    
C155  H103  S    
C61   C65   A    
Cu3   O25   S    
C132  C134  S    
Cu7   O43   S    
C16   H24   S    
C20   C24   A    
C161  C165  S    
C6    H110  S    
C70   O31   A    
C138  H78   S    
C20   C82   S    
C123  C132  A    
Cu1   O2    S    
C112  C114  A    
C47   C159  S    
C48   C160  S    
C69   C113  S    
C127  H75   S    
C32   C36   S    
C7    H7    S    
Cu10  O14   S    
C116  H86   S    
C46   C158  S    
C91   H55   S    
C92   C96   A    
C22   H26   S    
C89   H53   S    
C1    C53   S    
Cu5   O41   S    
C147  C165  S    
C139  C143  A    
Cu6   O37   S    
C93   H57   S    
C62   H50   S    
C37   C65   S    
C77   C97   S    
C44   C52   A    
C69   O29   A    
C109  H65   S    
C84   C116  S    
Cu5   O29   S    
Cu1   Cu3   S    
C108  H64   S    
C81   O11   A    
C27   H31   S    
C117  H91   S    
C82   O12   A    
Cu1   O22   S    
Cu6   O30   S    
C118  H92   S    
C148  H10   S    
C75   O42   A    
C149  H11   S    
C30   C34   S    
C155  C159  S    
C83   H45   S    
C83   C115  S    
C156  C160  S    
C45   C157  S    
C126  H74   S    
C8    C164  S    
C84   C158  S    
C51   H39   S    
C115  C161  S    
C125  H73   S    
C121  C125  A    
Cu11  O47   S    
C122  H70   S    
C123  C127  A    
Cu8   O39   S    
C76   O43   A    
C12   H20   S    
C26   H30   S    
C45   O21   A    
C147  H93   S    
C42   C50   A    
C73   O35   A    
C72   O38   A    
Cu8   O36   S    
C88   O16   A    
Cu4   O27   S    
C40   C68   S    
C93   C97   A    
C90   C99   A    
Cu2   O3    S    
C63   H51   S    
Cu7   O31   S    
Cu6   O42   S    
C21   C25   A    
C18   C22   A    
C107  C111  A    
C24   C28   A    
C115  H89   S    
C26   C30   A    
C134  C135  T    
C142  H82   S    
Cu4   O20   S    
C1    O1    A    
C87   C129  S    
C3    O3    A    
C124  H72   S    
C9    C29   A    
C117  H87   S    
C147  H9    S    
C14   H22   S    
Cu9   O10   S    
C128  H76   S    
C154  H106  S    
C89   C93   A    
C102  C103  T    
C91   C95   A    
C111  H67   S    
C72   C162  S    
C19   C81   S    
Cu5   O33   S    
C10   C14   A    
Cu2   O23   S    
C58   C62   A    
C143  C146  A    
Cu9   O5    S    
Cu12  O16   S    
C106  C119  A    
C148  C166  S    
C122  C131  A    
C149  C167  S    
C5    H5    S    
C79   O5    A    
C80   O10   A    
C8    H8    S    
C87   O14   A    
C15   C19   A    
C50   C54   A    
C150  C160  S    
C54   C58   A    
Cu11  O15   S    
C72   O34   A    
C105  H61   S    
C14   C18   A    
C105  C109  A    
C162  C166  S    
C7    H111  S    
C139  H79   S    
C61   H49   S    
C85   H47   S    
C124  C128  A    
C8    H112  S    
C43   H35   S    
C85   H3    S    
C86   H4    S    
C96   H60   S    
C142  C145  A    
C77   O46   A    
C106  H62   S    
C116  H90   S    
C74   O36   A    
C90   C94   A    
C166  H14   S    
C144  C146  A    
C138  C142  A    
Cu9   O45   S    
C156  H104  S    
C53   C57   A    
C10   H18   S    
Cu3   O17   S    
C70   C114  S    
C108  C112  A    
C165  H13   S    
C35   C39   T    
C164  C168  S    
C64   H52   S    
C86   C118  S    
C6    C154  S    
C59   H43   S    
C46   O26   A    
C118  H88   S    
C71   O33   A    
C101  C104  T    
C2    C54   S    
C31   C35   S    
C143  H83   S    
C144  H84   S    
C64   C68   A    
C70   O32   A    
C137  C141  A    
C3    O19   A    
C140  C144  A    
C165  H97   S    
C128  C130  A    
C13   C17   A    
C28   H32   S    
C94   C97   A    
C4    O20   A    
C73   O39   A    
C43   C51   A    
Cu2   Cu4   S    
C45   O25   A    
C135  C151  S    
C24   H28   S    
C111  C114  A    
C153  C157  S    
C11   H19   S    
Cu11  Cu12  S    
C56   C60   A    
C7    C155  S    
Cu10  O46   S    
Cu9   Cu10  S    
C22   C26   A    
C71   O37   A    
C105  C119  A    
C85   C159  S    
C86   C160  S    
C115  H85   S    
C104  C120  S    
C86   H48   S    
C2    O2    A    
C88   C130  S    
C84   H46   S    
C58   H42   S    
C95   C98   A    
Cu1   O21   S    
Cu5   Cu6   S    
C75   C145  S    
C75   O41   A    
Cu12  O11   S    
C83   H1    S    
Cu10  O9    S    
C149  H95   S    
C116  C162  S    
C17   C79   S    
C90   H54   S    
C21   H25   S    
C94   H58   S    
C6    C162  S    
Cu3   O26   S    
C78   C98   S    
C133  C136  T    
C48   O24   A    
C23   C27   A    
C79   O9    A    
C109  C113  A    
C110  H66   S    
C11   C31   A    
C12   C32   A    
Cu11  O12   S    
C3    C55   S    
C121  C131  A    
C60   H44   S    
C124  C132  A    
Cu2   O4    S    
C63   C67   A    
C52   H40   S    
C153  H101  S    
C76   O44   A    
C36   C40   T    
Cu12  O48   S    
C41   C65   A    
C50   H38   S    
C96   C98   A    
C122  C126  A    
C163  C167  S    
C123  H71   S    
C42   H34   S    
C121  H69   S    
Cu12  O8    S    
C100  C102  S    
Cu10  O6    S    
C148  C158  S    
C25   H29   S    
C149  C159  S    
C110  C113  A    
C74   O40   A    
C43   C67   A    
C69   O30   A    
C2    O18   A    
C44   C68   A    
C155  H107  S    
C147  C157  S    
C156  H108  S    
C92   C100  A    
C33   C37   T    
C106  C110  A    
Cu2   O24   S    
C112  H68   S    
C38   C66   S    
C34   C38   T    
C39   C67   S    
C78   O47   A    
C103  C119  S    
C4    O4    A    
C131  C133  S    
C5    H109  S    
C80   O6    A    
C87   O13   A    
C127  C130  A    
C46   O22   A    
C153  H105  S    
C5    C153  S    
C13   H21   S    
Cu8   O32   S    
Cu9   O13   S    
C8    C156  S    
C48   O28   A    
C150  H12   S    
C88   O15   A    
C18   C80   S    
C168  H16   S    
C42   C66   A    
C137  C151  A    
C166  H98   S    
Cu4   O28   S    
C52   C56   A    
