data_mof_unit_32034.cif
_audit_creation_date              2013-03-05T16:48:47-0500
_audit_creation_method            fapswitch 2.2
_symmetry_space_group_name_H-M    P1
_symmetry_Int_Tables_number       1
_space_group_crystal_system       triclinic
_cell_length_a                    10.896443
_cell_length_b                    10.891689
_cell_length_c                    13.121618
_cell_angle_alpha                 90.395036
_cell_angle_beta                  90.596727
_cell_angle_gamma                 89.1677
_cell_volume                      1556.9982299

loop_
_atom_site_label
_atom_site_type_symbol
_atom_site_description
_atom_site_fract_x
_atom_site_fract_y
_atom_site_fract_z
_atom_type_partial_charge
O1    O     O_R   0.499980 0.319630 0.578260 -0.535718
O2    O     O_R   0.500020 0.680370 0.421740 -0.535701
O3    O     O_R   0.500000 0.319650 0.421740 -0.607181
O4    O     O_R   0.500000 0.680350 0.578260 -0.607187
C1    C     C_R   0.501657 0.259665 0.499433 0.901783
C2    C     C_R   0.498324 0.740335 0.500567 0.901719
O5    O     O_R   0.319630 0.500000 0.578260 -0.563089
O6    O     O_R   0.680370 0.500000 0.421740 -0.563094
O7    O     O_R   0.319650 0.500020 0.421740 -0.589408
O8    O     O_R   0.680350 0.499980 0.578260 -0.589398
C3    C     C_R   0.259727 0.493043 0.499258 0.868523
C4    C     C_R   0.740272 0.506964 0.500741 0.868512
Cu1   Cu    Cu3+1 0.499990 0.499990 0.592680 1.030977
Cu2   Cu    Cu3+1 0.500010 0.500010 0.407320 1.030989
C5    C     C_R   0.140067 0.445090 0.128145 -0.222909
C6    C     C_R   0.859946 0.554863 0.871856 -0.222894
H1    H     H_    0.120087 0.496082 0.059269 0.179728
H2    H     H_    0.879920 0.503850 0.940723 0.179739
C7    C     C_R   0.091802 0.487858 0.220285 -0.201663
C8    C     C_R   0.908185 0.512099 0.779705 -0.201623
H3    H     H_    0.035494 0.570653 0.220749 0.187300
H4    H     H_    0.964467 0.429287 0.779224 0.187286
C9    C     C_R   0.115685 0.424230 0.311182 0.106942
C10   C     C_R   0.884316 0.575757 0.688822 0.106982
C11   C     C_R   0.187829 0.316372 0.308235 -0.187282
C12   C     C_R   0.812202 0.683633 0.691788 -0.187317
H5    H     H_    0.205614 0.264710 0.377198 0.163457
H6    H     H_    0.794425 0.735314 0.622833 0.163430
C13   C     C_R   0.236641 0.273870 0.216222 -0.212206
C14   C     C_R   0.763428 0.726140 0.783815 -0.212264
H7    H     H_    0.291948 0.190523 0.216301 0.173354
H8    H     H_    0.708155 0.809509 0.783752 0.173354
C15   C     C_R   0.212922 0.337514 0.125051 0.374791
C16   C     C_R   0.787142 0.662472 0.874975 0.374796
C17   C     C_R   0.932595 0.478284 0.411106 -0.204038
C18   C     C_R   0.067405 0.521729 0.588892 -0.204053
H9    H     H_    0.879847 0.459035 0.342491 0.173411
H10   H     H_    0.120152 0.540982 0.657506 0.173404
C19   C     C_R   0.872889 0.508618 0.501901 -0.069051
C20   C     C_R   0.127110 0.491390 0.498098 -0.069026
C21   C     C_R   0.940666 0.533098 0.591906 0.003633
C22   C     C_R   0.059334 0.466905 0.408093 0.003640
H11   H     H_    0.899011 0.273953 0.184052 0.152649
H12   H     H_    0.101237 0.725973 0.816161 0.152619
C23   C     C_R   0.710305 0.223806 0.204108 -0.103323
C24   C     C_R   0.289912 0.776157 0.795981 -0.103350
H13   H     H_    0.680545 0.259119 0.130867 0.146843
H14   H     H_    0.319752 0.740838 0.869199 0.146796
C25   C     C_R   0.625749 0.168941 0.268367 -0.022576
C26   C     C_R   0.374394 0.831043 0.731668 -0.022585
H15   H     H_    0.530882 0.161385 0.243991 0.135626
H16   H     H_    0.469283 0.838609 0.755981 0.135552
C27   C     C_R   0.663920 0.123855 0.363772 0.150932
C28   C     C_R   0.336123 0.876134 0.636291 0.151013
C29   C     C_R   0.787501 0.132893 0.393535 -0.118203
C30   C     C_R   0.212514 0.867088 0.606614 -0.118155
H17   H     H_    0.818421 0.097366 0.466456 0.139666
H18   H     H_    0.181515 0.902624 0.533718 0.139666
C31   C     C_R   0.871960 0.186308 0.328556 -0.128417
C32   C     C_R   0.128129 0.813652 0.671648 -0.128447
H19   H     H_    0.967221 0.192062 0.351645 0.150777
H20   H     H_    0.032845 0.807894 0.648627 0.150770
C33   C     C_R   0.833449 0.232097 0.234029 -0.110303
C34   C     C_R   0.166741 0.767848 0.766143 -0.110225
C35   C     C_R   0.577739 0.932982 0.433707 0.303686
C36   C     C_R   0.422214 0.067021 0.566285 0.303669
C37   C     C_R   0.500977 0.872735 0.502258 -0.259679
C38   C     C_R   0.498991 0.127266 0.497741 -0.259667
C39   C     C_R   0.423820 0.938985 0.569314 -0.162307
C40   C     C_R   0.576155 0.061015 0.430695 -0.162286
N1    N     N_1   0.500030 0.500030 0.268070 -0.131510
N2    N     N_1   0.499970 0.499970 0.731930 -0.131503
C41   C     C_1   0.500020 0.500003 0.173576 0.193951
C42   C     C_1   0.499980 0.499997 0.826424 0.193879
C43   C     C_1   0.500003 0.499993 0.050686 0.020781
C44   C     C_1   0.499998 0.500007 0.949314 0.020680
N3    N     N_R   0.261775 0.292922 0.030014 0.119453
O9    O     O_R   0.233833 0.347564 0.944786 -0.358259
O10   O     O_R   0.334414 0.197021 0.027722 -0.336538
N4    N     N_R   0.738342 0.707077 0.970027 0.119456
O11   O     O_R   0.665914 0.803136 0.972366 -0.336409
O12   O     O_R   0.766145 0.652307 0.055227 -0.358343
N5    N     N_R   0.660883 0.864190 0.369904 0.134542
O13   O     O_R   0.656737 0.876758 0.271383 -0.288705
O14   O     O_R   0.743382 0.791617 0.410569 -0.400296
N6    N     N_R   0.339039 0.135818 0.630060 0.134518
O15   O     O_R   0.343066 0.123177 0.728576 -0.288712
O16   O     O_R   0.256613 0.208452 0.589372 -0.400375

loop_
_geom_bond_atom_site_label_1
_geom_bond_atom_site_label_2
_geom_bond_distance
_ccdc_geom_bond_type
C36   C38   1.406822 A    
C29   C31   1.396833 A    
Cu2   N1    1.827190 S    
C17   C19   1.398673 A    
C43   C44   1.330169 T    
H11   C33   1.082394 S    
C19   C21   1.412263 A    
N3    O9    1.301687 A    
H12   C34   1.082391 S    
C5    C7    1.397733 A    
C26   C28   1.404649 A    
C9    C22   1.486580 S    
C42   C44   1.612509 S    
O1    C1    1.219626 A    
C7    H3    1.083336 S    
C10   C12   1.404525 A    
N6    O16   1.301058 A    
C35   N5    1.438933 S    
C36   C39   1.395220 A    
C35   C40   1.395170 A    
C13   C15   1.406502 A    
C32   H20   1.080849 S    
C23   H13   1.082434 S    
O4    Cu1   1.974816 S    
C17   C22   1.385713 A    
C16   N4    1.439564 S    
C8    C10   1.403649 A    
C25   H15   1.082980 S    
C26   H16   1.082984 S    
C6    C8    1.397747 A    
C6    C16   1.406299 A    
N3    O10   1.301724 A    
Cu1   Cu2   2.432227 S    
C10   C21   1.486579 S    
C41   C43   1.612509 S    
C18   C21   1.385705 A    
O2    C2    1.219631 A    
C1    C38   1.442780 S    
C27   C40   1.482882 S    
O5    C3    1.221744 A    
C24   H14   1.082434 S    
C27   C29   1.402810 A    
C11   C13   1.397649 A    
C28   C30   1.402817 A    
C31   H19   1.080859 S    
C14   C16   1.406508 A    
C18   C20   1.398672 A    
N4    O12   1.301672 A    
N1    C41   1.239912 T    
N6    O15   1.301160 A    
C35   C37   1.406795 A    
C23   C33   1.398167 A    
C30   C32   1.396838 A    
C24   C34   1.398161 A    
C37   C39   1.410925 A    
C7    C9    1.403668 A    
O7    Cu2   1.976329 S    
N5    O13   1.301159 A    
C23   C25   1.398604 A    
O6    C4    1.221742 A    
C6    H2    1.082577 S    
O7    C3    1.217816 A    
O3    Cu2   1.974816 S    
O8    C4    1.217822 A    
N2    C42   1.239912 T    
C2    C37   1.442785 S    
N5    O14   1.301077 A    
C8    H4    1.083332 S    
C12   C14   1.397672 A    
C29   H17   1.083234 S    
O4    C2    1.214463 A    
O1    Cu1   1.972220 S    
C5    H1    1.082571 S    
O6    Cu2   1.972405 S    
C17   H9    1.083991 S    
C12   H6    1.083155 S    
N4    O11   1.301720 A    
O3    C1    1.214465 A    
O8    Cu1   1.976329 S    
C36   N6    1.438952 S    
Cu1   N2    1.827189 S    
C11   H5    1.083149 S    
C24   C26   1.398603 A    
C31   C33   1.398175 A    
C32   C34   1.398178 A    
C4    C19   1.445344 S    
C18   H10   1.083986 S    
C13   H7    1.082297 S    
C14   H8    1.082289 S    
C15   N3    1.439560 S    
C28   C39   1.482878 S    
C25   C27   1.404641 A    
C20   C22   1.412280 A    
C30   H18   1.083229 S    
C9    C11   1.404530 A    
C3    C20   1.445345 S    
O2    Cu2   1.972218 S    
O5    Cu1   1.972407 S    
C38   C40   1.410901 A    
C5    C15   1.406301 A    
