data_mof_unit_67652.cif
_audit_creation_date              2013-03-05T16:47:31-0500
_audit_creation_method            fapswitch 2.2
_symmetry_space_group_name_H-M    P1
_symmetry_Int_Tables_number       1
_space_group_crystal_system       triclinic
_cell_length_a                    11.286301
_cell_length_b                    11.061655
_cell_length_c                    10.139983
_cell_angle_alpha                 98.150333
_cell_angle_beta                  98.688795
_cell_angle_gamma                 91.677131
_cell_volume                      1237.09683688

loop_
_atom_site_label
_atom_site_type_symbol
_atom_site_description
_atom_site_fract_x
_atom_site_fract_y
_atom_site_fract_z
_atom_type_partial_charge
O1    O     O_R   0.517830 0.337490 0.617920 -0.570826
O2    O     O_R   0.482170 0.662510 0.382080 -0.570838
O3    O     O_R   0.482150 0.301790 0.382070 -0.585604
O4    O     O_R   0.517850 0.698210 0.617930 -0.585609
C1    C     C_R   0.497304 0.262980 0.500456 0.852221
C2    C     C_R   0.502695 0.737020 0.499545 0.852289
O5    O     O_R   0.337480 0.517860 0.617920 -0.492739
O6    O     O_R   0.662520 0.482140 0.382080 -0.492729
O7    O     O_R   0.301810 0.482160 0.382070 -0.619491
O8    O     O_R   0.698190 0.517840 0.617930 -0.619499
C3    C     C_R   0.262756 0.501029 0.499845 0.876991
C4    C     C_R   0.737243 0.498979 0.500154 0.876933
Cu1   Cu    Cu3+1 0.521120 0.521140 0.639640 1.052666
Cu2   Cu    Cu3+1 0.478880 0.478860 0.360360 1.052651
H1    H     H_    0.274602 0.503083 0.976476 0.243568
H2    H     H_    0.725366 0.496770 0.023481 0.243598
C5    C     C_R   0.204835 0.621840 0.126752 0.338999
C6    C     C_R   0.795191 0.378089 0.873197 0.338991
C7    C     C_R   0.136304 0.624703 0.231564 0.227616
C8    C     C_R   0.863726 0.375272 0.768396 0.227470
C9    C     C_R   0.082957 0.514471 0.253378 -0.100254
C10   C     C_R   0.917050 0.485531 0.746619 -0.100237
C11   C     C_R   0.079469 0.407018 0.160092 0.320759
C12   C     C_R   0.920521 0.592958 0.839946 0.320734
C13   C     C_R   0.144051 0.407182 0.054504 -0.296079
C14   C     C_R   0.855897 0.592748 0.945496 -0.296057
H3    H     H_    0.148352 0.325026 0.984727 0.245752
H4    H     H_    0.851570 0.674885 0.015293 0.245792
C15   C     C_R   0.211909 0.510866 0.044972 -0.203720
C16   C     C_R   0.788064 0.489038 0.954989 -0.203682
C17   C     C_R   0.919790 0.507236 0.383861 0.424354
C18   C     C_R   0.080206 0.492773 0.616128 0.424410
C19   C     C_R   0.872188 0.498420 0.501287 -0.176573
C20   C     C_R   0.127811 0.501607 0.498711 -0.176457
C21   C     C_R   0.956241 0.491166 0.618069 -0.044707
C22   C     C_R   0.043760 0.508878 0.381932 -0.044659
C23   C     C_R   0.170973 0.078814 0.134493 -0.171277
C24   C     C_R   0.828946 0.921086 0.865565 -0.171481
H5    H     H_    0.075421 0.061382 0.123427 0.271101
H6    H     H_    0.924500 0.938495 0.876649 0.271135
C25   C     C_R   0.242029 0.080465 0.260972 0.292072
C26   C     C_R   0.757916 0.919461 0.739078 0.292031
C27   C     C_R   0.368131 0.083374 0.268127 -0.074544
C28   C     C_R   0.631815 0.916615 0.731901 -0.074523
C29   C     C_R   0.419705 0.102937 0.154733 -0.171154
C30   C     C_R   0.580207 0.897075 0.845277 -0.171097
H7    H     H_    0.516393 0.109661 0.161160 0.252774
H8    H     H_    0.483516 0.890385 0.838828 0.252796
C31   C     C_R   0.346968 0.110263 0.032038 0.324533
C32   C     C_R   0.652914 0.889719 0.967981 0.324532
C33   C     C_R   0.222679 0.092252 0.020474 0.339155
C34   C     C_R   0.777209 0.907680 0.979572 0.339172
C35   C     C_R   0.452140 0.918762 0.385962 -0.021090
C36   C     C_R   0.547856 0.081238 0.614048 -0.021057
H9    H     H_    0.414033 0.856380 0.297410 0.229177
H10   H     H_    0.585973 0.143616 0.702603 0.229165
C37   C     C_R   0.504536 0.871662 0.500470 -0.052988
C38   C     C_R   0.495460 0.128338 0.499536 -0.053004
C39   C     C_R   0.555727 0.955041 0.615092 0.081722
C40   C     C_R   0.444258 0.044958 0.384918 0.081740
H11   H     H_    0.439035 0.409320 0.869201 0.225225
H12   H     H_    0.560949 0.590692 0.130795 0.225242
N1    N     N_2   0.447120 0.447110 0.150550 -0.313488
N2    N     N_2   0.552880 0.552890 0.849450 -0.313451
C41   C     C_2   0.504495 0.512566 0.077993 0.031170
C42   C     C_2   0.495495 0.487442 0.922005 0.031325
H13   H     H_    0.599808 0.630794 0.901041 0.216495
H14   H     H_    0.400206 0.369197 0.098962 0.216528
Cl1   Cl    Cl    0.412142 0.138476 0.892405 -0.541057
Cl2   Cl    Cl    0.587695 0.861521 0.107587 -0.541193
N3    N     N_R   0.266323 0.729324 0.101416 0.160113
O9    O     O_R   0.349477 0.721155 0.025227 -0.310081
O10   O     O_R   0.225981 0.835683 0.135171 -0.323524
N4    N     N_R   0.733750 0.270578 0.898517 0.160109
O11   O     O_R   0.650404 0.278712 0.974470 -0.310337
O12   O     O_R   0.774178 0.164244 0.864842 -0.323401
N5    N     N_R   0.129425 0.734376 0.323818 0.169482
O13   O     O_R   0.225763 0.783048 0.402138 -0.353537
O14   O     O_R   0.025394 0.768869 0.350662 -0.183239
N6    N     N_R   0.870624 0.265617 0.676115 0.169514
O15   O     O_R   0.774259 0.216842 0.597910 -0.353442
O16   O     O_R   0.974652 0.231189 0.649182 -0.183237
N7    N     N_R   0.013871 0.297337 0.172973 0.129106
O17   O     O_R   0.011300 0.262728 0.289975 -0.292843
O18   O     O_R   0.956875 0.229977 0.065607 -0.289668
N8    N     N_R   0.986185 0.702640 0.827207 0.129173
O19   O     O_R   0.989007 0.737250 0.710278 -0.292619
O20   O     O_R   0.043011 0.769992 0.934668 -0.289895
N9    N     N_R   0.841487 0.507036 0.261665 0.089024
O21   O     O_R   0.789582 0.402261 0.203975 -0.287878
O22   O     O_R   0.792991 0.608870 0.238675 -0.350509
N10   N     N_R   0.158506 0.492918 0.738312 0.089007
O23   O     O_R   0.210429 0.597673 0.796031 -0.287807
O24   O     O_R   0.206981 0.391063 0.761262 -0.350426
Cl3   Cl    Cl    0.130627 0.083012 0.863170 -0.350972
Cl4   Cl    Cl    0.869228 0.916916 0.136896 -0.350937
N11   N     N_R   0.185645 0.070168 0.377772 0.192961
O25   O     O_R   0.075625 0.026187 0.363519 -0.126870
O26   O     O_R   0.237151 0.119775 0.497472 -0.282432
N12   N     N_R   0.814328 0.929733 0.622293 0.192887
O27   O     O_R   0.924338 0.973744 0.636562 -0.126888
O28   O     O_R   0.762852 0.880088 0.502597 -0.282550

loop_
_geom_bond_atom_site_label_1
_geom_bond_atom_site_label_2
_geom_bond_distance
_ccdc_geom_bond_type
N1    C41   1.323782 D    
C5    C15   1.392134 A    
N11   O25   1.299965 A    
C9    C22   1.447149 S    
N5    O13   1.298607 A    
O5    C3    1.342353 A    
C10   C21   1.447157 S    
N4    O12   1.293408 A    
C1    C38   1.487587 S    
O1    C1    1.333701 A    
C7    C9    1.404275 A    
C12   C14   1.383445 A    
C24   C26   1.403562 A    
C23   C33   1.395290 A    
N8    O20   1.297862 A    
C37   C39   1.413258 A    
C24   C34   1.395290 A    
C28   C39   1.475751 S    
C38   C40   1.413268 A    
C11   N7    1.434830 S    
C29   H7    1.083049 S    
O4    Cu1   2.002576 S    
C7    N5    1.434768 S    
N10   O23   1.301162 A    
C25   N11   1.443037 S    
C5    C7    1.403216 A    
H11   C42   1.083049 S    
C31   C33   1.395892 A    
C32   C34   1.395885 A    
C17   C19   1.392492 A    
C6    C16   1.392077 A    
N9    O22   1.301853 A    
C20   C22   1.414429 A    
N5    O14   1.300599 A    
C6    N4    1.432894 S    
C31   Cl1   1.752053 S    
Cu1   Cu2   2.769321 S    
C25   C27   1.413267 A    
C2    C37   1.487587 S    
O2    C2    1.333710 A    
C26   C28   1.413238 A    
N12   O28   1.300580 A    
N11   O26   1.300587 A    
C35   C40   1.402795 A    
C28   C30   1.404652 A    
H1    C15   1.060924 S    
C30   H8    1.083044 S    
C36   C39   1.402797 A    
C35   H9    1.075945 S    
C13   C15   1.383360 A    
C36   H10   1.075974 S    
N4    O11   1.300115 A    
C8    N6    1.434796 S    
C18   C21   1.401852 A    
O4    C2    1.320204 A    
N3    O10   1.293406 A    
C35   C37   1.396934 A    
N8    O19   1.301067 A    
C17   N9    1.408750 S    
N2    C42   1.323780 D    
O7    Cu2   2.044156 S    
N2    H13   1.028861 S    
C26   N12   1.443019 S    
C27   C29   1.404665 A    
N7    O17   1.301342 A    
C29   C31   1.397222 A    
O6    C4    1.342346 A    
N10   O24   1.301862 A    
O7    C3    1.325815 A    
O3    Cu2   2.002576 S    
O8    C4    1.325818 A    
C27   C40   1.475777 S    
N6    O16   1.300643 A    
N7    O18   1.297908 A    
C8    C10   1.404302 A    
C5    N3    1.432955 S    
C9    C11   1.405811 A    
C10   C12   1.405847 A    
O1    Cu1   2.010727 S    
H2    C16   1.060932 S    
N9    O21   1.301187 A    
C36   C38   1.396968 A    
N1    H14   1.028860 S    
O6    Cu2   2.049627 S    
H12   C41   1.083047 S    
C3    C20   1.521542 S    
N6    O15   1.298681 A    
O3    C1    1.320214 A    
O8    Cu1   2.044156 S    
C14   C16   1.383337 A    
C13   H3    1.076793 S    
C30   C32   1.397207 A    
C14   H4    1.076794 S    
C32   Cl2   1.752027 S    
N3    O9    1.300006 A    
C23   H5    1.076065 S    
C24   H6    1.076036 S    
C18   N10   1.408718 S    
Cu1   N2    2.080464 S    
Cu2   N1    2.080464 S    
N12   O27   1.299960 A    
C19   C21   1.414428 A    
C34   Cl4   1.755249 S    
C6    C8    1.403195 A    
C11   C13   1.383433 A    
C23   C25   1.403580 A    
O2    Cu2   2.010727 S    
O5    Cu1   2.049628 S    
C41   C42   1.553881 S    
C33   Cl3   1.755254 S    
C17   C22   1.401879 A    
C4    C19   1.521531 S    
C12   N8    1.434801 S    
C18   C20   1.392471 A    
