data_mof_unit_66573.cif
_audit_creation_date              2013-03-05T16:08:54-0500
_audit_creation_method            fapswitch 2.2
_symmetry_space_group_name_H-M    P1
_symmetry_Int_Tables_number       1
_space_group_crystal_system       triclinic
_cell_length_a                    17.233016
_cell_length_b                    6.879345
_cell_length_c                    14.432526
_cell_angle_alpha                 89.908318
_cell_angle_beta                  110.320168
_cell_angle_gamma                 90.075888
_cell_volume                      1604.51898651

loop_
_atom_site_label
_atom_site_type_symbol
_atom_site_description
_atom_site_fract_x
_atom_site_fract_y
_atom_site_fract_z
_atom_type_partial_charge
O1    O     O_R   0.314130 0.635770 0.168990 -0.596593
O2    O     O_R   0.685870 0.364230 0.831010 -0.584674
O3    O     O_R   0.185870 0.135770 0.331010 -0.601333
O4    O     O_R   0.814130 0.864230 0.668990 -0.597860
O5    O     O_R   0.146800 0.302460 0.139760 -0.604885
O6    O     O_R   0.853200 0.697540 0.860240 -0.604853
O7    O     O_R   0.353200 0.802460 0.360240 -0.602655
O8    O     O_R   0.646800 0.197540 0.639760 -0.590960
C1    C     C_R   0.114002 0.475835 0.112797 1.046144
C2    C     C_R   0.885982 0.524160 0.887232 1.038342
C3    C     C_R   0.386055 0.975836 0.387104 1.052185
C4    C     C_R   0.614250 0.024146 0.612359 1.006923
O9    O     O_R   0.311100 0.305780 0.157130 -0.555621
O10   O     O_R   0.688900 0.694220 0.842870 -0.583475
O11   O     O_R   0.188900 0.805780 0.342870 -0.561693
O12   O     O_R   0.811100 0.194220 0.657130 -0.561267
O13   O     O_R   0.351340 0.139640 0.348510 -0.571056
O14   O     O_R   0.648660 0.860360 0.651490 -0.573061
O15   O     O_R   0.148660 0.639640 0.151490 -0.570491
O16   O     O_R   0.851340 0.360360 0.848510 -0.570043
C5    C     C_R   0.334935 0.475009 0.138802 1.046029
C6    C     C_R   0.666775 0.524248 0.863737 1.060527
C7    C     C_R   0.165856 0.974755 0.362173 1.045745
C8    C     C_R   0.833820 0.025156 0.637389 1.040173
C9    C     C_1   0.533899 0.009008 0.532467 -0.172083
C10   C     C_1   0.466639 0.991125 0.466531 -0.135746
C11   C     C_1   0.966406 0.508907 0.966962 -0.144968
C12   C     C_1   0.033578 0.491080 0.033068 -0.141470
O17   O     O_3   0.263010 0.470920 0.312770 -0.264199
O18   O     O_3   0.736990 0.529080 0.687230 -0.257814
O19   O     O_3   0.236990 0.970920 0.187230 -0.261148
O20   O     O_3   0.763010 0.029080 0.812770 -0.256952
V1    V     V_3+5 0.247590 0.194450 0.238360 1.300757
V2    V     V_3+5 0.752410 0.805550 0.761640 1.292788
V3    V     V_3+5 0.252410 0.694450 0.261640 1.301213
V4    V     V_3+5 0.747590 0.305550 0.738360 1.310075
C13   C     C_R   0.115615 0.986734 0.426707 -0.343580
C14   C     C_R   0.884084 0.012960 0.572769 -0.339461
C15   C     C_R   0.384939 0.487483 0.074132 -0.321714
C16   C     C_R   0.616969 0.505673 0.929318 -0.342594
C17   C     C_R   0.900801 0.873525 0.425680 -0.237670
C18   C     C_R   0.099761 0.124332 0.574510 -0.239146
C19   C     C_R   0.588457 0.322050 0.059385 -0.232597
C20   C     C_R   0.401288 0.618791 0.924895 -0.230998
C21   C     C_R   0.850522 0.917245 0.481750 0.322821
C22   C     C_R   0.149812 0.079041 0.518458 0.317012
C23   C     C_R   0.639768 0.362747 0.004105 0.338144
C24   C     C_R   0.352133 0.585913 0.983629 0.299825
C25   C     C_R   0.968642 0.065371 0.608829 -0.131901
C26   C     C_R   0.030787 0.937379 0.390361 -0.123194
C27   C     C_R   0.541322 0.606389 0.908452 -0.142428
C28   C     C_R   0.466428 0.413787 0.105219 -0.132331
C29   C     C_R   0.017279 0.048851 0.546473 0.079163
C30   C     C_R   0.982676 0.951900 0.453338 0.077361
C31   C     C_R   0.485283 0.553551 0.957695 0.082830
C32   C     C_R   0.513679 0.428509 0.041598 0.075618
C33   C     C_2   0.990803 0.903936 0.282242 0.955615
O21   O     O_2   0.015544 0.774874 0.241385 -0.628689
O22   O     O_R   0.924701 0.021906 0.227501 -0.743595
H1    H     H_    0.902324 0.985684 0.154926 0.364959
C34   C     C_2   0.007585 0.105535 0.716363 0.967280
O23   O     O_2   0.983462 0.241096 0.753904 -0.614593
O24   O     O_R   0.071925 0.986645 0.774373 -0.724586
H2    H     H_    0.093630 0.027985 0.846242 0.362754
C35   C     C_2   0.506648 0.354909 0.210407 0.953800
O25   O     O_2   0.476334 0.227243 0.246098 -0.621989
O26   O     O_R   0.580324 0.445218 0.267994 -0.742489
H3    H     H_    0.602433 0.392460 0.337940 0.368772
C36   C     C_2   0.524314 0.775426 0.840463 1.043886
O27   O     O_2   0.516203 0.937088 0.871044 -0.594516
O28   O     O_R   0.515531 0.748906 0.741389 -0.778959
H4    H     H_    0.499329 0.873404 0.701823 0.322818
N1    N     N_R   0.234533 0.142605 0.550518 0.247242
O29   O     O_R   0.251704 0.327041 0.551927 -0.363625
O30   O     O_R   0.293707 0.015856 0.566217 -0.403131
N2    N     N_R   0.766246 0.850318 0.450169 0.243170
O31   O     O_R   0.706214 0.974606 0.434775 -0.390124
O32   O     O_R   0.750211 0.665088 0.447508 -0.357176
N3    N     N_R   0.267797 0.651989 0.951012 0.229112
O33   O     O_R   0.207918 0.527755 0.937734 -0.424080
O34   O     O_R   0.252112 0.837011 0.950313 -0.316490
N4    N     N_R   0.715935 0.257440 0.023925 0.243135
O35   O     O_R   0.786010 0.350446 0.049376 -0.403506
O36   O     O_R   0.714856 0.070305 0.010420 -0.361355
C37   C     C_2   0.869173 0.728379 0.345036 1.119899
O37   O     O_2   0.802550 0.753624 0.278996 -0.524106
O38   O     O_R   0.915570 0.561309 0.345892 -0.772179
H5    H     H_    0.887761 0.472738 0.287673 0.370678
C38   C     C_2   0.133698 0.265454 0.656462 1.118121
O39   O     O_2   0.096515 0.416645 0.656761 -0.591059
O40   O     O_R   0.209208 0.227610 0.731517 -0.670596
H6    H     H_    0.226664 0.336085 0.781956 0.357526
C39   C     C_2   0.609023 0.150339 0.126266 1.138597
O41   O     O_2   0.677244 0.136740 0.190710 -0.522630
O42   O     O_R   0.550188 0.003352 0.114299 -0.767466
H7    H     H_    0.571329 0.893142 0.163322 0.357880
C40   C     C_2   0.359085 0.690317 0.822540 1.056801
O43   O     O_2   0.324719 0.848572 0.807962 -0.496497
O44   O     O_R   0.358947 0.575144 0.742794 -0.736063
H8    H     H_    0.328754 0.639154 0.676765 0.376294

loop_
_geom_bond_atom_site_label_1
_geom_bond_atom_site_label_2
_geom_bond_distance
_ccdc_geom_bond_type
C2    C11   1.465710 S    
C16   C23   1.410407 A    
C31   C32   1.425475 A    
O1    C5    1.285510 A    
C39   O41   1.223333 D    
N1    O29   1.301052 A    
O3    C7    1.285813 A    
O42   H7    1.013967 S    
O38   H5    1.013967 S    
C40   O43   1.222567 D    
C14   C25   1.413064 A    
C29   C30   1.432595 A    
O7    C3    1.319353 A    
C26   C30   1.430886 A    
C21   N2    1.438106 S    
O20   V4    2.153573 S    
C24   N3    1.437486 S    
N2    O32   1.301318 A    
C18   C29   1.432840 A    
O8    V4    1.969093 S    
O4    C8    1.285928 A    
C33   O22   1.398484 S    
O3    V1    2.016733 S    
O17   V1    2.155984 S    
C34   O24   1.398119 S    
C18   C22   1.407693 A    
C23   N4    1.438962 S    
C36   O28   1.396865 S    
C14   C21   1.402768 A    
C1    O15   1.306516 A    
C2    O16   1.306518 A    
C35   O26   1.398376 S    
O5    V1    1.969111 S    
O2    C6    1.285988 A    
C8    C14   1.479414 S    
O19   V1    1.688736 S    
C38   O40   1.398380 S    
O11   C7    1.290612 A    
C15   C28   1.412080 A    
O22   H1    1.013899 S    
O12   C8    1.291086 A    
O9    V1    2.011197 S    
N1    O30   1.301059 A    
C36   O27   1.223105 D    
O13   V1    1.972792 S    
O11   V3    2.013728 S    
C40   O44   1.397656 S    
C37   O38   1.398556 S    
O4    V2    2.016733 S    
C25   C34   1.487585 S    
O18   V2    2.155985 S    
O26   H3    1.013929 S    
N2    O31   1.301072 A    
O40   H6    1.013083 S    
N3    O34   1.300860 A    
C3    C10   1.465614 S    
C9    C10   1.223977 T    
C37   O37   1.223414 D    
O6    V2    1.969110 S    
O20   V2    1.688734 S    
O5    C1    1.319462 A    
C20   C40   1.485169 S    
O44   H8    1.013736 S    
C5    C15   1.476220 S    
O8    C4    1.318931 A    
C6    C16   1.487426 S    
O9    C5    1.291206 A    
O14   V2    1.972791 S    
C35   O25   1.222214 D    
N4    O36   1.301486 A    
O19   V3    2.153572 S    
O1    V3    2.018152 S    
O2    V4    2.018153 S    
C3    O13   1.306260 A    
C26   C33   1.488825 S    
O7    V3    1.969093 S    
O24   H2    1.013849 S    
O10   V2    2.011196 S    
C16   C27   1.413944 A    
C17   C37   1.486753 S    
O17   V3    1.687024 S    
O18   V4    1.687023 S    
C4    C9    1.465885 S    
C18   C38   1.485013 S    
O10   C6    1.296447 A    
C13   C22   1.401334 A    
O28   H4    1.012876 S    
C7    C13   1.477970 S    
O12   V4    2.013726 S    
C13   C26   1.412117 A    
C20   C31   1.430341 A    
C33   O21   1.222738 D    
C25   C29   1.431723 A    
C19   C39   1.487473 S    
C27   C31   1.429949 A    
C34   O23   1.222750 D    
C17   C30   1.431191 A    
O6    C2    1.319467 A    
N3    O33   1.301071 A    
O16   V4    1.972858 S    
C28   C32   1.426611 A    
C19   C32   1.426548 A    
C39   O42   1.398758 S    
N4    O35   1.301228 A    
C4    O14   1.306623 A    
C11   C12   1.224035 T    
C17   C21   1.408740 A    
O15   V3    1.972857 S    
C27   C36   1.482740 S    
C38   O39   1.223156 D    
C19   C23   1.409041 A    
C22   N1    1.437602 S    
C28   C35   1.489005 S    
C20   C24   1.408869 A    
C1    C12   1.465707 S    
C15   C24   1.403408 A    
