data_mof_unit_32215.cif
_audit_creation_date              2012-12-10T19:28:36-0500
_audit_creation_method            fapswitch 2.2
_symmetry_space_group_name_H-M    P1
_symmetry_Int_Tables_number       1
_space_group_crystal_system       triclinic
_cell_length_a                    27.727864
_cell_length_b                    10.476713
_cell_length_c                    9.762448
_cell_angle_alpha                 90.530953
_cell_angle_beta                  90.49642
_cell_angle_gamma                 89.614232
_cell_volume                      2835.66965042

loop_
_atom_site_label
_atom_site_type_symbol
_atom_type_description
_atom_site_fract_x
_atom_site_fract_y
_atom_site_fract_z
_atom_type_partial_charge
C1    C     C_R   0.501388 0.257912 0.499362 0.933388
C2    C     C_R   0.872600 0.385329 0.498624 -0.107737
C3    C     C_R   0.353449 0.498037 0.496555 -0.043779
C4    C     C_R   0.646551 0.501984 0.503445 -0.043787
C5    C     C_R   0.974580 0.381462 0.492341 -0.087045
C6    C     C_R   0.025421 0.618628 0.507641 -0.087019
C7    C     C_R   0.974597 0.616426 0.524108 0.074155
C8    C     C_R   0.025403 0.383665 0.475867 0.074145
C9    C     C_R   0.949404 0.499253 0.508931 0.014267
C10   C     C_R   0.050596 0.500837 0.491051 0.014264
C11   C     C_R   0.947574 0.265901 0.499728 0.479946
C12   C     C_R   0.498612 0.742088 0.500638 0.933384
C13   C     C_R   0.052428 0.734188 0.500263 0.479938
C14   C     C_R   0.897455 0.269527 0.493468 -0.207592
C15   C     C_R   0.102548 0.730557 0.506539 -0.207631
C16   C     C_R   0.406133 0.499505 0.499262 0.877396
C17   C     C_R   0.593867 0.500498 0.500738 0.877398
C18   C     C_R   0.052005 0.273764 0.436756 -0.168198
C19   C     C_R   0.947995 0.726329 0.563210 -0.168161
C20   C     C_3   0.529197 0.041877 0.604317 -0.360240
C21   C     C_3   0.470803 0.958123 0.395683 -0.360239
C22   C     C_3   0.544794 0.954489 0.484367 -0.123297
C23   C     C_R   0.101666 0.500223 0.486301 -0.058772
C24   C     C_3   0.455206 0.045511 0.515633 -0.123296
C25   C     C_3   0.498654 0.876753 0.501579 -0.177895
C26   C     C_3   0.501346 0.123247 0.498422 -0.177897
C27   C     C_3   0.482618 0.963550 0.619639 0.601809
C28   C     C_3   0.517382 0.036450 0.380362 0.601809
C29   C     C_3   0.474835 0.408135 0.046030 0.082126
C30   C     C_3   0.525165 0.591865 0.953970 0.082137
C31   C     C_3   0.517904 0.394104 0.950475 -0.115778
C32   C     C_3   0.482096 0.605896 0.049525 -0.115774
C33   C     C_3   0.456481 0.512590 0.950362 -0.121397
C34   C     C_R   0.898335 0.499863 0.513687 -0.058772
C35   C     C_3   0.543519 0.487410 0.049638 -0.121392
C36   C     C_R   0.177570 0.385611 0.467903 0.520013
C37   C     C_R   0.822429 0.614472 0.532080 0.520031
C38   C     C_R   0.177834 0.611147 0.503678 0.545747
C39   C     C_R   0.822167 0.388932 0.496335 0.545731
C40   C     C_R   0.278539 0.498206 0.366666 0.048145
C41   C     C_R   0.721460 0.501965 0.633338 0.048139
C42   C     C_R   0.328700 0.498866 0.370360 -0.236172
C43   C     C_R   0.671299 0.501278 0.629641 -0.236164
C44   C     C_R   0.327509 0.495719 0.619243 -0.191762
C45   C     C_R   0.127155 0.385066 0.465148 -0.001750
C46   C     C_R   0.672491 0.504207 0.380755 -0.191776
C47   C     C_R   0.277428 0.494912 0.615740 -0.106139
C48   C     C_R   0.722572 0.505037 0.384260 -0.106125
C49   C     C_R   0.252947 0.496300 0.490018 0.271077
C50   C     C_R   0.747053 0.503772 0.509984 0.271057
C51   C     C_3   0.460308 0.011995 0.840656 -0.285653
C52   C     C_3   0.539692 0.988005 0.159344 -0.285655
C53   C     C_1   0.446387 0.303807 0.102412 0.202587
C54   C     C_1   0.553613 0.696192 0.897588 0.202572
C55   C     C_1   0.746291 0.499628 0.763819 0.191682
C56   C     C_R   0.872845 0.615020 0.534831 -0.001755
C57   C     C_1   0.253708 0.500675 0.236190 0.191646
C58   C     C_3   0.976576 0.131789 0.661932 -0.280288
C59   C     C_3   0.023463 0.868351 0.338063 -0.280276
C60   C     C_1   0.593288 0.899508 0.467983 0.212949
C61   C     C_1   0.406712 0.100491 0.532017 0.212950
C62   C     C_R   0.101937 0.273336 0.436424 -0.165215
C63   C     C_R   0.898062 0.726754 0.563542 -0.165205
C64   C     C_R   0.127401 0.614754 0.501379 -0.107725
H1    H     H_    0.345814 0.494740 0.717678 0.159405
H2    H     H_    0.742498 0.506320 0.289363 0.149817
H3    H     H_    0.120667 0.185375 0.410523 0.198261
H4    H     H_    0.879332 0.814716 0.589437 0.198269
H5    H     H_    0.651717 0.499711 0.725275 0.165518
H6    H     H_    0.348282 0.500511 0.274727 0.165510
H7    H     H_    0.878116 0.179946 0.492194 0.213881
H8    H     H_    0.121888 0.820136 0.507825 0.213875
H9    H     H_    0.035336 0.187361 0.400431 0.211359
H10   H     H_    0.964661 0.812736 0.599529 0.211389
H11   H     H_    0.439026 0.095296 0.803498 0.168171
H12   H     H_    0.654187 0.505087 0.282319 0.159411
H13   H     H_    0.496844 0.042820 0.874052 0.150444
H14   H     H_    0.441675 0.974274 0.931681 0.190962
H15   H     H_    0.503156 0.957180 0.125948 0.150445
H16   H     H_    0.560975 0.904704 0.196502 0.168176
H17   H     H_    0.558325 0.025726 0.068319 0.190962
H18   H     H_    0.941873 0.131803 0.718430 0.160999
H19   H     H_    0.001040 0.206242 0.704742 0.167749
H20   H     H_    0.994277 0.037866 0.678323 0.216241
H21   H     H_    0.999008 0.793908 0.295181 0.167756
H22   H     H_    0.058180 0.868345 0.281637 0.160994
H23   H     H_    0.552871 0.080411 0.686952 0.172245
H24   H     H_    0.005770 0.962279 0.321667 0.216220
H25   H     H_    0.447129 0.919589 0.313048 0.172243
H26   H     H_    0.532514 0.304922 0.903976 0.129384
H27   H     H_    0.467486 0.695078 0.096024 0.129381
H28   H     H_    0.419959 0.522286 0.903988 0.136864
H29   H     H_    0.580041 0.477714 0.096012 0.136858
H30   H     H_    0.257502 0.493549 0.710634 0.149809
N1    N     N_R   0.201575 0.497469 0.488584 -0.358480
N2    N     N_1   0.368550 0.144082 0.544894 -0.167417
N3    N     N_R   0.798425 0.502609 0.511419 -0.358478
N4    N     N_3   0.499960 0.500030 0.863290 -0.094242
N5    N     N_3   0.500040 0.499970 0.136710 -0.094242
N6    N     N_1   0.423979 0.221421 0.146958 -0.201567
N7    N     N_1   0.576021 0.778578 0.853042 -0.201578
N8    N     N_1   0.766236 0.497768 0.868407 -0.190686
N9    N     N_1   0.233762 0.502642 0.131606 -0.190687
N10   N     N_1   0.631450 0.855917 0.455107 -0.167410
O1    O     O_R   0.500000 0.313960 0.616610 -0.643289
O2    O     O_2   0.797489 0.724418 0.549775 -0.539163
O3    O     O_2   0.796941 0.279980 0.480118 -0.542108
O4    O     O_2   0.203061 0.720094 0.519914 -0.542104
O5    O     O_3   0.463205 0.914087 0.741165 -0.590586
O6    O     O_3   0.536795 0.085912 0.258835 -0.590590
O7    O     O_3   0.968751 0.147826 0.520179 -0.626543
O8    O     O_3   0.031252 0.852263 0.479818 -0.626560
O9    O     O_R   0.500000 0.686040 0.383390 -0.643290
O10   O     O_R   0.500020 0.313950 0.383350 -0.572224
O11   O     O_R   0.499980 0.686050 0.616650 -0.572223
O12   O     O_R   0.428750 0.500030 0.616610 -0.624734
O13   O     O_R   0.571250 0.499970 0.383390 -0.624734
O14   O     O_R   0.428770 0.500020 0.383360 -0.627202
O15   O     O_R   0.571230 0.499980 0.616640 -0.627204
O16   O     O_2   0.202510 0.275665 0.450193 -0.539166
Zn1   Zn    Zn3+2 0.499990 0.500010 0.655740 0.970391
Zn2   Zn    Zn3+2 0.500010 0.499990 0.344260 0.970391

loop_
_geom_bond_atom_site_label_1
_geom_bond_atom_site_label_2
_ccdc_geom_bond_type
N4    Zn1   S    
C3    C42   A    
C34   C56   A    
C24   C61   S    
C23   C45   A    
C14   H7    S    
C54   N7    T    
C24   C27   S    
C37   N3    A    
C61   N2    T    
C47   C49   A    
C21   H25   S    
C39   O3    S    
C15   H8    S    
C30   C54   S    
C55   N8    T    
C20   C26   S    
C62   H3    S    
O11   Zn1   S    
C51   H11   S    
C5    C11   A    
C13   O8    S    
C16   O14   A    
C58   H18   S    
C22   C60   S    
C11   C14   A    
C39   N3    A    
C32   H27   S    
C40   C49   A    
C20   H23   S    
C29   C33   S    
C45   C62   A    
C42   H6    S    
C33   N4    S    
O14   Zn2   S    
C31   N4    S    
C59   H24   S    
C41   C55   S    
C37   C56   A    
C2    C39   A    
O9    Zn2   S    
C19   C63   A    
C22   C25   S    
C38   N1    A    
C15   C64   A    
C52   H15   S    
C44   C47   A    
C17   O13   A    
C12   O11   A    
C2    C34   A    
C48   C50   A    
C2    C14   A    
C51   O5    S    
C22   C28   S    
C41   C43   A    
C44   H1    S    
C35   N5    S    
C16   O12   A    
C46   H12   S    
C38   C64   A    
O15   Zn1   S    
C53   N6    T    
C57   N9    T    
C46   C48   A    
C3    C44   A    
O12   Zn1   S    
C29   N5    S    
C11   O7    S    
C58   O7    S    
C33   H28   S    
C18   C62   A    
C4    C46   A    
C28   O6    S    
C8    C18   A    
O13   Zn2   S    
C51   H13   S    
C5    C9    A    
C58   H20   S    
C35   H29   S    
C52   O6    S    
C31   H26   S    
C59   O8    S    
C56   C63   A    
O1    Zn1   S    
C36   C45   A    
C49   N1    S    
N5    Zn2   S    
C4    C17   S    
C30   C35   S    
C8    C10   A    
C23   C64   A    
C4    C43   A    
C21   C28   S    
C20   C22   S    
C18   H9    S    
C7    C19   A    
C13   C15   A    
C9    C34   A    
C31   C35   S    
C1    O10   A    
C41   C50   A    
C12   O9    A    
C7    C9    A    
C21   C25   S    
C63   H4    S    
C50   N3    S    
C40   C57   S    
C19   H10   S    
C24   C26   S    
C6    C10   A    
C5    C8    A    
C6    C7    A    
C20   C27   S    
C10   C23   A    
C25   C27   S    
C30   N4    S    
C26   C28   S    
C32   N5    S    
C12   C25   S    
C32   C33   S    
C51   H14   S    
C37   O2    S    
C29   C31   S    
C60   N10   T    
C58   H19   S    
C6    C13   A    
C30   C32   S    
C36   N1    A    
C1    C26   S    
C29   C53   S    
C40   C42   A    
C47   H30   S    
C38   O4    S    
C52   H17   S    
C36   O16   S    
C59   H22   S    
C17   O15   A    
O10   Zn2   S    
C27   O5    S    
C43   H5    S    
C21   C24   S    
C48   H2    S    
C52   H16   S    
C59   H21   S    
C3    C16   S    
C1    O1    A    
