data_mof_unit_56882.cif
_audit_creation_date              2012-12-11T14:57:58-0500
_audit_creation_method            fapswitch 2.2
_symmetry_space_group_name_H-M    P1
_symmetry_Int_Tables_number       1
_space_group_crystal_system       triclinic
_cell_length_a                    6.937727
_cell_length_b                    16.387247
_cell_length_c                    17.567173
_cell_angle_alpha                 100.075561
_cell_angle_beta                  89.565048
_cell_angle_gamma                 90.460801
_cell_volume                      1966.31254699

loop_
_atom_site_label
_atom_site_type_symbol
_atom_type_description
_atom_site_fract_x
_atom_site_fract_y
_atom_site_fract_z
_atom_type_partial_charge
O1    O     O_R   0.506180 0.438940 0.579430 -0.556010
O2    O     O_R   0.170520 0.406230 0.413590 -0.519861
O3    O     O_R   0.005180 0.561060 0.420570 -0.519777
C1    C     C_R   0.341224 0.379035 0.389263 0.680289
O4    O     O_R   0.176140 0.429310 0.578370 -0.536213
O5    O     O_R   0.010830 0.584300 0.586530 -0.538595
C2    C     C_R   0.342844 0.415660 0.606411 0.683540
O6    O     O_R   0.500520 0.415700 0.413470 -0.534220
O7    O     O_3   0.340830 0.550820 0.502480 -0.346730
V1    V     V_3+5 0.064040 0.490570 0.499540 1.566263
O8    O     O_R   0.681400 0.593770 0.586410 -0.541683
C3    C     C_R   0.851606 0.618973 0.613270 0.644710
O9    O     O_R   0.675790 0.570690 0.421630 -0.533451
C4    C     C_R   0.844505 0.583633 0.393213 0.787123
V2    V     V_3+5 0.564650 0.509430 0.500460 1.532020
O10   O     O_3   0.837730 0.449180 0.497520 -0.371667
C5    C     C_R   0.910274 0.858696 0.163797 -0.190203
C6    C     C_R   0.852552 0.628149 0.326044 -0.045401
C7    C     C_R   0.771056 0.640393 0.192577 -0.018384
C8    C     C_R   0.784426 0.591348 0.251974 -0.071087
C9    C     C_R   0.923119 0.709554 0.336828 -0.163315
C10   C     C_R   0.918754 0.757284 0.278203 0.060573
C11   C     C_R   0.836152 0.724972 0.205839 0.107768
C12   C     C_R   0.823006 0.778472 0.149863 0.252085
C13   C     C_R   0.994788 0.888285 0.235718 0.354930
C14   C     C_R   0.995112 0.838031 0.292711 -0.189231
H1    H     H_    0.057898 0.861860 0.348615 0.123052
H2    H     H_    0.979774 0.737630 0.391770 0.130924
H3    H     H_    0.630995 0.634872 0.957268 0.184911
C15   C     C_R   0.032845 0.912410 0.736529 -0.111507
C16   C     C_R   0.103062 0.930553 0.666952 0.001705
C17   C     C_R   0.112012 0.867858 0.603160 -0.213825
C18   C     C_R   0.038275 0.788604 0.605833 -0.004010
C19   C     C_R   0.955543 0.768576 0.675399 0.004428
C20   C     C_R   0.964322 0.832109 0.742867 0.039410
C21   C     C_R   0.867665 0.689272 0.681106 -0.165733
C22   C     C_R   0.803331 0.674831 0.754838 0.046177
C23   C     C_R   0.819620 0.738224 0.821230 0.060225
C24   C     C_R   0.901532 0.816284 0.815661 -0.149779
C25   C     C_R   0.728436 0.596363 0.764689 -0.146655
C26   C     C_R   0.666966 0.581582 0.837356 0.022986
C27   C     C_R   0.678546 0.645098 0.900967 -0.193059
C28   C     C_R   0.755274 0.721743 0.893287 -0.125904
H4    H     H_    0.030970 0.962464 0.785639 0.163559
H5    H     H_    0.169488 0.881948 0.549221 0.126218
H6    H     H_    0.718859 0.545510 0.716500 0.143245
H7    H     H_    0.765750 0.768030 0.944684 0.129417
C29   C     C_R   0.412878 0.198857 0.401957 0.017843
C30   C     C_R   0.458907 0.117740 0.407642 -0.262516
C31   C     C_R   0.496486 0.058948 0.342899 -0.069083
C32   C     C_R   0.490197 0.081673 0.269034 0.388323
C33   C     C_R   0.434223 0.163816 0.260170 0.030484
C34   C     C_R   0.402190 0.225156 0.328743 -0.044824
C35   C     C_R   0.397962 0.184561 0.185299 -0.112155
C36   C     C_R   0.312394 0.263907 0.182387 0.018073
C37   C     C_R   0.327332 0.328128 0.247174 0.074510
C38   C     C_R   0.357862 0.309210 0.321425 -0.115867
C39   C     C_R   0.198207 0.281425 0.119879 -0.097138
C40   C     C_R   0.169215 0.364883 0.109996 -0.051960
C41   C     C_R   0.232781 0.430083 0.167754 -0.059117
C42   C     C_R   0.299708 0.410815 0.237169 -0.092744
H8    H     H_    0.462877 0.099661 0.464244 0.134913
H9    H     H_    0.328633 0.461587 0.284028 0.150409
C43   C     C_R   0.423462 0.138157 0.833234 -0.082746
C44   C     C_R   0.340868 0.364087 0.668315 0.020686
C45   C     C_R   0.170858 0.323203 0.778653 -0.043037
C46   C     C_R   0.191698 0.375038 0.723364 -0.197109
C47   C     C_R   0.470902 0.298878 0.668525 -0.071577
C48   C     C_R   0.451142 0.244976 0.722683 0.074415
C49   C     C_R   0.307740 0.259329 0.781425 0.078772
C50   C     C_R   0.308448 0.209576 0.840737 0.310885
C51   C     C_R   0.554062 0.120830 0.770727 0.348913
C52   C     C_R   0.571568 0.175918 0.717714 -0.198975
H10   H     H_    0.677444 0.163865 0.671478 0.132575
H11   H     H_    0.086079 0.423161 0.721611 0.111138
H12   H     H_    0.583912 0.288393 0.625101 0.095166
O11   O     O_R   0.265840 0.084300 0.086750 -0.528096
O12   O     O_R   0.589750 0.070740 0.921690 -0.526257
O13   O     O_R   0.755020 0.915730 0.913400 -0.539782
C53   C     C_R   0.422972 0.086083 0.895008 0.769490
O14   O     O_R   0.595830 0.093740 0.086480 -0.498774
O15   O     O_R   0.761150 0.938890 0.079360 -0.544322
C54   C     C_R   0.423400 0.120506 0.112325 0.784399
O16   O     O_R   0.259710 0.061140 0.920790 -0.540530
O17   O     O_3   0.425260 0.949200 0.997610 -0.382238
V3    V     V_3+5 0.702060 0.009430 0.000450 1.582130
O18   O     O_R   0.090530 0.929220 0.078150 -0.512414
C55   C     C_R   0.920810 0.911283 0.102719 0.771700
O19   O     O_R   0.084440 0.906220 0.913360 -0.553154
C56   C     C_R   0.915032 0.882954 0.885640 0.661614
V4    V     V_3+5 0.201450 0.990520 0.999290 1.556083
O20   O     O_3   0.928380 0.050800 0.002390 -0.361162
O21   O     O_3   0.726739 0.751624 0.081936 -0.649277
H13   H     H_    0.650774 0.798393 0.069679 0.299034
C57   C     C_2   0.047294 0.731397 0.532560 0.402948
H14   H     H_    0.915463 0.703465 0.507983 -0.027334
O22   O     O_2   0.200713 0.717421 0.498351 -0.521662
C58   C     C_2   0.593189 0.499675 0.848457 0.308374
H15   H     H_    0.533730 0.491496 0.904008 0.072415
O23   O     O_2   0.600990 0.439981 0.796332 -0.548210
C59   C     C_2   0.207623 0.518820 0.161169 0.407479
H16   H     H_    0.148907 0.536309 0.109466 0.041084
O24   O     O_2   0.252878 0.574350 0.214016 -0.511941
C60   C     C_2   0.371814 0.251974 0.475834 0.338948
H17   H     H_    0.476537 0.298524 0.498749 0.024346
O25   O     O_2   0.225674 0.241394 0.512134 -0.530966
C61   C     C_2   0.532024 0.972762 0.355279 0.349169
H18   H     H_    0.576698 0.962004 0.411780 0.044239
O26   O     O_2   0.504210 0.912848 0.304455 -0.510482
O27   O     O_3   0.535081 0.023089 0.205612 -0.609171
H19   H     H_    0.652004 0.994119 0.218349 0.318511
O28   O     O_3   0.071523 0.967544 0.249684 -0.624114
H20   H     H_    0.115478 0.980573 0.304044 0.302040
C62   C     C_2   0.054841 0.219601 0.084763 0.493612
H21   H     H_    0.026507 0.209670 0.023407 0.126969
O29   O     O_2   0.957157 0.182701 0.126111 -0.507867
C63   C     C_2   0.056923 0.385128 0.044014 0.291060
H22   H     H_    0.115293 0.428513 0.009608 0.026059
O30   O     O_2   0.896196 0.356075 0.029187 -0.518446
O31   O     O_3   0.216483 0.234056 0.910345 -0.646233
H23   H     H_    0.234386 0.294806 0.924130 0.272139
O32   O     O_3   0.664481 0.050072 0.763022 -0.638658
H24   H     H_    0.740124 0.044663 0.714338 0.308419
C64   C     C_2   0.992733 0.333991 0.826225 0.459341
H25   H     H_    0.938026 0.395808 0.846545 0.060325
O33   O     O_2   0.900625 0.274281 0.839719 -0.478075
C65   C     C_2   0.699741 0.600040 0.115917 0.444677
H26   H     H_    0.791694 0.557612 0.077782 0.004703
O34   O     O_2   0.535238 0.611769 0.096489 -0.511238
C66   C     C_2   0.732979 0.501116 0.234567 0.336209
H27   H     H_    0.649962 0.476224 0.183688 0.080621
O35   O     O_2   0.788114 0.452534 0.274963 -0.526361
C67   C     C_2   0.164181 0.015390 0.659220 0.339653
H28   H     H_    0.240615 0.026072 0.607659 0.054683
O36   O     O_2   0.125481 0.074633 0.709222 -0.533227

loop_
_geom_bond_atom_site_label_1
_geom_bond_atom_site_label_2
_ccdc_geom_bond_type
C36   C37   A    
C26   C27   A    
O21   H13   S    
O18   V4    S    
H3    C27   S    
C6    C9    A    
C61   O26   D    
C17   H5    S    
C4    C6    S    
C7    C11   A    
C7    C8    A    
C1    O6    A    
C60   O25   D    
C62   H21   S    
O17   V4    S    
O17   V3    S    
O31   H23   S    
C25   H6    S    
C14   H1    S    
C59   H16   S    
C50   O31   S    
C39   C62   S    
C21   C22   A    
C22   C25   A    
C63   O30   D    
O5    C3    A    
C23   C24   A    
O12   C53   A    
O11   C54   A    
V2    O10   S    
C29   C60   S    
C5    C55   S    
C37   C38   A    
C19   C20   A    
C52   H10   S    
C43   C50   A    
C42   H9    S    
O27   H19   S    
C35   C54   S    
O13   C56   A    
C13   O28   S    
O8    V2    S    
O11   V4    S    
C57   H14   S    
C47   C48   A    
C44   C46   A    
C1    C38   S    
C11   C12   A    
C48   C52   A    
C49   C50   A    
O1    V2    S    
O16   V4    S    
C3    C21   S    
O7    V1    S    
C24   C56   S    
C19   C21   A    
O14   V3    S    
C53   O16   A    
O12   V3    S    
C45   C46   A    
C40   C41   A    
C59   O24   D    
O9    C4    A    
C43   C53   S    
C15   H4    S    
C18   C57   S    
O28   H20   S    
O14   C54   A    
C33   C35   A    
C31   C32   A    
C29   C34   A    
C5    C12   A    
C32   C33   A    
O19   C56   A    
V4    O20   S    
O4    C2    A    
C34   C38   A    
C39   C40   A    
O15   V3    S    
C26   C58   S    
C41   C42   A    
O2    C1    A    
C65   O34   D    
C22   C23   A    
C2    C44   S    
C67   H28   S    
C16   C17   A    
C15   C16   A    
C61   H18   S    
C44   C47   A    
C18   C19   A    
C37   C42   A    
C47   H12   S    
O3    C4    A    
C15   C20   A    
C25   C26   A    
C9    H2    S    
C58   H15   S    
C32   O27   S    
C58   O23   D    
O9    V2    S    
C31   C61   S    
C45   C64   S    
O19   V4    S    
C27   C28   A    
C41   C59   S    
O2    V1    S    
C33   C34   A    
C64   O33   D    
C35   C36   A    
C29   C30   A    
C30   H8    S    
C51   O32   S    
O1    C2    A    
C8    C66   S    
C51   C52   A    
C60   H17   S    
O5    V1    S    
C62   O29   D    
O8    C3    A    
C57   O22   D    
O6    V2    S    
C63   H22   S    
C66   O35   D    
C5    C13   A    
C17   C18   A    
C66   H27   S    
C13   C14   A    
O4    V1    S    
O3    V1    S    
V3    O20   S    
C12   O21   S    
C45   C49   A    
O15   C55   A    
C20   C24   A    
C7    C65   S    
C6    C8    A    
C43   C51   A    
O7    V2    S    
C48   C49   A    
C23   C28   A    
C46   H11   S    
O18   C55   A    
C40   C63   S    
C30   C31   A    
C10   C14   A    
C36   C39   A    
C16   C67   S    
C67   O36   D    
C10   C11   A    
V1    O10   S    
O32   H24   S    
C9    C10   A    
C28   H7    S    
O13   V3    S    
C65   H26   S    
C64   H25   S    
