data_mof_unit_12974.cif
_audit_creation_date              2012-12-10T17:29:17-0500
_audit_creation_method            fapswitch 2.2
_symmetry_space_group_name_H-M    P1
_symmetry_Int_Tables_number       1
_space_group_crystal_system       triclinic
_cell_length_a                    12.108417
_cell_length_b                    12.771093
_cell_length_c                    13.138423
_cell_angle_alpha                 85.437383
_cell_angle_beta                  114.664814
_cell_angle_gamma                 93.48015
_cell_volume                      1839.63355883

loop_
_atom_site_label
_atom_site_type_symbol
_atom_type_description
_atom_site_fract_x
_atom_site_fract_y
_atom_site_fract_z
_atom_type_partial_charge
C1    C     C_R   0.470755 0.301923 0.482016 0.908197
C2    C     C_R   0.563073 0.506659 0.992305 0.035635
C3    C     C_R   0.546323 0.543022 0.882888 -0.046289
C4    C     C_R   0.465096 0.517846 0.023948 0.054459
C5    C     C_R   0.362451 0.577081 0.952813 0.067185
C6    C     C_R   0.368103 0.638711 0.860995 0.040849
C7    C     C_R   0.462667 0.624112 0.827728 -0.133352
C8    C     C_R   0.464981 0.470882 0.123876 -0.226861
C9    C     C_R   0.275313 0.545105 0.090858 -0.008790
C10   C     C_R   0.619292 0.503566 0.834769 -0.196401
C11   C     C_R   0.529651 0.815354 0.478106 -0.050478
C12   C     C_R   0.569339 0.499194 0.710267 0.895535
C13   C     C_R   0.440032 0.195003 0.444433 -0.127851
C14   C     C_R   0.323763 0.032907 0.434769 -0.071088
C15   C     C_R   0.329484 0.142731 0.433098 -0.144690
C16   C     C_R   0.523505 0.144208 0.418715 0.033423
C17   C     C_R   0.527229 0.033888 0.432751 0.030605
C18   C     C_R   0.426937 0.979229 0.444706 0.035962
C19   C     C_R   0.429983 0.871471 0.465787 -0.182551
C20   C     C_R   0.629126 0.866988 0.464302 0.034198
C21   C     C_R   0.627797 0.976305 0.440024 -0.029108
C22   C     C_R   0.009942 0.608948 0.411859 -0.243451
C23   C     C_R   0.521468 0.701600 0.497090 0.993251
C24   C     C_R   0.121780 0.593748 0.406967 0.064766
C25   C     C_R   0.164551 0.454990 0.549433 0.217377
C26   C     C_R   0.042942 0.460835 0.544218 0.022931
C27   C     C_R   0.968096 0.542113 0.476758 -0.014127
C28   C     C_R   0.849155 0.553558 0.470227 -0.013052
C29   C     C_R   0.869552 0.399429 0.586863 0.175884
C30   C     C_R   0.991881 0.389800 0.602204 0.036453
C31   C     C_R   0.431107 0.500559 0.289991 0.906659
C32   C     C_R   0.260695 0.578651 0.980681 -0.078036
C33   C     C_R   0.386356 0.503302 0.166461 -0.058102
C34   C     C_R   0.732922 0.459804 0.906552 -0.093309
C35   C     C_R   0.761418 0.439726 0.021682 -0.111922
C36   C     C_R   0.678223 0.464535 0.065120 -0.080283
H1    H     H_    0.795171 0.619085 0.421485 0.187034
H2    H     H_    0.950801 0.670427 0.359021 0.201037
H3    H     H_    0.528298 0.411945 0.173759 0.170340
H4    H     H_    0.353628 0.830230 0.474550 0.216111
N1    N     N_R   0.798200 0.480260 0.519790 -0.127821
N2    N     N_R   0.201820 0.519740 0.480210 -0.120332
O1    O     O_R   0.579910 0.341070 0.505280 -0.640249
O2    O     O_R   0.388440 0.353740 0.492580 -0.601715
O3    O     O_R   0.643280 0.490550 0.663120 -0.601358
O4    O     O_R   0.451810 0.503220 0.650420 -0.593666
O5    O     O_R   0.611560 0.646260 0.507420 -0.593919
O6    O     O_R   0.420090 0.658930 0.494720 -0.559601
O7    O     O_R   0.548190 0.496780 0.349580 -0.602060
O8    O     O_R   0.356720 0.509450 0.336880 -0.554979
Zn1   Zn    Zn3+2 0.627850 0.491540 0.508480 0.986710
Zn2   Zn    Zn3+2 0.372150 0.508460 0.491520 1.029713
N3    N     N_3   0.176059 0.544316 0.122971 -0.387942
H5    H     H_    0.143846 0.620237 0.109425 0.263273
H6    H     H_    0.106564 0.495732 0.070138 0.219827
N4    N     N_3   0.731802 0.808425 0.475742 -0.424690
H7    H     H_    0.809757 0.837611 0.540643 0.231271
H8    H     H_    0.743051 0.818171 0.400833 0.207138
C37   C     C_2   0.210277 0.974344 0.424808 0.946564
O9    O     O_2   0.184232 0.962907 0.505546 -0.561471
O10   O     O_R   0.136022 0.929670 0.324045 -0.766135
H9    H     H_    0.062058 0.890889 0.327698 0.362578
C38   C     C_2   0.737415 0.026917 0.432555 0.854800
O11   O     O_2   0.748759 0.029610 0.344164 -0.590261
O12   O     O_R   0.829416 0.067928 0.527823 -0.798730
H10   H     H_    0.900488 0.098999 0.512601 0.359067
C39   C     C_2   0.216652 0.201765 0.403892 0.973256
O13   O     O_2   0.189935 0.272668 0.330270 -0.609468
O14   O     O_R   0.139317 0.174756 0.457121 -0.786502
H11   H     H_    0.065270 0.220189 0.428279 0.345135
N5    N     N_3   0.588285 0.205986 0.363593 -0.432546
H12   H     H_    0.575689 0.171846 0.289663 0.229016
H13   H     H_    0.680298 0.213699 0.415879 0.215979
N6    N     N_3   0.823606 0.321550 0.644816 -0.430062
H14   H     H_    0.766640 0.354533 0.673376 0.260580
H15   H     H_    0.777276 0.262593 0.591077 0.221541
N7    N     N_3   0.061253 0.305454 0.674944 -0.465397
H16   H     H_    0.066303 0.312848 0.755411 0.228895
H17   H     H_    0.016573 0.234166 0.645667 0.229610
C40   C     C_2   0.139114 0.657602 0.313585 0.950975
O15   O     O_2   0.049423 0.689621 0.232460 -0.591297
O16   O     O_R   0.252452 0.685299 0.315723 -0.779630
H18   H     H_    0.249059 0.735976 0.251080 0.340350
N8    N     N_3   0.285734 0.723401 0.810856 -0.416916
H19   H     H_    0.335052 0.794748 0.819918 0.227531
H20   H     H_    0.234486 0.711379 0.725885 0.255079
N9    N     N_3   0.251170 0.383775 0.627274 -0.384464
H21   H     H_    0.263444 0.397589 0.708743 0.209403
H22   H     H_    0.221305 0.306514 0.608604 0.225461
C41   C     C_2   0.139111 0.608095 0.893676 0.958909
O17   O     O_2   0.078594 0.671170 0.912035 -0.569439
O18   O     O_R   0.096110 0.565553 0.788665 -0.815089
H23   H     H_    0.015429 0.594950 0.733988 0.369979
C42   C     C_2   0.831149 0.453044 0.867918 0.895854
O19   O     O_2   0.859320 0.530472 0.822047 -0.582064
O20   O     O_R   0.895680 0.360870 0.889061 -0.767834
H24   H     H_    0.966188 0.369443 0.866322 0.345227
C43   C     C_2   0.724396 0.465491 0.188398 0.930236
O21   O     O_2   0.721734 0.546552 0.230530 -0.627579
O22   O     O_R   0.768995 0.373600 0.255275 -0.794279
H25   H     H_    0.794965 0.382698 0.337924 0.338230
C44   C     C_2   0.882307 0.399499 0.099662 0.992778
O23   O     O_2   0.907868 0.309208 0.095744 -0.510172
O24   O     O_R   0.963561 0.463631 0.181271 -0.798460
H26   H     H_    0.040682 0.426679 0.232376 0.367877
C45   C     C_2   0.485780 0.704137 0.748800 0.928511
O25   O     O_2   0.400653 0.741981 0.668257 -0.606693
O26   O     O_R   0.603716 0.739542 0.766472 -0.762559
H27   H     H_    0.668140 0.713245 0.841176 0.335877

loop_
_geom_bond_atom_site_label_1
_geom_bond_atom_site_label_2
_ccdc_geom_bond_type
N9    H21   S    
C38   O12   S    
C24   N2    A    
C14   C18   A    
C35   C36   A    
C20   N4    S    
C35   C44   S    
N7    H16   S    
N4    H7    S    
C14   C37   S    
C11   C19   A    
C26   C27   A    
N6    H15   S    
N8    H20   S    
C18   C19   A    
C3    C7    A    
C5    C6    A    
C43   O21   D    
C45   O25   D    
O3    Zn1   S    
C22   H2    S    
O4    Zn2   S    
C28   N1    A    
C25   N9    S    
O26   H27   S    
C34   C35   A    
O22   H25   S    
C9    C32   A    
C30   N7    S    
C1    O1    A    
C32   C41   S    
C16   C17   A    
O7    Zn1   S    
O8    Zn2   S    
C31   C33   S    
C8    H3    S    
O10   H9    S    
C4    C8    A    
C42   O20   S    
C5    C32   A    
O2    Zn2   S    
N3    H6    S    
C37   O9    D    
C9    C33   A    
C42   O19   D    
C16   N5    S    
C31   O7    A    
O24   H26   S    
C24   C40   S    
N7    H17   S    
C11   C20   A    
C37   O10   S    
C23   O5    A    
N6    H14   S    
C44   O23   D    
C6    N8    S    
N8    H19   S    
C12   O4    A    
N5    H13   S    
C12   O3    A    
O5    Zn1   S    
C29   N6    S    
C25   C26   A    
N3    H5    S    
C17   C21   A    
C39   O13   D    
C39   O14   S    
C2    C4    A    
C29   C30   A    
C1    O2    A    
C41   O18   S    
O6    Zn2   S    
C15   C39   S    
O20   H24   S    
C17   C18   A    
C7    C45   S    
C10   C34   A    
C44   O24   S    
C10   C12   S    
C40   O16   S    
C26   C30   A    
C43   O22   S    
C22   C27   A    
C13   C15   A    
C22   C24   A    
C9    N3    S    
C31   O8    A    
C2    C36   A    
C23   O6    A    
C29   N1    A    
C34   C42   S    
C40   O15   D    
C25   N2    A    
C6    C7    A    
N9    H22   S    
C2    C3    A    
N5    H12   S    
C3    C10   A    
O1    Zn1   S    
C41   O17   D    
C45   O26   S    
C28   H1    S    
C11   C23   S    
O18   H23   S    
N4    H8    S    
C8    C33   A    
O12   H10   S    
O14   H11   S    
C21   C38   S    
C19   H4    S    
C38   O11   D    
C4    C5    A    
C1    C13   S    
C20   C21   A    
O16   H18   S    
C13   C16   A    
C27   C28   A    
C14   C15   A    
C36   C43   S    
N1    Zn1   S    
N2    Zn2   S    
