data_mof_unit_34862.cif
_audit_creation_date              2013-03-05T16:11:15-0500
_audit_creation_method            fapswitch 2.2
_symmetry_space_group_name_H-M    P1
_symmetry_Int_Tables_number       1
_space_group_crystal_system       triclinic
_cell_length_a                    6.95473
_cell_length_b                    20.544962
_cell_length_c                    24.484636
_cell_angle_alpha                 90.085922
_cell_angle_beta                  90.487399
_cell_angle_gamma                 89.514813
_cell_volume                      3498.22339991

loop_
_atom_site_label
_atom_site_type_symbol
_atom_site_description
_atom_site_fract_x
_atom_site_fract_y
_atom_site_fract_z
_atom_type_partial_charge
O1    O     O_R   0.507280 0.423750 0.460310 -0.589119
O2    O     O_R   0.171030 0.555650 0.437630 -0.589917
O3    O     O_R   0.004080 0.576250 0.539690 -0.587499
C1    C     C_R   0.339065 0.575663 0.421773 0.982537
O4    O     O_R   0.177330 0.422980 0.453960 -0.591707
O5    O     O_R   0.010420 0.442640 0.556140 -0.590341
C2    C     C_R   0.346111 0.399080 0.443310 0.924064
O6    O     O_R   0.500930 0.557360 0.443860 -0.588310
O7    O     O_3   0.340310 0.506600 0.533500 -0.271642
V1    V     V_3+5 0.064140 0.498780 0.493780 1.168360
O8    O     O_R   0.680890 0.444350 0.562370 -0.592458
C3    C     C_R   0.850579 0.424399 0.578143 0.976503
O9    O     O_R   0.674590 0.577020 0.546040 -0.589742
C4    C     C_R   0.842852 0.600790 0.556889 0.957252
V2    V     V_3+5 0.564550 0.501220 0.506220 1.169356
O10   O     O_3   0.838250 0.493400 0.466500 -0.273589
C5    C     C_R   0.976425 0.837892 0.911408 -0.282494
C6    C     C_R   0.848220 0.661602 0.588950 -0.152399
C7    C     C_R   0.040566 0.722151 0.905316 -0.351172
C8    C     C_R   0.036392 0.779577 0.936122 0.620071
C9    C     C_R   0.929168 0.838804 0.855411 -0.331225
C10   C     C_R   0.940583 0.781346 0.822817 0.128461
C11   C     C_R   0.996902 0.722792 0.849262 0.122904
C12   C     C_R   0.900920 0.779935 0.765045 0.078766
C13   C     C_R   0.919697 0.720178 0.734951 0.087325
C14   C     C_R   0.975455 0.663578 0.763863 -0.211138
C15   C     C_R   0.011965 0.665005 0.819663 -0.195224
C16   C     C_R   0.842765 0.836230 0.736418 -0.216497
C17   C     C_R   0.808795 0.835179 0.680531 -0.133808
C18   C     C_R   0.830988 0.778029 0.649873 -0.013313
C19   C     C_R   0.882316 0.719002 0.676998 0.095322
C20   C     C_R   0.795468 0.778436 0.592657 0.362026
C21   C     C_R   0.800498 0.720032 0.563338 -0.255193
C22   C     C_R   0.890947 0.661006 0.645044 -0.236996
H1    H     H_    0.055118 0.620186 0.839829 0.132364
H2    H     H_    0.924754 0.614168 0.662463 0.105553
H3    H     H_    0.769659 0.720288 0.519860 0.157573
H4    H     H_    0.760452 0.880097 0.661771 0.182270
H5    H     H_    0.080549 0.676908 0.925291 0.144842
H6    H     H_    0.889269 0.885425 0.838542 0.133470
H7    H     H_    0.994210 0.616911 0.744562 0.130575
H8    H     H_    0.820637 0.882521 0.756111 0.135640
H9    H     H_    0.618977 0.205585 0.792877 0.119514
C23   C     C_R   0.729905 0.269342 0.731124 -0.173691
H10   H     H_    0.587933 0.283863 0.716980 0.118546
C24   C     C_R   0.894275 0.294938 0.706407 0.182925
C25   C     C_R   0.076574 0.275187 0.725551 -0.174387
H11   H     H_    0.205215 0.294294 0.707033 0.119479
C26   C     C_R   0.094288 0.230536 0.768786 -0.173471
H12   H     H_    0.236259 0.216015 0.782930 0.118560
C27   C     C_R   0.929918 0.204942 0.793503 0.183061
C28   C     C_R   0.747618 0.224691 0.774359 -0.174137
C29   C     C_1   0.876339 0.341002 0.661416 -0.028580
C30   C     C_1   0.947856 0.158885 0.838500 -0.029142
C31   C     C_1   0.961066 0.120675 0.876276 -0.287783
C32   C     C_1   0.863141 0.379222 0.623647 -0.290072
H13   H     H_    0.698737 0.704950 0.298205 0.122516
C33   C     C_R   0.596584 0.768650 0.234208 -0.168812
H14   H     H_    0.740371 0.782725 0.222664 0.121344
C34   C     C_R   0.436068 0.794608 0.206341 0.176446
C35   C     C_R   0.251401 0.775287 0.222298 -0.168318
H15   H     H_    0.125442 0.794585 0.201398 0.125644
C36   C     C_R   0.227581 0.730878 0.265400 -0.169127
H16   H     H_    0.083790 0.716823 0.276958 0.119457
C37   C     C_R   0.388097 0.704953 0.293296 0.179995
C38   C     C_R   0.572768 0.724235 0.277303 -0.164356
C39   C     C_1   0.459851 0.840697 0.161501 -0.022128
C40   C     C_1   0.364334 0.659035 0.338272 -0.014354
C41   C     C_1   0.348983 0.620895 0.376074 -0.282336
C42   C     C_1   0.475264 0.879003 0.123830 -0.284334
C43   C     C_R   0.473119 0.161577 0.089054 -0.098542
C44   C     C_R   0.351867 0.338492 0.411033 -0.101323
C45   C     C_R   0.537682 0.276766 0.095007 -0.176277
C46   C     C_R   0.527954 0.219696 0.064504 -0.162760
C47   C     C_R   0.428582 0.160769 0.144980 -0.244044
C48   C     C_R   0.440981 0.218292 0.177479 0.110408
C49   C     C_R   0.496255 0.276559 0.151009 0.184259
C50   C     C_R   0.403409 0.220033 0.235127 0.058582
C51   C     C_R   0.421793 0.280019 0.264974 0.062508
C52   C     C_R   0.476544 0.336230 0.236149 -0.196026
C53   C     C_R   0.512419 0.334354 0.180502 -0.237334
C54   C     C_R   0.348762 0.163815 0.263958 -0.193995
C55   C     C_R   0.312948 0.165687 0.319609 -0.220900
C56   C     C_R   0.329027 0.223488 0.349097 0.171492
C57   C     C_R   0.384176 0.281764 0.322620 0.111067
C58   C     C_R   0.287634 0.223279 0.405101 -0.159717
C59   C     C_R   0.297227 0.280359 0.435596 -0.158180
C60   C     C_R   0.396388 0.339301 0.355106 -0.244544
H17   H     H_    0.554709 0.378872 0.160308 0.133975
H18   H     H_    0.434874 0.385747 0.338253 0.101611
H19   H     H_    0.260467 0.279313 0.478503 0.116399
H20   H     H_    0.270763 0.121161 0.339809 0.146066
H21   H     H_    0.580677 0.321199 0.074842 0.117944
H22   H     H_    0.564724 0.220740 0.021598 0.110801
H23   H     H_    0.389887 0.114337 0.161821 0.104221
H24   H     H_    0.493831 0.382940 0.255434 0.131690
H25   H     H_    0.331576 0.117097 0.244679 0.135738
H26   H     H_    0.244755 0.178838 0.425274 0.132596
O11   O     O_R   0.323320 0.942780 0.056240 -0.581169
O12   O     O_R   0.647300 0.077050 0.046060 -0.591471
O13   O     O_R   0.813840 0.057330 0.943840 -0.591594
C61   C     C_R   0.478616 0.101000 0.056760 0.924737
O14   O     O_R   0.653250 0.944380 0.062400 -0.583923
O15   O     O_R   0.819830 0.923720 0.960300 -0.595178
C62   C     C_R   0.485200 0.924367 0.078243 0.971410
O16   O     O_R   0.317330 0.076390 0.039790 -0.590387
O17   O     O_3   0.483830 0.993470 0.966560 -0.277741
V3    V     V_3+5 0.760140 0.001210 0.006210 1.172898
O18   O     O_R   0.149290 0.922840 0.953850 -0.598559
C63   C     C_R   0.981056 0.898957 0.943267 1.023229
O19   O     O_R   0.143340 0.055500 0.937510 -0.593337
C64   C     C_R   0.973656 0.075509 0.921787 0.972383
V4    V     V_3+5 0.259690 0.998600 0.993650 1.169000
O20   O     O_3   0.986130 0.006520 0.033440 -0.269346
N1    N     N_R   0.755787 0.837706 0.563411 0.230679
O21   O     O_R   0.624729 0.838708 0.525163 -0.373558
O22   O     O_R   0.873499 0.886407 0.567514 -0.382053
O23   O     O_3   0.077873 0.778279 0.991506 -0.633633
C65   C     C_3   0.277912 0.769851 0.998922 -0.214255
H27   H     H_    0.360328 0.808134 0.977316 0.140100
H28   H     H_    0.325933 0.720636 0.985548 0.132578
H29   H     H_    0.311762 0.774247 0.043120 0.169566

loop_
_geom_bond_atom_site_label_1
_geom_bond_atom_site_label_2
_geom_bond_distance
_ccdc_geom_bond_type
C13   C19   1.440590 A    
O15   C63   1.299119 A    
C36   C37   1.405163 A    
C59   H19   1.083620 S    
C31   C64   1.452754 S    
N1    O22   1.301381 A    
C45   C46   1.391051 A    
C4    C6    1.475097 S    
O2    C1    1.304551 A    
C7    C8    1.399594 A    
C45   H21   1.083975 S    
H13   C38   1.083297 S    
C1    O6    1.297770 A    
C5    C63   1.476746 S    
C26   H12   1.083209 S    
C8    O23   1.384256 S    
C47   H23   1.076974 S    
C25   C26   1.405741 A    
C43   C47   1.406638 A    
O13   C64   1.297803 A    
C55   H20   1.084397 S    
C14   C15   1.387830 A    
C16   C17   1.386824 A    
C56   C58   1.403544 A    
O5    C3    1.297808 A    
C18   C19   1.424854 A    
H9    C28   1.083263 S    
C29   C32   1.216426 T    
C33   C34   1.405078 A    
V2    O10   2.149608 S    
C5    C8    1.401749 A    
V3    O20   1.706315 S    
C35   C36   1.407849 A    
C46   H22   1.083618 S    
O23   C65   1.410723 S    
O17   V4    1.701651 S    
C30   C31   1.216425 T    
O8    V2    1.969719 S    
C33   C38   1.407797 A    
C25   H11   1.083265 S    
C34   C39   1.462255 S    
C40   C41   1.219568 T    
C26   C27   1.404446 A    
C17   H4    1.081235 S    
O17   V3    2.152562 S    
O14   V3    1.961012 S    
O1    V2    1.988269 S    
C11   C15   1.393670 A    
C52   H24   1.076094 S    
O7    V1    2.152591 S    
O18   V4    1.991168 S    
C53   H17   1.084398 S    
C23   C28   1.405744 A    
O13   V3    1.955296 S    
O1    C2    1.299067 A    
O9    C4    1.297101 A    
C1    C41   1.458024 S    
C44   C60   1.406632 A    
C23   C24   1.404445 A    
C48   C49   1.419587 A    
C65   H28   1.111868 S    
O11   C62   1.297657 A    
O12   V3    1.995848 S    
O16   V4    1.997229 S    
C27   C28   1.404827 A    
C12   C13   1.436490 A    
O19   V4    1.969940 S    
C2    C44   1.473901 S    
O4    C2    1.296931 A    
C50   C51   1.437926 A    
C15   H1    1.084392 S    
C33   H14   1.083271 S    
C21   H3    1.084145 S    
C51   C52   1.411120 A    
C34   C35   1.406169 A    
C7    C11   1.403186 A    
C47   C48   1.426531 A    
O5    V1    1.955374 S    
C17   C18   1.400773 A    
C50   C54   1.411124 A    
C55   C56   1.393672 A    
C49   C53   1.393667 A    
C65   H27   1.114038 S    
C37   C40   1.462476 S    
O12   C61   1.296956 A    
C19   C22   1.425571 A    
O14   C62   1.304534 A    
C56   C57   1.419582 A    
C6    C22   1.402799 A    
C3    C32   1.452761 S    
O3    C4    1.298719 A    
C7    H5    1.084078 S    
C43   C61   1.473895 S    
C60   H18   1.076975 S    
C37   C38   1.406206 A    
O6    V2    1.960240 S    
O9    V2    1.991083 S    
C54   H25   1.076093 S    
C10   C12   1.439167 A    
O2    V1    1.960817 S    
O15   V3    1.990440 S    
C44   C59   1.395095 A    
C23   H10   1.083209 S    
V4    O20   2.149673 S    
C57   C60   1.426525 A    
C24   C25   1.404826 A    
O19   C64   1.301682 A    
C58   C59   1.391058 A    
C12   C16   1.407902 A    
C48   C50   1.437992 A    
C52   C53   1.387655 A    
C42   C62   1.457666 S    
O11   V4    1.960792 S    
C43   C46   1.395093 A    
O8    C3    1.301697 A    
C39   C42   1.219389 T    
C20   C21   1.397667 A    
C27   C30   1.457229 S    
C13   C14   1.412044 A    
O4    V1    1.995800 S    
O3    V1    1.990644 S    
V1    O10   1.706249 S    
O18   C63   1.296550 A    
C18   C20   1.420465 A    
C9    H6    1.076917 S    
C24   C29   1.457230 S    
C16   H8    1.076145 S    
C65   H29   1.109243 S    
C51   C57   1.437989 A    
C61   O16   1.299055 A    
C22   H2    1.076513 S    
C20   N1    1.437107 S    
O7    V2    1.704428 S    
C35   H15   1.083311 S    
C58   H26   1.083974 S    
C6    C21   1.391552 A    
C5    C9    1.407296 A    
C36   H16   1.083263 S    
C54   C55   1.387661 A    
C45   C49   1.403540 A    
C10   C11   1.417698 A    
C9    C10   1.425972 A    
N1    O21   1.301335 A    
C14   H7    1.075704 S    
