data_mof_unit_15495.cif
_audit_creation_date              2012-12-10T16:50:19-0500
_audit_creation_method            fapswitch 2.2
_symmetry_space_group_name_H-M    P1
_symmetry_Int_Tables_number       1
_space_group_crystal_system       triclinic
_cell_length_a                    23.508086
_cell_length_b                    8.693558
_cell_length_c                    7.461396
_cell_angle_alpha                 103.387841
_cell_angle_beta                  94.150183
_cell_angle_gamma                 92.620734
_cell_volume                      1476.47809042

loop_
_atom_site_label
_atom_site_type_symbol
_atom_type_description
_atom_site_fract_x
_atom_site_fract_y
_atom_site_fract_z
_atom_type_partial_charge
C1    C     C_R   0.498267 0.199577 0.452918 0.887265
C2    C     C_R   0.501736 0.800423 0.547082 0.885259
C3    C     C_R   0.246635 0.534404 0.692544 0.188747
C4    C     C_R   0.756696 0.442490 0.335016 0.140066
C5    C     C_R   0.305711 0.539485 0.681764 -0.276336
C6    C     C_R   0.697246 0.446338 0.332573 -0.189682
C7    C     C_R   0.328682 0.495796 0.510374 -0.104534
C8    C     C_R   0.671440 0.505814 0.495970 -0.110942
C9    C     C_R   0.291785 0.447107 0.348481 -0.190077
C10   C     C_R   0.705723 0.567704 0.660954 -0.258185
C11   C     C_R   0.232587 0.440220 0.357447 0.134113
C12   C     C_R   0.765127 0.567210 0.664979 0.191078
C13   C     C_R   0.209733 0.483753 0.530618 0.341684
C14   C     C_R   0.791003 0.502011 0.502842 0.322449
C15   C     C_2   0.497453 0.031392 0.426765 -0.362542
C16   C     C_2   0.502551 0.968609 0.573235 -0.360791
C17   C     C_R   0.391041 0.499021 0.502600 0.818721
C18   C     C_R   0.608952 0.501882 0.497996 0.818622
C19   C     C_R   0.884847 0.638440 0.544878 0.577714
C20   C     C_R   0.116411 0.347226 0.504637 0.541761
C21   C     C_R   0.876658 0.356189 0.484349 0.538456
C22   C     C_R   0.125018 0.630074 0.580140 0.557571
C23   C     C_R   0.936427 0.349194 0.479753 -0.028571
C24   C     C_R   0.065097 0.637573 0.583005 -0.054625
C25   C     C_R   0.970608 0.493492 0.525598 -0.056691
C26   C     C_R   0.030865 0.492966 0.534471 -0.042240
C27   C     C_R   0.944541 0.638678 0.562366 -0.066604
C28   C     C_R   0.056737 0.347391 0.494559 -0.033750
C29   C     C_R   0.962991 0.203871 0.431283 0.168085
C30   C     C_R   0.037791 0.782638 0.630175 0.124452
C31   C     C_R   0.022737 0.205052 0.440828 -0.194892
C32   C     C_R   0.978327 0.781038 0.617236 -0.146008
Cu1   Cu    Cu3+1 0.506340 0.517380 0.684380 0.955476
Cu2   Cu    Cu3+1 0.493660 0.482620 0.315620 0.953613
H1    H     H_    0.042581 0.093779 0.400769 0.176214
H2    H     H_    0.958595 0.893101 0.653225 0.212852
H3    H     H_    0.333492 0.578639 0.808221 0.169129
H4    H     H_    0.671260 0.399203 0.203791 0.177848
H5    H     H_    0.308820 0.413229 0.214836 0.170492
H6    H     H_    0.686522 0.616972 0.787790 0.168420
H7    H     H_    0.492664 0.958939 0.285983 0.179119
H8    H     H_    0.507340 0.041062 0.714017 0.179719
H9    H     H_    0.454775 0.378949 0.948807 0.225640
H10   H     H_    0.545218 0.621073 0.051194 0.225882
N1    N     N_R   0.852226 0.498692 0.508843 -0.460976
N2    N     N_R   0.148952 0.486784 0.540607 -0.448103
N3    N     N_2   0.484110 0.456420 0.038520 -0.218657
N4    N     N_2   0.515890 0.543580 0.961480 -0.218279
O1    O     O_R   0.504120 0.286130 0.619770 -0.581210
O2    O     O_R   0.495880 0.713870 0.380230 -0.582324
O3    O     O_R   0.493410 0.256770 0.308360 -0.584428
O4    O     O_R   0.506590 0.743230 0.691640 -0.585396
O5    O     O_R   0.423230 0.514630 0.655730 -0.589840
O6    O     O_R   0.576770 0.485370 0.344270 -0.591971
O7    O     O_R   0.412530 0.485280 0.344320 -0.585982
O8    O     O_R   0.587470 0.514720 0.655680 -0.579813
O9    O     O_2   0.859464 0.776871 0.564424 -0.510570
O10   O     O_2   0.141911 0.208678 0.477672 -0.549399
O11   O     O_2   0.843125 0.222848 0.468839 -0.499309
O12   O     O_2   0.159486 0.763520 0.612977 -0.543266
N5    N     N_3   0.929619 0.056049 0.364110 -0.489966
H11   H     H_    0.909741 0.057770 0.234657 0.236020
H12   H     H_    0.955911 0.960855 0.341063 0.207853
N6    N     N_3   0.068461 0.933851 0.696501 -0.569720
H13   H     H_    0.092720 0.957825 0.593285 0.291831
H14   H     H_    0.095012 0.931729 0.814395 0.267208
N7    N     N_3   0.223931 0.581954 0.868220 -0.557814
H15   H     H_    0.236940 0.701202 0.923500 0.242400
H16   H     H_    0.243071 0.517083 0.954899 0.238405
N8    N     N_3   0.781364 0.378391 0.165703 -0.590090
H17   H     H_    0.816592 0.452648 0.155381 0.218741
H18   H     H_    0.796148 0.268007 0.170999 0.263229
N9    N     N_3   0.196325 0.392443 0.188907 -0.593036
H19   H     H_    0.173394 0.286505 0.187744 0.263349
H20   H     H_    0.167372 0.479525 0.184251 0.232331
N10   N     N_3   0.799433 0.632890 0.834238 -0.561416
H21   H     H_    0.785002 0.578380 0.934597 0.229735
H22   H     H_    0.791860 0.753031 0.875349 0.246486

loop_
_geom_bond_atom_site_label_1
_geom_bond_atom_site_label_2
_ccdc_geom_bond_type
C5    H3    S    
N9    H19   S    
C4    N8    S    
C19   O9    S    
Cu1   O4    S    
Cu2   O3    S    
C32   H2    S    
C24   C26   A    
C21   O11   S    
C30   N6    S    
C22   O12   S    
C13   N2    S    
Cu1   O1    S    
C15   C16   D    
C9    H5    S    
C10   H6    S    
N5    H12   S    
C2    O2    A    
C7    C17   S    
C6    H4    S    
N8    H17   S    
C1    C15   S    
C2    C16   S    
C17   O7    A    
C3    C13   A    
C18   O8    A    
Cu1   O8    S    
C17   O5    A    
Cu2   O7    S    
N9    H20   S    
C10   C12   A    
C14   N1    S    
C21   N1    A    
Cu1   O5    S    
C29   N5    S    
Cu2   O2    S    
N7    H15   S    
N10   H21   S    
C15   H7    S    
C4    C6    A    
C11   N9    S    
C5    C7    A    
C6    C8    A    
C20   C28   A    
C25   C26   A    
C8    C18   S    
N7    H16   S    
N6    H14   S    
C1    O3    A    
N3    N4    D    
Cu1   Cu2   S    
C9    C11   A    
C2    O4    A    
C22   N2    A    
C12   C14   A    
Cu2   O6    S    
C12   N10   S    
C22   C24   A    
C20   O10   S    
C23   C29   A    
C19   C27   A    
C7    C9    A    
C27   C32   A    
C16   H8    S    
C28   C31   A    
C3    N7    S    
N10   H22   S    
C3    C5    A    
C19   N1    A    
C25   C27   A    
C26   C28   A    
N6    H13   S    
C21   C23   A    
C29   C31   A    
C30   C32   A    
C11   C13   A    
C1    O1    A    
C31   H1    S    
C23   C25   A    
C4    C14   A    
N5    H11   S    
C24   C30   A    
C18   O6    A    
C8    C10   A    
Cu1   N4    S    
N8    H18   S    
Cu2   N3    S    
H9    N3    S    
C20   N2    A    
H10   N4    S    
