data_mof_unit_19291.cif
_audit_creation_date              2012-12-10T17:22:33-0500
_audit_creation_method            fapswitch 2.2
_symmetry_space_group_name_H-M    P1
_symmetry_Int_Tables_number       1
_space_group_crystal_system       triclinic
_cell_length_a                    18.497571
_cell_length_b                    19.178814
_cell_length_c                    18.970622
_cell_angle_alpha                 109.875411
_cell_angle_beta                  108.841217
_cell_angle_gamma                 109.653132
_cell_volume                      5183.24648814

loop_
_atom_site_label
_atom_site_type_symbol
_atom_type_description
_atom_site_fract_x
_atom_site_fract_y
_atom_site_fract_z
_atom_type_partial_charge
C1    C     C_R   0.377457 0.380421 0.498543 0.917137
C2    C     C_R   0.306773 0.315485 0.567117 -0.074676
C3    C     C_3   0.740228 0.067163 0.593030 -0.740739
C4    C     C_3   0.995723 0.766639 0.550461 -0.702342
C5    C     C_3   0.686104 0.440990 0.403108 -0.652575
C6    C     C_3   0.886756 0.043433 0.921307 -0.806138
C7    C     C_3   0.796981 0.314926 0.619646 -0.722538
C8    C     C_3   0.030355 0.318682 0.481882 -0.709429
C9    C     C_3   0.600661 0.531561 0.971743 -0.524290
C10   C     C_3   0.383636 0.851639 0.411903 -0.620429
C11   C     C_3   0.291483 0.933660 0.588728 -0.686668
C12   C     C_R   0.191059 0.168251 0.484896 -0.062216
C13   C     C_R   0.615555 0.494652 0.619398 0.964476
C14   C     C_R   0.176157 0.167078 0.405038 0.035118
C15   C     C_R   0.236922 0.240332 0.409932 0.063115
C16   C     C_R   0.302641 0.314060 0.491598 -0.066846
C17   C     C_R   0.108029 0.095508 0.320229 0.239122
C18   C     C_R   0.108668 0.096477 0.246716 -0.177026
C19   C     C_R   0.167028 0.168706 0.253034 -0.184685
C20   C     C_R   0.228292 0.240603 0.333030 -0.090181
C21   C     C_3   0.802879 0.490048 0.803878 -0.273012
C22   C     C_R   0.233174 0.504912 0.392729 0.360838
C23   C     C_R   0.195301 0.547701 0.426942 -0.210412
C24   C     C_R   0.145801 0.572253 0.379609 0.163210
C25   C     C_R   0.616679 0.618823 0.494876 0.932477
C26   C     C_R   0.129623 0.546219 0.294113 0.133493
C27   C     C_R   0.185582 0.520021 0.267179 -0.003655
C28   C     C_R   0.245156 0.508037 0.323345 -0.040197
C29   C     C_R   0.185651 0.505883 0.188329 -0.077707
C30   C     C_R   0.252860 0.495846 0.173144 0.055095
C31   C     C_R   0.323207 0.500769 0.237479 0.054636
C32   C     C_3   0.845277 0.565586 0.788090 -0.106236
C33   C     C_R   0.315271 0.501444 0.310837 -0.141930
C34   C     C_R   0.251513 0.482297 0.093946 -0.079809
C35   C     C_R   0.323754 0.489992 0.083934 -0.144684
C36   C     C_R   0.397389 0.505575 0.149780 -0.170279
C37   C     C_R   0.382109 0.502230 0.378865 1.024616
C38   C     C_R   0.397108 0.505613 0.223642 0.226595
C39   C     C_R   0.616133 0.780345 0.519390 0.324683
C40   C     C_R   0.636829 0.865265 0.568722 0.129520
C41   C     C_R   0.715698 0.933191 0.590453 0.200758
C42   C     C_R   0.771150 0.914449 0.562002 -0.254087
C43   C     C_3   0.734492 0.501852 0.832058 0.233895
C44   C     C_R   0.756272 0.829925 0.522543 -0.036903
C45   C     C_R   0.682004 0.762838 0.508498 -0.013389
C46   C     C_R   0.813924 0.811824 0.496086 -0.061029
C47   C     C_R   0.800251 0.727905 0.456296 -0.004541
C48   C     C_R   0.726692 0.660433 0.443611 -0.097233
C49   C     C_3   0.665327 0.390398 0.648840 0.360282
C50   C     C_R   0.674767 0.680687 0.481061 -0.153905
C51   C     C_R   0.856399 0.707259 0.426208 0.140629
C52   C     C_R   0.819663 0.625103 0.356616 0.315741
C53   C     C_R   0.738460 0.561115 0.334484 0.166680
C54   C     C_R   0.347434 0.391403 0.646482 -0.166665
C55   C     C_R   0.711598 0.575758 0.396956 0.147227
C56   C     C_R   0.999398 0.380317 0.878602 0.922754
C57   C     C_R   0.875269 0.497359 0.875129 0.918547
C58   C     C_R   0.001912 0.619805 0.121537 0.901439
C59   C     C_R   0.118125 0.504312 0.121534 1.001474
C60   C     C_R   0.997509 0.877490 0.380268 0.968690
C61   C     C_3   0.753110 0.398989 0.716201 0.488307
C62   C     C_R   0.120759 0.110629 0.491920 1.054415
C63   C     C_R   0.000470 0.120664 0.619245 0.914936
C64   C     C_R   0.880262 0.878806 0.497873 0.928424
C65   C     C_R   0.361020 0.388175 0.721783 0.400606
C66   C     C_R   0.014237 0.396732 0.736444 -0.189136
C67   C     C_R   0.030744 0.410115 0.674458 -0.284140
C68   C     C_R   0.055008 0.359290 0.626809 0.241065
C69   C     C_R   0.057517 0.291999 0.639439 0.361974
C70   C     C_R   0.023969 0.267802 0.690036 -0.030481
C71   C     C_R   0.013095 0.326771 0.747471 0.026054
C72   C     C_R   0.003122 0.188144 0.686565 -0.126822
C73   C     C_3   0.774337 0.555945 0.709795 0.068535
C74   C     C_R   0.983998 0.172070 0.747617 0.039562
C75   C     C_R   0.993013 0.238669 0.817353 -0.005702
C76   C     C_R   0.346931 0.311301 0.720623 0.365674
C77   C     C_R   0.003165 0.314980 0.814621 -0.143040
C78   C     C_R   0.958528 0.091072 0.741819 -0.199694
C79   C     C_R   0.939300 0.075135 0.801326 -0.198492
C80   C     C_R   0.955616 0.142142 0.875219 0.246099
C81   C     C_R   0.991537 0.225309 0.886750 0.314735
C82   C     C_R   0.165187 0.750182 0.297889 0.264780
C83   C     C_R   0.233085 0.805246 0.384298 0.117136
C84   C     C_R   0.230686 0.874853 0.435873 0.093086
C85   C     C_3   0.674144 0.517721 0.768749 0.119978
C86   C     C_R   0.160251 0.886278 0.399557 0.337619
C87   C     C_R   0.304606 0.235799 0.641072 0.356347
C88   C     C_R   0.078937 0.815500 0.327242 -0.085024
C89   C     C_R   0.081996 0.748909 0.269414 -0.095022
C90   C     C_R   0.996667 0.810966 0.312951 -0.161744
C91   C     C_R   0.915819 0.742734 0.236023 0.033957
C92   C     C_R   0.921541 0.685124 0.170802 0.034326
C93   C     C_R   0.002878 0.686372 0.188338 -0.090260
C94   C     C_R   0.828429 0.726641 0.219843 0.369648
C95   C     C_R   0.754067 0.662482 0.141039 -0.201866
C96   C     C_R   0.760724 0.609651 0.075869 0.160697
C97   C     C_3   0.679885 0.487315 0.683401 -0.251656
C98   C     C_R   0.268967 0.237174 0.563225 -0.064986
C99   C     C_R   0.843844 0.623134 0.089615 -0.207913
C100  C     C_3   0.571489 0.283542 0.482848 -0.727146
C101  C     C_3   0.959732 0.719008 0.872866 -0.701422
C102  C     C_3   0.951295 0.008973 0.259316 -0.692532
C103  C     C_3   0.547416 0.246132 0.616574 -0.530646
C104  C     C_3   0.055047 0.580227 0.450704 -0.756927
C105  C     C_3   0.971786 0.459530 0.210161 -0.602796
C106  C     C_3   0.475379 0.430533 0.243131 -0.667127
C107  C     C_3   0.652311 0.472836 0.179858 -0.730749
C108  C     C_3   0.586446 0.883269 0.672135 -0.770310
Cl1   Cl    Cl    0.399804 0.482086 0.816727 -0.552950
Cl2   Cl    Cl    0.199765 0.700079 0.231873 -0.613109
Cl3   Cl    Cl    0.186628 0.990342 0.420915 -0.680681
Cl4   Cl    Cl    0.804620 0.538257 0.627879 -0.727152
Cl5   Cl    Cl    0.796263 0.766322 0.293968 -0.659318
Cl6   Cl    Cl    0.565440 0.481742 0.756687 -0.592615
Cl7   Cl    Cl    0.672127 0.415067 0.843184 -0.484417
Cl8   Cl    Cl    0.381033 0.309243 0.817728 -0.489525
Cl9   Cl    Cl    0.320191 0.149617 0.640629 -0.535052
Cl10  Cl    Cl    0.237686 0.428380 0.421218 -0.696868
Cl11  Cl    Cl    0.731492 0.312002 0.740205 -0.589163
Cl12  Cl    Cl    0.503552 0.702453 0.450908 -0.681059
Cl13  Cl    Cl    0.877432 0.599779 0.303013 -0.747248
Cl14  Cl    Cl    0.132868 0.264473 0.621517 -0.666275
Cl15  Cl    Cl    0.059941 0.309013 0.994190 -0.685098
H1    H     H_    0.770316 0.559134 0.897209 0.085431
H2    H     H_    0.322477 0.483632 0.024523 0.186188
H3    H     H_    0.826985 0.967201 0.572566 0.147667
H4    H     H_    0.001677 0.442219 0.773921 0.178555
H5    H     H_    0.029761 0.463561 0.667374 0.167571
H6    H     H_    0.952298 0.038063 0.691085 0.151957
H7    H     H_    0.916342 0.010847 0.790940 0.162041
H8    H     H_    0.689543 0.650405 0.132822 0.185192
H9    H     H_    0.845358 0.581735 0.035623 0.169894
H10   H     H_    0.898049 0.561495 0.774187 0.233378
H11   H     H_    0.700395 0.588025 0.799493 0.110290
H12   H     H_    0.776730 0.618624 0.726864 0.152510
H13   H     H_    0.704958 0.377714 0.550025 0.300578
H14   H     H_    0.570744 0.289191 0.426385 0.215615
H15   H     H_    0.513105 0.285257 0.485457 0.263473
H16   H     H_    0.566308 0.220900 0.470929 0.220717
H17   H     H_    0.846267 0.668138 0.880685 0.207653
H18   H     H_    0.989222 0.778115 0.935038 0.227445
H19   H     H_    0.935596 0.731577 0.819361 0.241027
H20   H     H_    0.012026 0.702920 0.872581 0.250629
H21   H     H_    0.041529 0.966962 0.276794 0.245050
H22   H     H_    0.900458 0.954087 0.254999 0.258265
H23   H     H_    0.163524 0.169643 0.195294 0.165874
H24   H     H_    0.934015 0.994425 0.192307 0.197755
H25   H     H_    0.948234 0.067089 0.293007 0.240570
H26   H     H_    0.534236 0.349926 0.624570 0.239472
H27   H     H_    0.478531 0.209675 0.562257 0.194546
H28   H     H_    0.544802 0.234335 0.669287 0.304330
H29   H     H_    0.585638 0.220183 0.593640 0.238380
H30   H     H_    0.089128 0.652700 0.391866 0.243514
H31   H     H_    0.987826 0.570709 0.419518 0.277237
H32   H     H_    0.087906 0.625621 0.520813 0.240128
H33   H     H_    0.047770 0.517096 0.440429 0.236754
H34   H     H_    0.364037 0.452685 0.650514 0.231128
H35   H     H_    0.044130 0.588245 0.254117 0.231116
H36   H     H_    0.913042 0.450304 0.158876 0.252485
H37   H     H_    0.961053 0.466894 0.265937 0.238369
H38   H     H_    0.977548 0.401323 0.185092 0.230137
H39   H     H_    0.529856 0.562368 0.303620 0.236716
H40   H     H_    0.527064 0.431275 0.293290 0.255876
H41   H     H_    0.490669 0.424911 0.190285 0.211127
H42   H     H_    0.411554 0.372890 0.217270 0.240957
H43   H     H_    0.734029 0.449809 0.262088 0.264425
H44   H     H_    0.607909 0.404534 0.128474 0.243976
H45   H     H_    0.060972 0.041117 0.183135 0.144852
H46   H     H_    0.701789 0.503600 0.163322 0.279896
H47   H     H_    0.612367 0.504933 0.181989 0.233766
H48   H     H_    0.512241 0.847024 0.545080 0.274299
H49   H     H_    0.568240 0.818157 0.663071 0.257093
H50   H     H_    0.542115 0.902977 0.690101 0.246691
H51   H     H_    0.655452 0.929481 0.725592 0.232804
H52   H     H_    0.708527 0.030951 0.675127 0.262052
H53   H     H_    0.760947 0.134275 0.637248 0.253619
H54   H     H_    0.673306 0.037098 0.537761 0.242753
H55   H     H_    0.788129 0.069103 0.569471 0.241967
H56   H     H_    0.267996 0.296701 0.333037 0.189874
H57   H     H_    0.979302 0.755654 0.433845 0.268719
H58   H     H_    0.066872 0.814705 0.583380 0.228843
H59   H     H_    0.988917 0.703001 0.537100 0.233367
H60   H     H_    0.969425 0.785710 0.594263 0.245777
H61   H     H_    0.742217 0.565848 0.507991 0.291121
H62   H     H_    0.646932 0.416325 0.431119 0.258815
H63   H     H_    0.739505 0.424882 0.414994 0.237542
H64   H     H_    0.641224 0.407841 0.333029 0.209586
H65   H     H_    0.936102 0.175089 0.981757 0.266923
H66   H     H_    0.879321 0.046118 0.977836 0.243211
H67   H     H_    0.453949 0.512335 0.141053 0.150947
H68   H     H_    0.916748 0.002815 0.907090 0.246472
H69   H     H_    0.820326 0.014562 0.865818 0.236412
H70   H     H_    0.878186 0.435949 0.724379 0.205986
H71   H     H_    0.828806 0.288505 0.655123 0.251695
H72   H     H_    0.826242 0.324688 0.578750 0.239769
H73   H     H_    0.725759 0.266787 0.577283 0.258044
H74   H     H_    0.102721 0.442869 0.585299 0.227913
H75   H     H_    0.022655 0.254933 0.469187 0.272094
H76   H     H_    0.964227 0.313182 0.457630 0.209283
H77   H     H_    0.061624 0.339357 0.446131 0.265414
H78   H     H_    0.197289 0.554307 0.486671 0.188400
H79   H     H_    0.680833 0.479230 0.999639 0.275351
H80   H     H_    0.553493 0.474967 0.906329 0.328685
H81   H     H_    0.607528 0.590018 0.968427 0.252433
H82   H     H_    0.573470 0.524206 0.014744 0.204513
H83   H     H_    0.327614 0.798959 0.473181 0.237176
H84   H     H_    0.424721 0.821433 0.406440 0.255731
H85   H     H_    0.424640 0.915494 0.471551 0.213400
H86   H     H_    0.361320 0.860301 0.355208 0.264678
H87   H     H_    0.330520 0.999798 0.529069 0.306551
H88   H     H_    0.353403 0.981727 0.651004 0.257188
H89   H     H_    0.195249 0.466689 0.037955 0.182576
H90   H     H_    0.274044 0.869002 0.580686 0.216736
H91   H     H_    0.237990 0.947282 0.590360 0.266125
N1    N     N_2   0.653788 0.353059 0.560808 -0.284608
N2    N     N_2   0.738924 0.020326 0.638892 -0.296272
N3    N     N_2   0.949214 0.763487 0.470730 -0.267061
N4    N     N_2   0.724813 0.533241 0.444429 -0.269342
N5    N     N_2   0.943434 0.129177 0.941670 -0.271629
N6    N     N_2   0.812450 0.396763 0.680207 -0.309840
N7    N     N_2   0.085296 0.381186 0.573010 -0.259271
N8    N     N_2   0.684793 0.534654 0.001009 -0.292123
N9    N     N_2   0.309480 0.797219 0.414902 -0.251477
N10   N     N_2   0.304633 0.938423 0.519080 -0.293198
N11   N     N_2   0.887533 0.649829 0.864486 -0.299948
N12   N     N_2   0.038614 0.021481 0.305648 -0.280637
N13   N     N_2   0.584402 0.337525 0.647104 -0.230498
N14   N     N_2   0.105850 0.615705 0.414887 -0.302884
N15   N     N_2   0.050449 0.534783 0.234780 -0.286602
N16   N     N_2   0.471405 0.508244 0.280032 -0.279150
N17   N     N_2   0.695427 0.478089 0.261684 -0.309002
N18   N     N_2   0.577117 0.882849 0.593309 -0.308758
O1    O     O_R   0.408690 0.356690 0.448570 -0.664648
O2    O     O_R   0.052500 0.908420 0.460860 -0.612524
O3    O     O_R   0.039610 0.091640 0.448030 -0.610806
O4    O     O_R   0.408090 0.460090 0.551440 -0.577214
O5    O     O_R   0.143600 0.091610 0.551990 -0.531881
O6    O     O_R   0.947500 0.091600 0.539170 -0.638114
O7    O     O_R   0.051490 0.091570 0.643140 -0.590187
O8    O     O_R   0.856400 0.908420 0.448030 -0.568898
O9    O     O_R   0.960390 0.908390 0.552000 -0.634745
O10   O     O_R   0.592400 0.448300 0.540670 -0.604971
O11   O     O_R   0.591800 0.551700 0.643540 -0.603074
O12   O     O_R   0.049540 0.460090 0.906170 -0.652009
O13   O     O_R   0.591910 0.539910 0.448560 -0.621515
O14   O     O_R   0.591310 0.643310 0.551430 -0.597091
O15   O     O_R   0.408200 0.448300 0.356460 -0.627074
O16   O     O_R   0.407600 0.551700 0.459330 -0.552477
O17   O     O_R   0.946100 0.356720 0.906240 -0.570015
O18   O     O_R   0.853530 0.448360 0.905250 -0.529354
O19   O     O_R   0.956970 0.551730 0.905180 -0.639933
O20   O     O_R   0.945170 0.540000 0.088470 -0.640126
O21   O     O_R   0.048600 0.643370 0.088400 -0.563053
O22   O     O_R   0.037740 0.448360 0.089460 -0.580761
O23   O     O_R   0.141170 0.551730 0.089390 -0.590970
O24   O     O_R   0.948510 0.908450 0.356890 -0.593739
Zn1   Zn    Zn3+2 0.500400 0.430960 0.431310 0.913470
Zn2   Zn    Zn3+2 0.499600 0.569040 0.568690 1.048603
Zn3   Zn    Zn3+2 0.928290 0.431030 0.997370 1.053017
Zn4   Zn    Zn3+2 0.066410 0.569060 0.997270 1.022684
Zn5   Zn    Zn3+2 0.930570 0.000030 0.430590 0.996709
Zn6   Zn    Zn3+2 0.069430 0.999990 0.569430 1.052266

loop_
_geom_bond_atom_site_label_1
_geom_bond_atom_site_label_2
_ccdc_geom_bond_type
C48   C55   A    
O23   Zn4   S    
C100  N1    S    
H43   N17   S    
C107  N17   S    
H70   N6    S    
C71   C77   A    
C41   C42   A    
H79   N8    S    
H30   N14   S    
C8    H75   S    
C68   N7    S    
O12   Zn4   S    
C61   N6    S    
C5    H62   S    
O8    Zn5   S    
C80   N5    S    
C38   N16   S    
C54   C65   A    
C105  H36   S    
C51   N3    S    
C3    H54   S    
C73   C97   S    
H17   N11   S    
C65   C76   A    
C99   H9    S    
C23   H78   S    
C83   C84   A    
C36   H67   S    
O22   Zn3   S    
C85   Cl6   S    
C9    H81   S    
C78   H6    S    
C84   C86   A    
C18   C19   A    
H74   N7    S    
C102  H22   S    
C107  H46   S    
C30   C31   A    
C102  H24   S    
C86   C88   A    
C105  H37   S    
C61   Cl11  S    
C1    O4    A    
C103  N13   S    
C39   Cl12  S    
C96   C99   A    
C102  N12   S    
C66   H4    S    
C58   O21   A    
C101  N11   S    
C34   C35   A    
C101  H19   S    
C35   H2    S    
C10   H85   S    
C25   C50   S    
C92   C93   A    
C9    H80   S    
C103  H27   S    
C11   H88   S    
C21   C43   S    
C101  H18   S    
C9    N8    S    
C73   H12   S    
C1    O1    A    
C68   C69   A    
C108  H51   S    
C6    H68   S    
C23   C24   A    
C31   C33   A    
O7    Zn6   S    
C70   C71   A    
C106  H41   S    
C4    H58   S    
C40   N18   S    
C2    C16   A    
C12   C98   A    
C103  H28   S    
C85   H11   S    
C39   C45   A    
H13   N1    S    
C102  H25   S    
C25   O14   A    
C48   C50   A    
C66   C67   A    
C56   O12   A    
O3    Zn5   S    
C22   C28   A    
O24   Zn5   S    
C56   O17   A    
C59   O22   A    
C95   H8    S    
C14   C17   A    
H21   N12   S    
H57   N3    S    
C69   C70   A    
C42   C44   A    
C5    H63   S    
O17   Zn3   S    
C67   C68   A    
C32   H10   S    
H35   N15   S    
O15   Zn1   S    
C94   Cl5   S    
C44   C46   A    
C104  N14   S    
C55   N4    S    
C6    N5    S    
C53   C55   A    
C5    N4    S    
C15   C20   A    
C21   C32   S    
C107  H44   S    
C19   H23   S    
H87   N10   S    
C74   C75   A    
C30   C34   A    
C59   O23   A    
C51   C52   A    
C43   C85   S    
C47   C48   A    
C29   C59   S    
C60   O2    A    
C72   C74   A    
C26   N15   S    
C2    C54   A    
C7    H73   S    
C91   C92   A    
C41   N2    S    
C18   H45   S    
C78   C79   A    
C75   C81   A    
O1    Zn1   S    
C64   O9    A    
C58   O20   A    
C79   H7    S    
C70   C72   A    
C89   C93   A    
C33   C37   S    
C56   C77   S    
C106  N16   S    
C43   Cl7   S    
C35   C36   A    
C105  N15   S    
O20   Zn3   S    
C10   H84   S    
C106  H42   S    
C66   C71   A    
C21   C57   S    
C29   C30   A    
O14   Zn2   S    
C100  H16   S    
C60   O24   A    
O19   Zn4   S    
C12   C62   S    
C52   Cl13  S    
C3    H53   S    
C10   H86   S    
C13   O10   A    
C12   C14   A    
H83   N9    S    
C108  H50   S    
C17   C18   A    
C26   C27   A    
C1    C16   S    
C46   C47   A    
C106  H40   S    
C104  H33   S    
C7    H71   S    
C82   C89   A    
C76   C87   A    
C65   Cl1   S    
H39   N16   S    
C100  H15   S    
C10   N9    S    
C53   N17   S    
O16   Zn2   S    
C7    N6    S    
C103  H29   S    
C40   C41   A    
C11   H90   S    
C28   C33   A    
C82   C83   A    
C96   N8    S    
O9    Zn6   S    
C108  H49   S    
C84   N10   S    
H26   N13   S    
O10   Zn1   S    
C105  H38   S    
C8    H77   S    
C57   O19   A    
C5    H64   S    
C7    H72   S    
C82   Cl2   S    
O18   Zn3   S    
C32   C73   S    
O13   Zn1   S    
C52   C53   A    
C73   Cl4   S    
C108  N18   S    
H65   N5    S    
O5    Zn6   S    
C22   Cl10  S    
H48   N18   S    
C62   O3    A    
C49   N13   S    
C22   C23   A    
C21   C61   S    
C58   C93   S    
C44   C45   A    
C24   C26   A    
C37   O16   A    
C88   C90   A    
C80   C81   A    
C8    H76   S    
C11   N10   S    
C47   C51   A    
C87   Cl9   S    
C81   Cl15  S    
C60   C90   S    
C54   H34   S    
C49   N1    S    
O4    Zn2   S    
C37   O15   A    
C31   C38   A    
C20   H56   S    
C104  H31   S    
H52   N2    S    
C87   C98   A    
C19   C20   A    
C36   C38   A    
C86   Cl3   S    
C3    N2    S    
C83   N9    S    
C2    C98   A    
C9    H82   S    
C67   H5    S    
C91   C94   A    
C63   O7    A    
C101  H20   S    
C49   C61   S    
C90   C91   A    
C13   O11   A    
C27   C29   A    
C69   Cl14  S    
O21   Zn4   S    
C15   C16   A    
C6    H66   S    
H61   N4    S    
C63   C72   S    
C76   Cl8   S    
C4    H60   S    
C13   C97   S    
C94   C95   A    
C34   H89   S    
C64   O8    A    
C85   C97   S    
C100  H14   S    
C42   H3    S    
C11   H91   S    
C49   C97   S    
C79   C80   A    
C39   C40   A    
C104  H32   S    
O2    Zn6   S    
C32   N11   S    
C92   C99   A    
C17   N12   S    
C4    N3    S    
C74   C78   A    
C75   C77   A    
C6    H69   S    
C27   C28   A    
C14   C15   A    
O6    Zn5   S    
C3    H55   S    
C45   C50   A    
C46   C64   S    
C4    H59   S    
C57   O18   A    
C24   N14   S    
C43   H1    S    
O11   Zn2   S    
C95   C96   A    
C8    N7    S    
C88   C89   A    
C63   O6    A    
C62   O5    A    
C107  H47   S    
C25   O13   A    
