data_mof_unit_32825.cif
_audit_creation_date              2012-10-26T19:52:46-0400
_audit_creation_method            fapswitch 2.2
_symmetry_space_group_name_H-M    P1
_symmetry_Int_Tables_number       1
_space_group_crystal_system       triclinic
_cell_length_a                    15.03201
_cell_length_b                    10.817214
_cell_length_c                    9.537732
_cell_angle_alpha                 89.915046
_cell_angle_beta                  90.0442
_cell_angle_gamma                 89.841856
_cell_volume                      1550.8697688

loop_
_atom_site_label
_atom_site_type_symbol
_atom_type_description
_atom_site_fract_x
_atom_site_fract_y
_atom_site_fract_z
_atom_type_partial_charge
C1    C     C_R   0.500928 0.262279 0.499989 0.537205
C2    C     C_R   0.187725 0.390626 0.421650 0.008015
C3    C     C_R   0.232707 0.483012 0.499867 0.002133
C4    C     C_R   0.329108 0.493524 0.499926 0.539901
C5    C     C_R   0.185866 0.567623 0.582006 -0.150555
C6    C     C_R   0.512087 0.063371 0.625317 0.020351
C7    C     C_R   0.508948 0.129126 0.499464 -0.000789
C8    C     C_R   0.518513 0.064519 0.372496 -0.179466
C9    C     C_R   0.519146 0.935728 0.372447 -0.170217
C10   C     C_R   0.509822 0.870745 0.499339 0.006537
C11   C     C_R   0.512457 0.936173 0.625250 0.015789
C12   C     C_R   0.907571 0.569625 0.587051 0.002854
C13   C     C_3   0.452671 0.929199 0.750028 -0.264219
C14   C     C_3   0.452239 0.069589 0.750093 -0.272152
C15   C     C_R   0.538481 0.594806 0.073519 0.154463
C16   C     C_R   0.501468 0.737680 0.499849 0.545242
C17   C     C_R   0.454322 0.413376 0.074542 -0.006323
C18   C     C_R   0.454274 0.413414 0.925596 -0.008633
C19   C     C_R   0.538484 0.594776 0.926160 0.156956
C20   C     C_3   0.633456 0.633818 0.920213 -0.281239
C21   C     C_3   0.633472 0.633843 0.079446 -0.276558
C22   C     C_R   0.671073 0.498873 0.500035 0.566079
C23   C     C_R   0.951257 0.317841 0.330094 -0.131194
C24   C     C_R   0.814993 0.571995 0.587031 -0.190859
C25   C     C_R   0.767440 0.492041 0.500293 -0.003360
C26   C     C_R   0.811657 0.404795 0.415851 0.253612
C27   C     C_R   0.905096 0.401838 0.414844 0.022120
C28   C     C_R   0.953156 0.484272 0.500807 0.016735
C29   C     C_3   0.743607 0.217861 0.409797 -0.116025
C30   C     C_3   0.239266 0.284776 0.352612 -0.277425
C31   C     C_3   0.229205 0.164617 0.435563 -0.447980
C32   C     C_R   0.043672 0.313233 0.332118 -0.153211
C33   C     C_R   0.093301 0.394139 0.417467 0.033100
C34   C     C_R   0.046856 0.481745 0.500652 0.046764
C35   C     C_R   0.093673 0.566773 0.584715 0.009691
C36   C     C_R   0.047702 0.651308 0.669258 -0.128733
C37   C     C_R   0.955188 0.652236 0.671051 -0.122128
Cu1   Cu    Cu3+1 0.500000 0.499980 0.640670 0.929815
Cu2   Cu    Cu3+1 0.500000 0.500020 0.359330 0.949556
H1    H     H_    0.779628 0.637930 0.652235 0.112660
H2    H     H_    0.641091 0.727609 0.874035 0.118955
H3    H     H_    0.677836 0.561873 0.125047 0.180654
H4    H     H_    0.641132 0.727672 0.125195 0.115801
H5    H     H_    0.916107 0.254472 0.262040 0.154535
H6    H     H_    0.074912 0.245904 0.264677 0.114731
H7    H     H_    0.221848 0.635602 0.643385 0.114885
H8    H     H_    0.083391 0.716774 0.734113 0.105540
H9    H     H_    0.920853 0.718215 0.737292 0.107227
H10   H     H_    0.521586 0.112779 0.273037 0.135648
H11   H     H_    0.705789 0.153511 0.341934 0.144475
H12   H     H_    0.522558 0.887776 0.272962 0.132015
H13   H     H_    0.701316 0.239617 0.502240 0.123733
H14   H     H_    0.805192 0.169112 0.444138 0.101368
H15   H     H_    0.267989 0.089997 0.383846 0.140036
H16   H     H_    0.255311 0.177000 0.543638 0.148687
H17   H     H_    0.158635 0.135448 0.441525 0.154923
H18   H     H_    0.218037 0.272183 0.242170 0.126183
H19   H     H_    0.311402 0.302026 0.345772 0.171554
H20   H     H_    0.386742 0.888265 0.725075 0.137061
H21   H     H_    0.486863 0.888617 0.842774 0.133906
H22   H     H_    0.386078 0.110387 0.725207 0.126580
H23   H     H_    0.486165 0.109884 0.842937 0.132226
H24   H     H_    0.418745 0.341877 0.130395 0.101572
H25   H     H_    0.418530 0.342107 0.869853 0.110537
H26   H     H_    0.677798 0.561812 0.875026 0.160222
N1    N     N_R   0.500570 0.500930 0.147930 -0.225645
N2    N     N_R   0.500570 0.500890 0.852020 -0.228982
O1    O     O_R   0.500000 0.319640 0.618810 -0.505943
O2    O     O_R   0.500010 0.319680 0.381230 -0.514014
O3    O     O_R   0.370250 0.499950 0.618800 -0.503646
O4    O     O_R   0.370260 0.499990 0.381220 -0.508725
O5    O     O_R   0.499990 0.680320 0.618770 -0.500132
O6    O     O_R   0.500000 0.680360 0.381190 -0.508105
O7    O     O_R   0.629740 0.500010 0.618780 -0.516982
O8    O     O_R   0.629750 0.500050 0.381200 -0.462892
O9    O     O_3   0.763457 0.325099 0.331568 -0.566495

loop_
_geom_bond_atom_site_label_1
_geom_bond_atom_site_label_2
_ccdc_geom_bond_type
Cu1   O3    S    
C32   H6    S    
C19   C20   S    
C9    H12   S    
C4    O3    A    
C20   H2    S    
C7    C8    A    
C29   O9    S    
C15   C19   A    
C26   C27   A    
C12   C28   A    
C36   C37   A    
Cu1   Cu2   S    
C14   H23   S    
C30   H18   S    
C5    C35   A    
C1    O1    A    
C36   H8    S    
C34   C35   A    
C12   C37   A    
C21   H4    S    
C35   C36   A    
C8    C9    A    
C22   C25   S    
C16   O5    A    
C26   O9    S    
C19   N2    A    
C23   C27   A    
C31   H17   S    
C9    C10   A    
C28   C34   A    
C13   C14   S    
C15   N1    A    
C22   O8    A    
C17   C18   A    
C29   H11   S    
Cu1   O5    S    
C16   O6    A    
C20   H26   S    
C24   C25   A    
C6    C11   A    
C13   H21   S    
C25   C26   A    
C14   H22   S    
C1    O2    A    
C23   H5    S    
C6    C14   S    
C33   C34   A    
Cu2   O2    S    
Cu1   N2    S    
C37   H9    S    
C2    C33   A    
Cu1   O1    S    
Cu2   O8    S    
Cu2   N1    S    
C22   O7    A    
C3    C4    S    
Cu1   O7    S    
C1    C7    S    
C23   C32   A    
C3    C5    A    
C6    C7    A    
C13   H20   S    
C5    H7    S    
C12   C24   A    
C2    C30   S    
C32   C33   A    
C2    C3    A    
C18   N2    A    
C10   C16   S    
C17   H24   S    
C11   C13   S    
C18   H25   S    
C30   C31   S    
C29   H14   S    
C30   H19   S    
C24   H1    S    
Cu2   O6    S    
C31   H15   S    
C17   N1    A    
C10   C11   A    
C21   H3    S    
C15   C21   S    
C20   C21   S    
C27   C28   A    
Cu2   O4    S    
C31   H16   S    
C8    H10   S    
C4    O4    A    
C29   H13   S    
