data_mof_unit_62006.cif
_audit_creation_date              2012-12-10T17:54:11-0500
_audit_creation_method            fapswitch 2.2
_symmetry_space_group_name_H-M    P1
_symmetry_Int_Tables_number       1
_space_group_crystal_system       triclinic
_cell_length_a                    10.4758
_cell_length_b                    11.727643
_cell_length_c                    17.218843
_cell_angle_alpha                 89.999918
_cell_angle_beta                  84.890942
_cell_angle_gamma                 90.0
_cell_volume                      2107.0411284

loop_
_atom_site_label
_atom_site_type_symbol
_atom_type_description
_atom_site_fract_x
_atom_site_fract_y
_atom_site_fract_z
_atom_type_partial_charge
C1    C     C_R   0.500000 0.716660 0.500000 0.910128
C2    C     C_R   0.500000 0.283343 0.500000 0.867518
C3    C     C_1   0.500000 0.838044 0.500000 -0.088635
C4    C     C_1   0.500000 0.161966 0.500000 -0.082784
C5    C     C_1   0.500000 0.940271 0.500000 0.044430
C6    C     C_1   0.500000 0.059743 0.500000 0.056043
C7    C     C_1   0.927916 0.499994 0.499995 0.131727
C8    C     C_1   0.072084 0.499994 0.500005 0.131725
C9    C     C_R   0.482138 0.499153 0.650499 0.905759
C10   C     C_R   0.517861 0.499153 0.349501 0.905754
C11   C     C_R   0.468280 0.489467 0.735230 -0.103347
C12   C     C_R   0.531720 0.489467 0.264770 -0.103349
C13   C     C_R   0.518347 0.573524 0.783343 -0.039816
C14   C     C_R   0.481645 0.573522 0.216658 -0.039816
C15   C     C_R   0.508656 0.556003 0.863949 -0.185551
C16   C     C_R   0.491336 0.556001 0.136051 -0.185550
C17   C     C_R   0.450280 0.457692 0.896758 0.066397
C18   C     C_R   0.549720 0.457694 0.103241 0.066398
C19   C     C_R   0.397264 0.377311 0.849408 -0.131113
C20   C     C_R   0.602742 0.377317 0.150591 -0.131116
C21   C     C_R   0.406356 0.392166 0.769025 0.216195
C22   C     C_R   0.593650 0.392170 0.230974 0.216197
C23   C     C_2   0.445164 0.439149 0.981409 -0.043883
C24   C     C_2   0.554836 0.439153 0.018590 -0.043882
Cu1   Cu    Cu3+1 0.374700 0.500000 0.500000 1.066828
Cu2   Cu    Cu3+1 0.625300 0.500000 0.500000 1.066831
H1    H     H_    0.351821 0.301433 0.874912 0.169224
H2    H     H_    0.648191 0.301441 0.125087 0.169224
H3    H     H_    0.453311 0.619079 0.098215 0.120107
H4    H     H_    0.546676 0.619083 0.901786 0.120107
N1    N     N_1   0.813590 0.500000 0.499990 -0.131219
N2    N     N_1   0.186410 0.500000 0.500010 -0.131219
O1    O     O_R   0.394190 0.662800 0.500010 -0.563449
O2    O     O_R   0.605810 0.337200 0.499990 -0.561099
O3    O     O_R   0.605810 0.662800 0.499990 -0.563449
O4    O     O_R   0.394190 0.337200 0.500010 -0.561099
O5    O     O_R   0.381920 0.500000 0.613600 -0.563407
O6    O     O_R   0.618080 0.500000 0.386400 -0.563405
O7    O     O_R   0.593540 0.500000 0.613600 -0.554923
O8    O     O_R   0.406460 0.500000 0.386400 -0.554925
C25   C     C_2   0.578920 0.681434 0.753420 0.376129
H5    H     H_    0.630972 0.733906 0.791879 0.086009
O9    O     O_2   0.568939 0.715181 0.687199 -0.554417
C26   C     C_2   0.421066 0.681428 0.246581 0.376132
H6    H     H_    0.369001 0.733893 0.208124 0.086008
O10   O     O_2   0.431056 0.715180 0.312799 -0.554416
Br1   Br    Br    0.661195 0.273063 0.292202 -0.491631
Br2   Br    Br    0.338821 0.273055 0.707796 -0.491635
C27   C     C_2   0.685280 0.426573 0.977155 0.356356
H7    H     H_    0.768490 0.451827 0.006356 0.076764
O11   O     O_2   0.701845 0.384074 0.912297 -0.500991
C28   C     C_2   0.314721 0.426561 0.022845 0.356356
H8    H     H_    0.231510 0.451810 0.993643 0.076765
O12   O     O_2   0.298160 0.384062 0.087702 -0.500991

loop_
_geom_bond_atom_site_label_1
_geom_bond_atom_site_label_2
_ccdc_geom_bond_type
C1    C3    S    
C2    C4    S    
C23   C24   D    
C7    C8    S    
C11   C13   A    
C25   H5    S    
Cu1   O1    S    
C10   O6    A    
C21   Br2   S    
Cu1   O5    S    
C2    O2    A    
Cu1   N2    S    
C13   C25   S    
C22   Br1   S    
Cu1   Cu2   S    
C3    C5    T    
C1    O1    A    
Cu2   N1    S    
C16   C18   A    
C28   H8    S    
C25   O9    D    
C9    C11   S    
C23   C28   S    
C17   C23   S    
C10   C12   S    
C18   C24   S    
C4    C6    T    
C19   C21   A    
C12   C14   A    
C18   C20   A    
C13   C15   A    
Cu1   O8    S    
C5    C6    S    
C14   C16   A    
Cu2   O7    S    
C7    N1    T    
C20   C22   A    
Cu1   O4    S    
C11   C21   A    
C8    N2    T    
C12   C22   A    
Cu2   O3    S    
C9    O7    A    
C19   H1    S    
C26   H6    S    
C1    O3    A    
C15   H4    S    
C14   C26   S    
C27   H7    S    
C2    O4    A    
C24   C27   S    
C15   C17   A    
Cu2   O6    S    
C10   O8    A    
C20   H2    S    
C17   C19   A    
C16   H3    S    
Cu2   O2    S    
C26   O10   D    
C28   O12   D    
C27   O11   D    
C9    O5    A    
