data_mof_unit_54927.cif
_audit_creation_date              2012-12-10T17:55:05-0500
_audit_creation_method            fapswitch 2.2
_symmetry_space_group_name_H-M    P1
_symmetry_Int_Tables_number       1
_space_group_crystal_system       triclinic
_cell_length_a                    8.724402
_cell_length_b                    10.820804
_cell_length_c                    9.618406
_cell_angle_alpha                 90.623314
_cell_angle_beta                  98.968634
_cell_angle_gamma                 92.149691
_cell_volume                      896.164450248

loop_
_atom_site_label
_atom_site_type_symbol
_atom_type_description
_atom_site_fract_x
_atom_site_fract_y
_atom_site_fract_z
_atom_type_partial_charge
C1    C     C_R   0.500078 0.262378 0.499570 0.805564
C2    C     C_R   0.499998 0.737623 0.500439 0.809396
C3    C     C_R   0.203737 0.500115 0.463287 0.909977
C4    C     C_R   0.796261 0.499873 0.536720 0.904555
C5    C     C_2   0.036984 0.501141 0.443860 -0.324858
C6    C     C_2   0.963012 0.498837 0.556173 -0.327036
C7    C     C_R   0.507414 0.062807 0.374616 -0.125043
C8    C     C_R   0.492962 0.937199 0.625439 -0.126456
C9    C     C_R   0.507495 0.934994 0.375131 -0.169085
C10   C     C_R   0.492892 0.065012 0.624923 -0.169352
C11   C     C_R   0.500206 0.871643 0.500553 -0.018159
C12   C     C_R   0.500069 0.128362 0.499484 -0.021845
C13   C     C_R   0.385196 0.435290 0.052748 0.506113
C14   C     C_R   0.614693 0.564835 0.947195 0.447356
C15   C     C_R   0.387750 0.436967 0.905963 -0.132144
C16   C     C_R   0.612406 0.562855 0.094027 -0.168720
Cu1   Cu    Cu3+1 0.500000 0.500020 0.640660 1.032368
Cu2   Cu    Cu3+1 0.500000 0.499980 0.359340 1.035217
H1    H     H_    0.974773 0.504366 0.337073 0.222758
H2    H     H_    0.025198 0.495616 0.662977 0.220996
H3    H     H_    0.513372 0.109953 0.276716 0.177573
H4    H     H_    0.487035 0.890055 0.723348 0.173364
H5    H     H_    0.513512 0.886126 0.277358 0.162332
H6    H     H_    0.486924 0.113880 0.722703 0.170168
H7    H     H_    0.298240 0.388641 0.833019 0.211609
H8    H     H_    0.702113 0.611015 0.166937 0.202659
N1    N     N_R   0.500040 0.500030 0.852080 -0.254519
N2    N     N_R   0.499960 0.499970 0.147920 -0.253066
O1    O     O_R   0.499990 0.319660 0.618740 -0.601887
O2    O     O_R   0.500010 0.680340 0.381260 -0.601008
O3    O     O_R   0.499990 0.319630 0.381170 -0.547412
O4    O     O_R   0.500010 0.680370 0.618830 -0.547690
O5    O     O_R   0.274840 0.500010 0.591370 -0.603740
O6    O     O_R   0.725160 0.499990 0.408630 -0.603657
O7    O     O_R   0.274830 0.499980 0.353800 -0.499570
O8    O     O_R   0.725170 0.500020 0.646200 -0.505003
S1    S     S_3+6 0.216962 0.354333 0.095486 0.021179
O9    O     O_2   0.247067 0.278417 0.225365 -0.291037
O10   O     O_2   0.096836 0.446870 0.112228 -0.262379
O11   O     O_3   0.142187 0.257183 0.962069 -0.566732
H9    H     H_    0.037750 0.231317 0.981957 0.384675
S2    S     S_3+6 0.782355 0.646635 0.904272 0.036393
O12   O     O_2   0.903705 0.554973 0.888589 -0.228646
O13   O     O_2   0.753173 0.721588 0.773563 -0.295252
O14   O     O_3   0.857067 0.744531 0.036911 -0.522645
H10   H     H_    0.779806 0.809419 0.036369 0.332691

loop_
_geom_bond_atom_site_label_1
_geom_bond_atom_site_label_2
_ccdc_geom_bond_type
C16   N2    A    
C8    H4    S    
C4    O8    A    
C13   N2    A    
S1    O9    D    
C5    H1    S    
Cu1   O8    S    
C14   N1    A    
C6    H2    S    
Cu2   O7    S    
C15   N1    A    
C13   C15   A    
C3    O7    A    
C14   S2    S    
C1    O1    A    
Cu1   Cu2   S    
S2    O13   D    
Cu2   N2    S    
S1    O10   D    
O14   H10   S    
C9    C11   A    
C7    C12   A    
C1    C12   S    
Cu1   O5    S    
C8    C11   A    
Cu2   O2    S    
C2    C11   S    
C10   C12   A    
C8    C10   A    
O11   H9    S    
S1    O11   S    
C14   C16   A    
Cu2   O6    S    
C16   H8    S    
C5    C6    D    
C4    O6    A    
C15   H7    S    
C4    C6    S    
C2    O2    A    
C3    O5    A    
Cu1   N1    S    
C1    O3    A    
Cu1   O1    S    
C2    O4    A    
S2    O12   D    
C7    C9    A    
Cu1   O4    S    
C9    H5    S    
Cu2   O3    S    
C10   H6    S    
C7    H3    S    
C13   S1    S    
C3    C5    S    
S2    O14   S    
