data_mof_unit_22468.cif
_audit_creation_date              2012-12-10T19:03:08-0500
_audit_creation_method            fapswitch 2.2
_symmetry_space_group_name_H-M    P1
_symmetry_Int_Tables_number       1
_space_group_crystal_system       triclinic
_cell_length_a                    10.938388
_cell_length_b                    10.870315
_cell_length_c                    9.553916
_cell_angle_alpha                 90.236178
_cell_angle_beta                  89.981607
_cell_angle_gamma                 89.726224
_cell_volume                      1135.97349753

loop_
_atom_site_label
_atom_site_type_symbol
_atom_type_description
_atom_site_fract_x
_atom_site_fract_y
_atom_site_fract_z
_atom_type_partial_charge
C1    C     C_R   0.496488 0.262662 0.499391 0.839111
C2    C     C_3   0.879224 0.491045 0.498186 -0.166517
C3    C     C_3   0.930074 0.614492 0.568898 0.484650
C4    C     C_3   0.931511 0.493782 0.346175 -0.438861
C5    C     C_R   0.519893 0.065163 0.620666 0.134812
C6    C     C_R   0.498888 0.129587 0.497567 -0.054047
C7    C     C_R   0.483533 0.063515 0.372347 -0.193924
C8    C     C_R   0.478719 0.935400 0.374755 -0.107056
C9    C     C_R   0.491766 0.871298 0.501629 -0.030693
C10   C     C_R   0.516555 0.938561 0.624152 0.052662
C11   C     C_3   0.458378 0.943516 0.767772 0.210867
C12   C     C_R   0.260045 0.496433 0.501396 0.814128
C13   C     C_3   0.463898 0.082519 0.760854 -0.552290
C14   C     C_R   0.536548 0.601808 0.075608 0.100125
C15   C     C_R   0.453589 0.404195 0.073850 -0.049709
C16   C     C_R   0.454292 0.403953 0.925427 0.001274
C17   C     C_R   0.539890 0.600779 0.927615 0.295100
C18   C     C_3   0.667548 0.650819 0.931714 0.008810
C19   C     C_3   0.658884 0.659248 0.089681 0.200009
C20   C     C_R   0.492819 0.737533 0.500712 0.914214
C21   C     C_R   0.740421 0.493977 0.499339 0.937982
C22   C     C_3   0.072061 0.386428 0.604267 0.193088
C23   C     C_3   0.933003 0.363801 0.564356 0.617099
C24   C     C_3   0.072622 0.618279 0.561978 0.274301
C25   C     C_3   0.072394 0.479566 0.353470 -0.515780
C26   C     C_3   0.122419 0.494157 0.507767 -0.199639
Cu1   Cu    Cu3+1 0.499990 0.499980 0.640670 1.092387
Cu2   Cu    Cu3+1 0.500010 0.500020 0.359330 1.003198
H1    H     H_    0.906705 0.579133 0.290328 0.241849
H2    H     H_    0.105922 0.688365 0.486584 0.157496
H3    H     H_    0.470008 0.110421 0.273718 0.164258
H4    H     H_    0.460452 0.887042 0.278005 0.172223
H5    H     H_    0.516413 0.908105 0.853107 0.170730
H6    H     H_    0.373588 0.129715 0.755355 0.226903
H7    H     H_    0.529572 0.122930 0.836790 0.196470
H8    H     H_    0.416761 0.325869 0.128667 0.149291
H9    H     H_    0.125174 0.303582 0.571619 0.057655
H10   H     H_    0.417052 0.326053 0.870059 0.160525
H11   H     H_    0.737219 0.583173 0.898956 0.199417
H12   H     H_    0.726965 0.600848 0.144428 0.146339
H13   H     H_    0.112972 0.550034 0.283350 0.240733
H14   H     H_    0.099866 0.388102 0.310877 0.244104
H15   H     H_    0.892285 0.419917 0.279191 0.250864
N1    N     N_R   0.500800 0.500930 0.147930 -0.218907
N2    N     N_R   0.500800 0.500890 0.852020 -0.199315
O1    O     O_R   0.500000 0.319640 0.618810 -0.580751
O2    O     O_R   0.500010 0.319680 0.381230 -0.610133
O3    O     O_R   0.317690 0.499960 0.618790 -0.483777
O4    O     O_R   0.317700 0.500000 0.381210 -0.604442
O5    O     O_R   0.499990 0.680320 0.618770 -0.540213
O6    O     O_R   0.500000 0.680360 0.381190 -0.560967
O7    O     O_R   0.682300 0.500000 0.618790 -0.535205
O8    O     O_R   0.682310 0.500040 0.381210 -0.586285
S1    S     S_3+6 0.103467 0.394264 0.795507 0.097780
O9    O     O_2   0.127055 0.265432 0.845639 -0.267523
O10   O     O_2   0.212477 0.468615 0.836383 -0.214886
O11   O     O_3   0.987795 0.454665 0.888484 -0.402958
H16   H     H_    0.005848 0.433738 0.987204 0.364021
S2    S     S_3+6 0.876801 0.758810 0.487182 -0.012496
O12   O     O_2   0.948423 0.789710 0.357683 -0.252088
O13   O     O_2   0.744825 0.751380 0.447368 -0.321690
O14   O     O_3   0.895102 0.874779 0.602590 -0.466836
H17   H     H_    0.813020 0.890174 0.643013 0.379416
S3    S     S_3+6 0.305900 0.886775 0.777089 0.022644
O15   O     O_2   0.312593 0.754267 0.819994 -0.210480
O16   O     O_2   0.234727 0.957313 0.885791 -0.229089
O17   O     O_3   0.235618 0.899291 0.621112 -0.530413
H18   H     H_    0.228169 0.988904 0.604554 0.360055
O18   O     O_3   0.676791 0.765012 0.865764 -0.746880
H19   H     H_    0.758772 0.797419 0.890173 0.378616
O19   O     O_3   0.654160 0.780120 0.143250 -0.616888
H20   H     H_    0.587221 0.825602 0.095612 0.338029
O20   O     O_3   0.933482 0.274820 0.455250 -0.736403
H21   H     H_    0.969501 0.196654 0.490229 0.366591
S4    S     S_3+6 0.839751 0.287309 0.697935 0.072437
O21   O     O_2   0.736508 0.226601 0.622067 -0.311030
O22   O     O_2   0.912181 0.186560 0.766527 -0.207797
O23   O     O_3   0.779338 0.377819 0.822638 -0.504808
H22   H     H_    0.725567 0.323283 0.877849 0.349780
O24   O     O_3   0.122213 0.650476 0.692060 -0.546546
H23   H     H_    0.090046 0.733522 0.715684 0.420861
O25   O     O_3   0.894972 0.615191 0.709543 -0.653684
H24   H     H_    0.815835 0.658122 0.713367 0.358104

loop_
_geom_bond_atom_site_label_1
_geom_bond_atom_site_label_2
_ccdc_geom_bond_type
Cu1   O3    S    
Cu2   O2    S    
O20   H21   S    
C19   O19   S    
C12   O3    A    
C12   O4    A    
C7    C8    A    
C22   S1    S    
C23   O20   S    
C15   N1    A    
C13   H7    S    
C20   O6    A    
C5    C6    A    
Cu2   O6    S    
C1    O1    A    
C15   C16   A    
C18   C19   S    
C18   H11   S    
C20   O5    A    
C24   O24   S    
C8    C9    A    
C9    C10   A    
C5    C13   S    
C4    H1    S    
Cu1   O5    S    
Cu1   N2    S    
C18   O18   S    
S2    O12   D    
C14   C17   A    
C3    C24   S    
C2    C21   S    
O17   H18   S    
C4    C25   S    
S1    O10   D    
S2    O13   D    
C7    H3    S    
C1    C6    S    
C8    H4    S    
S3    O17   S    
C11   H5    S    
C11   S3    S    
C10   C11   S    
C25   H13   S    
O23   H22   S    
C1    O2    A    
C25   C26   S    
C22   H9    S    
Cu2   N1    S    
C17   N2    A    
C12   C26   S    
S3    O16   D    
C16   N2    A    
C2    C4    S    
S4    O21   D    
O14   H17   S    
Cu2   O4    S    
C9    C20   S    
C3    O25   S    
C17   C18   S    
S4    O22   D    
Cu1   O1    S    
C15   H8    S    
C2    C23   S    
C23   S4    S    
Cu1   O7    S    
C14   N1    A    
S1    O9    D    
S2    O14   S    
C14   C19   S    
C24   C26   S    
O24   H23   S    
C25   H14   S    
Cu2   O8    S    
C6    C7    A    
C4    H15   S    
S3    O15   D    
C2    C3    S    
C13   H6    S    
C21   O8    A    
C11   C13   S    
O11   H16   S    
O18   H19   S    
S4    O23   S    
C24   H2    S    
C19   H12   S    
C5    C10   A    
O19   H20   S    
O25   H24   S    
C22   C26   S    
Cu1   Cu2   S    
C22   C23   S    
C21   O7    A    
C16   H10   S    
S1    O11   S    
C3    S2    S    
