data_mof_unit_24881.cif
_audit_creation_date              2012-12-10T19:44:56-0500
_audit_creation_method            fapswitch 2.2
_symmetry_space_group_name_H-M    P1
_symmetry_Int_Tables_number       1
_space_group_crystal_system       triclinic
_cell_length_a                    15.080416
_cell_length_b                    10.832998
_cell_length_c                    13.678179
_cell_angle_alpha                 90.057821
_cell_angle_beta                  89.86711
_cell_angle_gamma                 89.728197
_cell_volume                      2234.51866579

loop_
_atom_site_label
_atom_site_type_symbol
_atom_type_description
_atom_site_fract_x
_atom_site_fract_y
_atom_site_fract_z
_atom_type_partial_charge
C1    C     C_R   0.497567 0.262139 0.499760 0.795761
C2    C     C_R   0.502433 0.737861 0.500240 0.795761
C3    C     C_R   0.045803 0.482380 0.677644 -0.214568
C4    C     C_R   0.954197 0.517618 0.322355 -0.214567
C5    C     C_R   0.305251 0.249890 0.262431 -0.116892
C6    C     C_R   0.694751 0.750109 0.737566 -0.116892
C7    C     C_R   0.343011 0.190980 0.343303 -0.095838
C8    C     C_R   0.656990 0.809020 0.656694 -0.095838
C9    C     C_R   0.420964 0.120579 0.332349 0.124570
C10   C     C_R   0.579037 0.879420 0.667650 0.124569
C11   C     C_R   0.459383 0.108010 0.239161 -0.160743
C12   C     C_R   0.540620 0.891990 0.760838 -0.160743
C13   C     C_R   0.421343 0.167061 0.158526 -0.138657
C14   C     C_R   0.578661 0.832939 0.841473 -0.138657
C15   C     C_R   0.344626 0.238472 0.170239 -0.113106
C16   C     C_R   0.655377 0.761528 0.829758 -0.113107
C17   C     C_R   0.468761 0.933346 0.419853 -0.239534
C18   C     C_R   0.531239 0.066654 0.580147 -0.239534
C19   C     C_R   0.504331 0.871729 0.500759 -0.081846
C20   C     C_R   0.495669 0.128271 0.499241 -0.081845
C21   C     C_R   0.536878 0.938833 0.581708 -0.000268
C22   C     C_R   0.463122 0.061167 0.418292 -0.000268
C23   C     C_R   0.328444 0.500131 0.500090 0.810517
C24   C     C_R   0.671555 0.499869 0.499910 0.810518
C25   C     C_R   0.557164 0.424128 0.793051 0.006058
C26   C     C_R   0.442836 0.575872 0.206949 0.006058
C27   C     C_R   0.442913 0.575906 0.793441 0.029003
C28   C     C_R   0.557087 0.424094 0.206559 0.029003
C29   C     C_R   0.441606 0.577833 0.896547 -0.006897
C30   C     C_R   0.558394 0.422167 0.103453 -0.006897
C31   C     C_R   0.500015 0.500012 0.948161 0.082689
C32   C     C_R   0.499984 0.499988 0.051839 0.082689
C33   C     C_R   0.558453 0.422208 0.896149 -0.008357
C34   C     C_R   0.441547 0.577792 0.103851 -0.008357
C35   C     C_R   0.383663 0.655528 0.949019 -0.220690
C36   C     C_R   0.616337 0.344472 0.050981 -0.220692
C37   C     C_R   0.383598 0.655461 0.051765 -0.216925
C38   C     C_R   0.616402 0.344539 0.948234 -0.216926
C39   C     C_R   0.814903 0.508544 0.411199 -0.250831
C40   C     C_R   0.185097 0.491458 0.588801 -0.250831
C41   C     C_R   0.768374 0.499636 0.499825 -0.074970
C42   C     C_R   0.231626 0.500364 0.500175 -0.074968
C43   C     C_R   0.814539 0.490400 0.588460 -0.263062
C44   C     C_R   0.185461 0.509597 0.411539 -0.263060
C45   C     C_R   0.906891 0.490777 0.589180 0.109857
C46   C     C_R   0.093109 0.509221 0.410819 0.109856
C47   C     C_R   0.953523 0.499890 0.499957 0.063823
C48   C     C_R   0.046477 0.500110 0.500043 0.063822
C49   C     C_R   0.907295 0.508705 0.410642 0.108544
C50   C     C_R   0.092704 0.491295 0.589358 0.108544
C51   C     C_R   0.953350 0.482116 0.677555 -0.220128
C52   C     C_R   0.046650 0.517880 0.322444 -0.220125
Cu1   Cu    Cu3+1 0.500010 0.499980 0.597420 0.942382
Cu2   Cu    Cu3+1 0.499990 0.500020 0.402580 0.942382
H1    H     H_    0.779354 0.515620 0.342594 0.154064
H2    H     H_    0.220646 0.484383 0.657407 0.154064
H3    H     H_    0.442434 0.881570 0.358582 0.152906
H4    H     H_    0.557566 0.118430 0.641418 0.152905
H5    H     H_    0.601669 0.364943 0.751879 0.122361
H6    H     H_    0.398331 0.635057 0.248121 0.122361
H7    H     H_    0.398631 0.635388 0.752575 0.125794
H8    H     H_    0.601369 0.364612 0.247425 0.125794
H9    H     H_    0.338431 0.716355 0.910615 0.137118
H10   H     H_    0.661568 0.283645 0.089385 0.137118
H11   H     H_    0.338265 0.716181 0.090465 0.137931
H12   H     H_    0.661735 0.283819 0.909535 0.137931
H13   H     H_    0.778724 0.482493 0.656978 0.149348
H14   H     H_    0.221276 0.517501 0.343021 0.149347
H15   H     H_    0.918185 0.475183 0.746504 0.138797
H16   H     H_    0.081815 0.524809 0.253493 0.138795
H17   H     H_    0.080617 0.475600 0.746665 0.140985
H18   H     H_    0.919383 0.524395 0.253334 0.140984
H19   H     H_    0.315665 0.284841 0.107863 0.125220
H20   H     H_    0.684340 0.715158 0.892134 0.125220
H21   H     H_    0.245513 0.304495 0.271212 0.121884
H22   H     H_    0.754489 0.695504 0.728784 0.121885
H23   H     H_    0.312206 0.201190 0.414493 0.104052
H24   H     H_    0.687793 0.798809 0.585504 0.104051
H25   H     H_    0.451737 0.158261 0.087073 0.137382
H26   H     H_    0.548269 0.841739 0.912926 0.137382
N1    N     N_R   0.499960 0.499900 0.743810 -0.179708
N2    N     N_R   0.500040 0.500100 0.256190 -0.179709
O1    O     O_R   0.500000 0.319630 0.582270 -0.590360
O2    O     O_R   0.500000 0.680370 0.417730 -0.590360
O3    O     O_R   0.499990 0.319660 0.417730 -0.572162
O4    O     O_R   0.500010 0.680340 0.582270 -0.572162
O5    O     O_R   0.370260 0.499960 0.582280 -0.591743
O6    O     O_R   0.629740 0.500040 0.417720 -0.591743
O7    O     O_R   0.370250 0.499990 0.417740 -0.588012
O8    O     O_R   0.629750 0.500010 0.582260 -0.588012
H27   H     H_    0.519444 0.054150 0.229340 0.124253
H28   H     H_    0.480559 0.945851 0.770661 0.124253

loop_
_geom_bond_atom_site_label_1
_geom_bond_atom_site_label_2
_ccdc_geom_bond_type
C8    H24   S    
C13   H25   S    
C27   C29   A    
C18   C21   A    
C2    O2    A    
Cu2   N2    S    
Cu2   O2    S    
C47   C49   A    
Cu1   Cu2   S    
C23   C42   S    
C4    C52   A    
C16   H20   S    
C35   C37   A    
C9    C22   S    
C45   C51   A    
C34   C37   A    
C46   C52   A    
Cu1   N1    S    
C27   H7    S    
C26   C34   A    
C39   H1    S    
C31   C32   A    
C40   H2    S    
C37   H11   S    
C23   O7    A    
Cu1   O4    S    
C14   H26   S    
C7    H23   S    
C48   C50   A    
C26   N2    A    
C23   O5    A    
C25   N1    A    
C24   C41   S    
C41   C43   A    
C42   C44   A    
C3    C50   A    
C44   C46   A    
C45   C47   A    
C10   C21   S    
C1    O3    A    
C46   C48   A    
C28   N2    A    
C38   H12   S    
C27   N1    A    
Cu2   O7    S    
C39   C41   A    
C5    C7    A    
C3    C51   A    
C6    C8    A    
C32   C34   A    
C5    H21   S    
C3    H17   S    
C24   O6    A    
C47   C48   A    
C29   C31   A    
C31   C33   A    
Cu1   O5    S    
C9    C11   A    
C10   C12   A    
C43   H13   S    
C39   C49   A    
C20   C22   A    
C13   C15   A    
C14   C16   A    
C44   H14   S    
C4    H18   S    
C7    C9    A    
C1    C20   S    
C15   H19   S    
C2    C19   S    
C12   H28   S    
C17   C22   A    
C12   C14   A    
C40   C42   A    
C24   O8    A    
Cu2   O3    S    
C6    H22   S    
C1    O1    A    
C51   H15   S    
C29   C35   A    
C33   C38   A    
C30   C36   A    
C4    C49   A    
Cu1   O1    S    
Cu2   O6    S    
C36   C38   A    
C43   C45   A    
C30   C32   A    
C11   C13   A    
C40   C50   A    
C28   C30   A    
C17   C19   A    
C18   H4    S    
C2    O4    A    
C18   C20   A    
C5    C15   A    
C52   H16   S    
C6    C16   A    
C11   H27   S    
C8    C10   A    
C25   C33   A    
Cu1   O8    S    
C35   H9    S    
C25   H5    S    
C36   H10   S    
C26   H6    S    
C17   H3    S    
C19   C21   A    
C28   H8    S    
