data_mof_unit_68410.cif
_audit_creation_date              2012-10-26T19:44:25-0400
_audit_creation_method            fapswitch 2.2
_symmetry_space_group_name_H-M    P1
_symmetry_Int_Tables_number       1
_space_group_crystal_system       triclinic
_cell_length_a                    11.304111
_cell_length_b                    11.850186
_cell_length_c                    10.385124
_cell_angle_alpha                 89.987384
_cell_angle_beta                  90.226691
_cell_angle_gamma                 89.999576
_cell_volume                      1391.13685735

loop_
_atom_site_label
_atom_site_type_symbol
_atom_type_description
_atom_site_fract_x
_atom_site_fract_y
_atom_site_fract_z
_atom_type_partial_charge
C1    C     C_R   0.499995 0.283000 0.500011 0.527415
C2    C     C_R   0.500038 0.717058 0.499989 0.481681
C3    C     C_1   0.500010 0.161654 0.500029 -0.051131
C4    C     C_3   0.077900 0.451441 0.628764 -0.041062
C5    C     C_3   0.067970 0.457655 0.365113 -0.044937
C6    C     C_3   0.931999 0.457612 0.634831 -0.045022
C7    C     C_3   0.922071 0.451557 0.371170 -0.041028
C8    C     C_1   0.500029 0.059827 0.500020 -0.053725
C9    C     C_3   0.075502 0.661721 0.506536 -0.034103
C10   C     C_3   0.924591 0.661773 0.493416 -0.034203
C11   C     C_1   0.120162 0.508339 0.748977 0.197122
C12   C     C_3   0.121872 0.520807 0.498522 -0.036946
C13   C     C_1   0.110822 0.529237 0.256004 0.209274
C14   C     C_1   0.889075 0.529225 0.743850 0.209592
C15   C     C_1   0.879757 0.508574 0.251008 0.197327
C16   C     C_R   0.143511 0.329534 0.652538 0.011386
C17   C     C_R   0.120955 0.230878 0.581509 -0.135681
C18   C     C_R   0.166591 0.124459 0.611809 -0.124584
C19   C     C_R   0.246608 0.111915 0.711535 -0.106555
C20   C     C_R   0.282687 0.206218 0.778821 -0.120662
C21   C     C_R   0.233808 0.311524 0.750567 -0.049560
C22   C     C_R   0.120160 0.345874 0.302376 0.014785
C23   C     C_3   0.878136 0.520846 0.501431 -0.036991
C24   C     C_R   0.230104 0.295623 0.336458 -0.049605
C25   C     C_R   0.289835 0.221941 0.254049 -0.102533
C26   C     C_R   0.243726 0.196004 0.134067 -0.123631
C27   C     C_R   0.133682 0.236353 0.099460 -0.116356
C28   C     C_R   0.072110 0.308530 0.181657 -0.075737
C29   C     C_R   0.879770 0.345861 0.697681 0.014772
C30   C     C_R   0.769830 0.295596 0.663619 -0.049516
C31   C     C_R   0.710100 0.221915 0.746063 -0.102352
C32   C     C_R   0.756167 0.196055 0.866097 -0.123633
C33   C     C_R   0.866214 0.236397 0.900683 -0.116507
C34   C     C_1   0.500057 0.838756 0.499978 -0.061288
C35   C     C_R   0.927817 0.308525 0.818420 -0.075824
C36   C     C_R   0.856474 0.329680 0.347404 0.011484
C37   C     C_R   0.878992 0.231107 0.418591 -0.135707
C38   C     C_R   0.833229 0.124688 0.388577 -0.124598
C39   C     C_R   0.753197 0.112080 0.288876 -0.106503
C40   C     C_R   0.717277 0.206317 0.221303 -0.120552
C41   C     C_R   0.766269 0.311621 0.249306 -0.049582
C42   C     C_R   0.129583 0.716931 0.638098 0.012053
C43   C     C_R   0.250888 0.743729 0.640928 -0.038828
C44   C     C_R   0.308914 0.796314 0.744069 -0.097540
C45   C     C_1   0.500052 0.940582 0.499995 -0.047452
C46   C     C_R   0.247305 0.824447 0.853688 -0.111573
C47   C     C_R   0.128753 0.798140 0.860262 -0.077436
C48   C     C_R   0.072002 0.743596 0.757422 -0.069151
C49   C     C_R   0.132972 0.753123 0.404266 -0.015841
C50   C     C_R   0.239780 0.737165 0.334554 -0.096959
C51   C     C_R   0.296670 0.819365 0.261707 -0.106771
C52   C     C_R   0.251346 0.926443 0.254558 -0.106731
C53   C     C_R   0.145735 0.949809 0.315002 -0.125288
C54   C     C_R   0.088337 0.865989 0.386184 -0.121442
C55   C     C_R   0.867205 0.753185 0.595698 -0.015719
C56   C     C_R   0.259426 0.511519 0.499523 0.498191
C57   C     C_R   0.912051 0.865945 0.614051 -0.121405
C58   C     C_R   0.854961 0.949623 0.685707 -0.125410
C59   C     C_R   0.749404 0.926250 0.746261 -0.106811
C60   C     C_R   0.703676 0.819364 0.738490 -0.106441
C61   C     C_R   0.760261 0.737326 0.665169 -0.096827
C62   C     C_R   0.870557 0.717096 0.361879 0.012100
C63   C     C_R   0.928175 0.743942 0.242612 -0.069134
C64   C     C_R   0.871462 0.798723 0.139881 -0.077524
C65   C     C_R   0.752886 0.824944 0.146430 -0.111448
C66   C     C_R   0.691213 0.796484 0.255912 -0.097520
C67   C     C_R   0.740576 0.511528 0.500462 0.497902
C68   C     C_R   0.749223 0.743760 0.358993 -0.038914
C69   C     C_1   0.499990 0.499984 0.071824 0.115783
C70   C     C_1   0.500010 0.499985 0.928176 0.115849
Cu1   Cu    Cu3+1 0.500000 0.500000 0.625300 0.964257
Cu2   Cu    Cu3+1 0.500000 0.500000 0.374700 0.964218
H1    H     H_    0.083949 0.235013 0.490523 0.115936
H2    H     H_    0.992645 0.345232 0.142600 0.128242
H3    H     H_    0.728368 0.310876 0.572534 0.153583
H4    H     H_    0.626375 0.185521 0.718386 0.124810
H5    H     H_    0.707242 0.143125 0.931911 0.089616
H6    H     H_    0.900735 0.215101 0.994508 0.109266
H7    H     H_    0.007311 0.345177 0.857435 0.128324
H8    H     H_    0.916106 0.235408 0.509486 0.116045
H9    H     H_    0.854956 0.052796 0.447926 0.120180
H10   H     H_    0.714059 0.030904 0.268854 0.120103
H11   H     H_    0.649583 0.198576 0.147839 0.097197
H12   H     H_    0.144780 0.052495 0.552662 0.119986
H13   H     H_    0.727607 0.378054 0.192408 0.161264
H14   H     H_    0.300555 0.723484 0.559859 0.133214
H15   H     H_    0.401917 0.816374 0.739223 0.119266
H16   H     H_    0.291499 0.865340 0.933745 0.098106
H17   H     H_    0.081862 0.816993 0.947482 0.112895
H18   H     H_    0.984532 0.720184 0.779477 0.164751
H19   H     H_    0.285013 0.662944 0.330292 0.195120
H20   H     H_    0.377698 0.799470 0.211174 0.116901
H21   H     H_    0.297108 0.988779 0.198668 0.102047
H22   H     H_    0.105081 0.031940 0.302940 0.127889
H23   H     H_    0.285625 0.030725 0.731780 0.120088
H24   H     H_    0.999147 0.889157 0.404697 0.117678
H25   H     H_    0.001231 0.889067 0.595463 0.117626
H26   H     H_    0.895829 0.031619 0.698071 0.127933
H27   H     H_    0.703949 0.988442 0.802607 0.102045
H28   H     H_    0.622551 0.799505 0.788869 0.116921
H29   H     H_    0.714606 0.663319 0.668672 0.194820
H30   H     H_    0.015637 0.720517 0.220505 0.164626
H31   H     H_    0.918403 0.817864 0.052761 0.112640
H32   H     H_    0.708716 0.865997 0.066443 0.097999
H33   H     H_    0.598176 0.816411 0.260708 0.119215
H34   H     H_    0.350403 0.198523 0.852272 0.097223
H35   H     H_    0.699513 0.723259 0.439948 0.132905
H36   H     H_    0.272612 0.378006 0.807241 0.161488
H37   H     H_    0.271561 0.310895 0.427541 0.153538
H38   H     H_    0.373571 0.185575 0.281743 0.124762
H39   H     H_    0.292619 0.143025 0.068302 0.089732
H40   H     H_    0.099148 0.215033 0.005657 0.109282
N1    N     N_1   0.500000 0.499990 0.186410 -0.196835
N2    N     N_1   0.500000 0.499990 0.813590 -0.196782
N3    N     N_1   0.153400 0.543761 0.846846 -0.275669
N4    N     N_1   0.145553 0.574315 0.164470 -0.291581
N5    N     N_1   0.854189 0.574331 0.835273 -0.291206
N6    N     N_1   0.846482 0.544139 0.153203 -0.275548
O1    O     O_R   0.500000 0.337200 0.605810 -0.499768
O2    O     O_R   0.500000 0.337200 0.394190 -0.499667
O3    O     O_R   0.317690 0.499990 0.605810 -0.491293
O4    O     O_R   0.317690 0.499990 0.394190 -0.522104
O5    O     O_R   0.682310 0.499990 0.605810 -0.521955
O6    O     O_R   0.682310 0.499990 0.394190 -0.491259
O7    O     O_R   0.500000 0.662810 0.605810 -0.522332
O8    O     O_R   0.500000 0.662810 0.394190 -0.522175

loop_
_geom_bond_atom_site_label_1
_geom_bond_atom_site_label_2
_ccdc_geom_bond_type
C64   H31   S    
C66   C68   A    
C5    C13   S    
C16   C21   A    
C59   H27   S    
C7    C36   S    
C19   C20   A    
C58   H26   S    
C28   H2    S    
C67   O6    A    
C31   H4    S    
C53   C54   A    
C70   N2    T    
C69   N1    T    
C9    C42   S    
C37   C38   A    
Cu1   O5    S    
C36   C37   A    
C69   C70   S    
C30   C31   A    
C33   H6    S    
C49   C54   A    
C18   C19   A    
C1    O1    A    
C23   C67   S    
C8    C45   S    
C32   H5    S    
C5    C22   S    
C31   C32   A    
C16   C17   A    
C18   H12   S    
C68   H35   S    
C4    C12   S    
C44   H15   S    
C11   N3    T    
C9    C10   S    
C20   H34   S    
C2    C34   S    
C7    C15   S    
C59   C60   A    
C48   H18   S    
Cu2   O6    S    
C17   H1    S    
C47   H17   S    
C40   H11   S    
C36   C41   A    
C10   C62   S    
C63   H30   S    
C44   C46   A    
C50   C51   A    
C46   H16   S    
C37   H8    S    
C51   C52   A    
C21   H36   S    
C9    C49   S    
C24   C25   A    
C5    C12   S    
C4    C6    S    
C3    C8    T    
C39   C40   A    
C5    C7    S    
C25   C26   A    
Cu2   N1    S    
Cu1   N2    S    
Cu2   O8    S    
C60   C61   A    
C1    C3    S    
C1    O2    A    
C56   O4    A    
C4    C16   S    
C61   H29   S    
C43   C44   A    
C62   C63   A    
C51   H20   S    
C6    C14   S    
C47   C48   A    
C14   N5    T    
C57   H25   S    
Cu2   O2    S    
C17   C18   A    
C26   C27   A    
C52   H21   S    
C34   C45   T    
C42   C48   A    
C4    C11   S    
C10   C55   S    
C12   C56   S    
C25   H38   S    
C2    O8    A    
C40   C41   A    
C27   H40   S    
C49   C50   A    
C55   C57   A    
C38   H9    S    
C22   C24   A    
C42   C43   A    
C66   H33   S    
C19   H23   S    
C52   C53   A    
C46   C47   A    
Cu2   O4    S    
C53   H22   S    
C43   H14   S    
C54   H24   S    
Cu1   O3    S    
C24   H37   S    
C39   H10   S    
C60   H28   S    
C67   O5    A    
Cu1   O1    S    
C10   C23   S    
C41   H13   S    
C29   C35   A    
C15   N6    T    
C62   C68   A    
C56   O3    A    
C58   C59   A    
Cu1   Cu2   S    
C64   C65   A    
C30   H3    S    
C57   C58   A    
C38   C39   A    
C7    C23   S    
C6    C23   S    
C55   C61   A    
C35   H7    S    
C33   C35   A    
C32   C33   A    
C9    C12   S    
C13   N4    T    
C29   C30   A    
C63   C64   A    
C2    O7    A    
C50   H19   S    
C6    C29   S    
C20   C21   A    
C65   C66   A    
C27   C28   A    
Cu1   O7    S    
C22   C28   A    
C65   H32   S    
C26   H39   S    
