data_mof_unit_48695.cif
_audit_creation_date              2012-12-10T20:44:41-0500
_audit_creation_method            fapswitch 2.2
_symmetry_space_group_name_H-M    P1
_symmetry_Int_Tables_number       1
_space_group_crystal_system       triclinic
_cell_length_a                    9.84424
_cell_length_b                    10.749847
_cell_length_c                    16.854073
_cell_angle_alpha                 89.225021
_cell_angle_beta                  94.37532
_cell_angle_gamma                 89.496559
_cell_volume                      1778.11992283

loop_
_atom_site_label
_atom_site_type_symbol
_atom_type_description
_atom_site_fract_x
_atom_site_fract_y
_atom_site_fract_z
_atom_type_partial_charge
C1    C     C_R   0.500479 0.260319 0.501067 0.886723
C2    C     C_R   0.653037 0.527300 0.781869 -0.335925
C3    C     C_R   0.580557 0.521453 0.136863 -0.236055
C4    C     C_R   0.589529 0.502056 0.218162 0.564467
C5    C     C_R   0.454297 0.551453 0.095860 0.239462
C6    C     C_R   0.472072 0.512026 0.260095 -0.170251
C7    C     C_R   0.345436 0.538376 0.218922 -0.305092
C8    C     C_R   0.336910 0.557519 0.137037 -0.180442
C9    C     C_R   0.619318 0.060280 0.504699 0.051652
C10   C     C_R   0.499593 0.128939 0.503837 -0.106420
C11   C     C_R   0.374952 0.065501 0.504270 -0.214307
C12   C     C_R   0.517397 0.503180 0.653193 0.902076
C13   C     C_R   0.374144 0.936472 0.503381 -0.217318
C14   C     C_R   0.497792 0.870530 0.502132 -0.105362
C15   C     C_R   0.618112 0.935982 0.504174 0.044317
C16   C     C_3   0.768456 0.922596 0.498519 -0.234655
C17   C     C_3   0.771199 0.066135 0.502577 -0.240935
C18   C     C_R   0.080525 0.482590 0.569237 0.219780
C19   C     C_R   0.063009 0.530695 0.433195 -0.154463
C20   C     C_R   0.919013 0.530752 0.433212 -0.087330
C21   C     C_R   0.937997 0.483223 0.569365 0.247678
C22   C     C_3   0.940767 0.373027 0.624020 -0.513910
C23   C     C_R   0.499367 0.739523 0.499950 0.874705
C24   C     C_3   0.095023 0.372235 0.623588 -0.503158
C25   C     C_R   0.482466 0.501893 0.346515 0.914553
C26   C     C_R   0.526397 0.527274 0.737933 -0.109114
C27   C     C_R   0.407979 0.560154 0.774165 -0.235976
C28   C     C_R   0.415201 0.587216 0.854220 -0.254300
C29   C     C_R   0.541375 0.580091 0.899435 0.220274
C30   C     C_R   0.660387 0.554227 0.862363 0.615662
H1    H     H_    0.277475 0.889312 0.502549 0.163908
H2    H     H_    0.790929 0.883808 0.439931 0.158399
H3    H     H_    0.819013 0.101247 0.559671 0.148541
H4    H     H_    0.109780 0.553193 0.378907 0.154221
H5    H     H_    0.857906 0.553982 0.379056 0.210581
H6    H     H_    0.905110 0.396081 0.682995 0.207064
H7    H     H_    0.891857 0.291035 0.595485 0.206770
H8    H     H_    0.147302 0.395340 0.682233 0.207596
H9    H     H_    0.672578 0.511421 0.106075 0.197427
H10   H     H_    0.136716 0.289329 0.594727 0.207920
H11   H     H_    0.745865 0.505537 0.754342 0.178722
H12   H     H_    0.253428 0.546045 0.249960 0.185480
H13   H     H_    0.321782 0.609970 0.881079 0.183417
H14   H     H_    0.238950 0.577643 0.105561 0.170401
H15   H     H_    0.309491 0.565047 0.740849 0.169090
H16   H     H_    0.278406 0.114613 0.504167 0.162693
N1    N     N_2   0.550943 0.584135 0.983048 -0.141628
N2    N     N_2   0.440614 0.565302 0.012470 -0.179225
N3    N     N_R   0.142860 0.499130 0.500540 -0.114009
N4    N     N_R   0.857210 0.499170 0.500530 -0.113859
O1    O     O_R   0.614690 0.316790 0.499990 -0.608859
O2    O     O_R   0.385350 0.316760 0.500000 -0.630490
O3    O     O_R   0.627460 0.498860 0.616130 -0.623119
O4    O     O_R   0.398120 0.498820 0.616130 -0.626446
O5    O     O_R   0.614650 0.683240 0.500000 -0.620448
O6    O     O_R   0.385310 0.683210 0.500010 -0.631221
O7    O     O_R   0.601880 0.501180 0.383870 -0.561507
O8    O     O_R   0.372540 0.501140 0.383870 -0.640943
Zn1   Zn    Zn3+2 0.653130 0.500020 0.499990 0.978005
Zn2   Zn    Zn3+2 0.346870 0.499980 0.500010 0.927408
F1    F     F_    0.713408 0.473538 0.255069 -0.695048
C31   C     C_R   0.849309 0.859618 0.568248 0.182471
C32   C     C_R   0.791337 0.825097 0.639183 -0.100695
C33   C     C_R   0.871657 0.768051 0.701624 -0.142376
C34   C     C_R   0.009916 0.744926 0.694170 -0.120450
C35   C     C_R   0.068422 0.779305 0.624317 -0.154888
C36   C     C_R   0.988534 0.836146 0.561662 -0.178572
H17   H     H_    0.684794 0.842480 0.646890 0.122112
H18   H     H_    0.826794 0.742348 0.756056 0.158474
H19   H     H_    0.071711 0.700435 0.742520 0.137996
H20   H     H_    0.175530 0.761147 0.618539 0.150136
H21   H     H_    0.034928 0.861819 0.507664 0.123866
C37   C     C_R   0.823521 0.127547 0.429626 0.183289
C38   C     C_R   0.744070 0.138664 0.356661 -0.141835
C39   C     C_R   0.797304 0.195944 0.290981 -0.061782
C40   C     C_R   0.930028 0.241768 0.297154 -0.052838
C41   C     C_R   0.010183 0.229632 0.368897 -0.155507
C42   C     C_R   0.957283 0.172792 0.434759 -0.164701
H22   H     H_    0.641365 0.103147 0.350231 0.123758
H23   H     H_    0.735551 0.204814 0.235209 0.147266
H24   H     H_    0.970896 0.286297 0.246270 0.144033
H25   H     H_    0.113324 0.264409 0.373564 0.150742
H26   H     H_    0.020888 0.163479 0.489806 0.114648
F2    F     F_    0.782646 0.548545 0.905384 -0.672329

loop_
_geom_bond_atom_site_label_1
_geom_bond_atom_site_label_2
_ccdc_geom_bond_type
O5    Zn1   S    
C18   C21   A    
C37   C38   A    
C19   C20   A    
O3    Zn1   S    
C7    C8    A    
O4    Zn2   S    
C41   C42   A    
C26   C27   A    
C31   C32   A    
N3    Zn2   S    
C25   O7    A    
C31   C36   A    
C29   N1    S    
C18   C24   S    
N4    Zn1   S    
C28   C29   A    
O7    Zn1   S    
C6    C25   S    
C2    H11   S    
O8    Zn2   S    
C15   C16   S    
C36   H21   S    
C7    H12   S    
C20   N4    A    
O2    Zn2   S    
C20   H5    S    
C42   H26   S    
N1    N2    D    
C16   C17   S    
C24   H8    S    
C37   C42   A    
C9    C10   A    
C12   O3    A    
C27   H15   S    
C35   C36   A    
C3    H9    S    
C13   C14   A    
C17   C37   S    
C17   H3    S    
C21   N4    A    
C5    N2    S    
C38   C39   A    
C23   O6    A    
C40   C41   A    
C4    C6    A    
C22   H7    S    
C4    F1    S    
O6    Zn2   S    
C12   C26   S    
C14   C23   S    
C39   C40   A    
C29   C30   A    
C19   N3    A    
C35   H20   S    
C2    C26   A    
C33   H18   S    
C1    O1    A    
C9    C17   S    
C38   H22   S    
C22   C24   S    
O1    Zn1   S    
C25   O8    A    
C3    C4    A    
C39   H23   S    
C32   H17   S    
C13   H1    S    
C1    C10   S    
C8    H14   S    
C3    C5    A    
C19   H4    S    
C40   H24   S    
C5    C8    A    
C23   O5    A    
C6    C7    A    
C16   H2    S    
C22   H6    S    
C28   H13   S    
C2    C30   A    
C33   C34   A    
C9    C15   A    
C11   C13   A    
C41   H25   S    
C24   H10   S    
C30   F2    S    
C1    O2    A    
C10   C11   A    
C32   C33   A    
C34   C35   A    
C27   C28   A    
C14   C15   A    
C11   H16   S    
C21   C22   S    
C16   C31   S    
C12   O4    A    
C34   H19   S    
C18   N3    A    
