data_mof_unit_42199.cif
_audit_creation_date              2012-10-26T20:08:11-0400
_audit_creation_method            fapswitch 2.2
_symmetry_space_group_name_H-M    P1
_symmetry_Int_Tables_number       1
_space_group_crystal_system       triclinic
_cell_length_a                    10.865336
_cell_length_b                    10.90837
_cell_length_c                    9.541959
_cell_angle_alpha                 89.273889
_cell_angle_beta                  91.375326
_cell_angle_gamma                 90.530964
_cell_volume                      1130.48057427

loop_
_atom_site_label
_atom_site_type_symbol
_atom_type_description
_atom_site_fract_x
_atom_site_fract_y
_atom_site_fract_z
_atom_type_partial_charge
Br1   Br    Br    0.309583 0.311307 0.156300 -0.488314
Br2   Br    Br    0.690327 0.688781 0.843705 -0.488484
C1    C     C_R   0.498735 0.262094 0.501556 0.569746
C2    C     C_R   0.497372 0.058310 0.630438 0.080125
C3    C     C_R   0.502257 0.871792 0.495445 -0.004835
C4    C     C_R   0.497825 0.128209 0.504566 -0.004831
C5    C     C_R   0.419859 0.426502 0.071254 0.276964
C6    C     C_R   0.580123 0.573515 0.928746 0.276930
C7    C     C_R   0.418908 0.428836 0.923217 0.039376
C8    C     C_R   0.581090 0.571162 0.076782 0.039275
C9    C     C_R   0.262307 0.502938 0.498389 0.560059
C10   C     C_R   0.737693 0.497060 0.501612 0.560094
C11   C     C_R   0.189387 0.793907 0.141010 -0.053810
C12   C     C_R   0.501296 0.737906 0.498446 0.569734
C13   C     C_R   0.811092 0.205774 0.858973 -0.053753
C14   C     C_R   0.153093 0.733547 0.263719 -0.094070
C15   C     C_R   0.847320 0.266205 0.736270 -0.094270
C16   C     C_R   0.112581 0.611190 0.258570 0.045194
C17   C     C_R   0.887420 0.388735 0.741382 0.045134
C18   C     C_R   0.111305 0.549417 0.130678 -0.096753
C19   C     C_R   0.888361 0.450601 0.869219 -0.096744
C20   C     C_R   0.150933 0.608749 0.009208 -0.101040
C21   C     C_R   0.848772 0.391208 0.990677 -0.101105
C22   C     C_R   0.188002 0.731524 0.013695 0.137142
C23   C     C_R   0.871598 0.496285 0.503524 0.021248
C24   C     C_R   0.812119 0.268270 0.986239 0.137342
C25   C     C_R   0.930725 0.547013 0.387398 -0.133832
C26   C     C_R   0.069276 0.452982 0.612597 -0.133868
C27   C     C_R   0.128403 0.503720 0.496476 0.021245
C28   C     C_R   0.941718 0.448175 0.617376 -0.016692
C29   C     C_R   0.058284 0.551820 0.382616 -0.016637
C30   C     C_R   0.499144 0.068144 0.376080 -0.095834
C31   C     C_R   0.500955 0.931857 0.623933 -0.095806
C32   C     C_R   0.502778 0.941694 0.369584 0.080054
Cu1   Cu    Cu3+1 0.500000 0.500020 0.640660 1.043817
Cu2   Cu    Cu3+1 0.500000 0.499980 0.359340 1.043755
H1    H     H_    0.353745 0.372340 0.865201 0.157040
H2    H     H_    0.849271 0.439888 0.088785 0.123539
H3    H     H_    0.877281 0.585989 0.300524 0.134114
H4    H     H_    0.122719 0.413984 0.699459 0.134117
H5    H     H_    0.498487 0.119766 0.278498 0.218874
H6    H     H_    0.501623 0.880236 0.721520 0.218930
H7    H     H_    0.646261 0.627647 0.134798 0.157073
H8    H     H_    0.216899 0.889422 0.144572 0.172988
H9    H     H_    0.783953 0.110099 0.855446 0.172958
H10   H     H_    0.152630 0.783047 0.361385 0.131114
H11   H     H_    0.848094 0.216617 0.638652 0.131212
H12   H     H_    0.078581 0.455597 0.125129 0.155694
H13   H     H_    0.920850 0.544515 0.874755 0.155823
H14   H     H_    0.150184 0.560146 0.911065 0.123593
I1    I     I_    0.234895 0.822784 0.826559 -0.328943
I2    I     I_    0.765356 0.176984 0.173404 -0.328801
I3    I     I_    0.513413 0.874613 0.162090 -0.280624
I4    I     I_    0.487033 0.125409 0.838007 -0.280502
N1    N     N_R   0.500030 0.500030 0.852070 -0.238361
N2    N     N_R   0.499970 0.499970 0.147930 -0.238405
O1    O     O_R   0.499990 0.319660 0.618740 -0.488098
O2    O     O_R   0.500010 0.680340 0.381260 -0.488134
O3    O     O_R   0.499990 0.319630 0.381170 -0.464071
O4    O     O_R   0.500010 0.680370 0.618830 -0.464014
O5    O     O_R   0.319650 0.500020 0.618780 -0.523080
O6    O     O_R   0.680350 0.499980 0.381220 -0.523123
O7    O     O_R   0.319640 0.500000 0.381210 -0.458726
O8    O     O_R   0.680360 0.500000 0.618790 -0.458740

loop_
_geom_bond_atom_site_label_1
_geom_bond_atom_site_label_2
_ccdc_geom_bond_type
C4    C30   A    
C30   H5    S    
C6    C8    A    
C1    O3    A    
Cu1   O8    S    
Cu2   N2    S    
C24   I2    S    
C23   C25   A    
Cu2   O7    S    
C12   O4    A    
C16   C18   A    
Cu1   Cu2   S    
C19   H13   S    
C20   H14   S    
C10   C23   S    
Cu1   O1    S    
Cu2   O3    S    
C2    I4    S    
C3    C32   A    
C1    C4    S    
C22   I1    S    
C26   C28   A    
C27   C29   A    
C30   C32   A    
C3    C12   S    
C18   H12   S    
C5    N2    A    
Cu1   O5    S    
C7    N1    A    
C31   H6    S    
C1    O1    A    
C6    N1    A    
C7    H1    S    
C26   C27   A    
C17   C19   A    
C18   C20   A    
C9    O7    A    
C19   C21   A    
C9    O5    A    
C12   O2    A    
C20   C22   A    
C21   C24   A    
C2    C4    A    
C26   H4    S    
Cu2   O2    S    
Cu1   N1    S    
C21   H2    S    
C5    C7    A    
C10   O6    A    
C9    C27   S    
C32   I3    S    
C14   C16   A    
C8    N2    A    
C11   C14   A    
C14   H10   S    
C23   C28   A    
C13   C15   A    
C10   O8    A    
C13   H9    S    
C2    C31   A    
C13   C24   A    
C16   C29   S    
C15   C17   A    
C8    H7    S    
Br1   C5    S    
C17   C28   S    
C25   C29   A    
C11   H8    S    
Br2   C6    S    
C15   H11   S    
C11   C22   A    
C25   H3    S    
Cu1   O4    S    
Cu2   O6    S    
C3    C31   A    
