data_mof_unit_55217.cif
_audit_creation_date              2012-12-10T17:35:46-0500
_audit_creation_method            fapswitch 2.2
_symmetry_space_group_name_H-M    P1
_symmetry_Int_Tables_number       1
_space_group_crystal_system       triclinic
_cell_length_a                    10.4906
_cell_length_b                    11.982063
_cell_length_c                    12.958842
_cell_angle_alpha                 92.752259
_cell_angle_beta                  89.974804
_cell_angle_gamma                 86.671775
_cell_volume                      1624.28214361

loop_
_atom_site_label
_atom_site_type_symbol
_atom_type_description
_atom_site_fract_x
_atom_site_fract_y
_atom_site_fract_z
_atom_type_partial_charge
C1    C     C_R   0.498483 0.521738 0.699901 0.944606
C2    C     C_R   0.500586 0.478664 0.299229 0.929657
C3    C     C_R   0.454214 0.449591 0.868131 0.411178
C4    C     C_R   0.518662 0.561323 0.128865 0.418884
C5    C     C_R   0.476215 0.451878 0.973448 -0.066479
C6    C     C_R   0.523104 0.548338 0.022319 -0.065398
C7    C     C_R   0.345618 0.958096 0.447025 -0.345895
C8    C     C_R   0.652005 0.042096 0.557896 -0.359434
C9    C     C_R   0.364241 0.841336 0.447628 -0.022955
C10   C     C_R   0.633432 0.158961 0.557034 0.034732
C11   C     C_R   0.571736 0.856318 0.517314 -0.045954
C12   C     C_R   0.427795 0.143678 0.483833 -0.053556
C13   C     C_R   0.556455 0.974351 0.519796 0.099426
C14   C     C_R   0.442065 0.025705 0.483497 0.097414
C15   C     C_R   0.742720 0.500654 0.499649 0.869297
C16   C     C_R   0.257284 0.499354 0.500314 0.841560
C17   C     C_3   0.959696 0.456379 0.586879 -0.186701
C18   C     C_3   0.040253 0.543675 0.412854 -0.173268
C19   C     C_3   0.038223 0.561094 0.582773 -0.181903
C20   C     C_3   0.961754 0.438915 0.417073 -0.172961
C21   C     C_3   0.122396 0.498229 0.500390 0.035690
C22   C     C_3   0.877626 0.501816 0.499403 0.037228
C23   C     C_3   0.046610 0.393362 0.504610 -0.151150
C24   C     C_3   0.953378 0.606675 0.495228 -0.129794
C25   C     C_R   0.497051 0.467234 0.187288 -0.305034
C26   C     C_R   0.500260 0.535324 0.810278 -0.293127
C27   C     C_R   0.569492 0.632731 0.964409 -0.290301
C28   C     C_R   0.451284 0.359852 0.030788 -0.270320
C29   C     C_R   0.555944 0.628783 0.857800 0.418612
C30   C     C_R   0.469366 0.364360 0.136887 0.386842
H1    H     H_    0.919894 0.421156 0.656737 0.139558
H2    H     H_    0.078151 0.578968 0.342135 0.126754
H3    H     H_    0.088875 0.306558 0.508687 0.135425
H4    H     H_    0.911146 0.693514 0.491371 0.138195
H5    H     H_    0.618667 0.700181 0.002259 0.194231
H6    H     H_    0.420551 0.283013 0.993745 0.202981
H7    H     H_    0.341713 0.184251 0.453716 0.131621
H8    H     H_    0.658179 0.815641 0.546688 0.136255
H9    H     H_    0.708263 0.210684 0.585217 0.136222
H10   H     H_    0.288430 0.789839 0.421061 0.135936
H11   H     H_    0.256329 0.995044 0.418937 0.143598
H12   H     H_    0.740671 0.005181 0.587181 0.143381
N1    N     N_R   0.523490 0.207800 0.519350 -0.096295
N2    N     N_R   0.476510 0.792200 0.480650 -0.104869
O1    O     O_R   0.506270 0.421700 0.658830 -0.582546
O2    O     O_R   0.493730 0.578300 0.341170 -0.597349
O3    O     O_R   0.491200 0.609310 0.646410 -0.598210
O4    O     O_R   0.508800 0.390690 0.353590 -0.588875
O5    O     O_R   0.693580 0.406210 0.506230 -0.647859
O6    O     O_R   0.306420 0.593790 0.493770 -0.647626
O7    O     O_R   0.678510 0.593830 0.493810 -0.621389
O8    O     O_R   0.321490 0.406170 0.506190 -0.634795
Zn1   Zn    Zn3+2 0.510060 0.374730 0.508290 0.958743
Zn2   Zn    Zn3+2 0.489940 0.625270 0.491710 0.947096
H13   H     H_    0.074457 0.610184 0.650297 0.128290
H14   H     H_    0.925542 0.389563 0.349710 0.129937
O9    O     O_3   0.535265 0.666751 0.174426 -0.632869
C31   C     C_3   0.414479 0.725675 0.189134 0.145545
H15   H     H_    0.424430 0.784523 0.256492 0.179789
H16   H     H_    0.336512 0.670467 0.208406 0.113963
C32   C     C_3   0.375261 0.795104 0.096762 -0.416822
H17   H     H_    0.455480 0.845634 0.074672 0.231167
H18   H     H_    0.350743 0.738884 0.030091 0.221680
C33   C     C_3   0.258450 0.873422 0.122554 -0.973233
H19   H     H_    0.175749 0.824273 0.141637 0.265947
H20   H     H_    0.233392 0.923612 0.054861 0.272029
H21   H     H_    0.278427 0.931421 0.189263 0.263737
O10   O     O_3   0.393857 0.360189 0.821442 -0.629221
C34   C     C_3   0.265362 0.393320 0.798708 0.119445
H22   H     H_    0.234063 0.336809 0.734288 0.175200
H23   H     H_    0.253561 0.479985 0.770848 0.089605
C35   C     C_3   0.178660 0.381363 0.892427 -0.382459
H24   H     H_    0.194419 0.295961 0.921635 0.234051
H25   H     H_    0.202323 0.443398 0.954942 0.218398
C36   C     C_3   0.038116 0.400714 0.864830 -0.957894
H26   H     H_    0.020187 0.484747 0.833244 0.265776
H27   H     H_    0.978543 0.395884 0.935145 0.270604
H28   H     H_    0.009976 0.335306 0.807044 0.257574
O11   O     O_3   0.445315 0.271193 0.191056 -0.621255
C37   C     C_3   0.554738 0.196200 0.186481 0.108319
H29   H     H_    0.622956 0.222072 0.247575 0.166901
H30   H     H_    0.604901 0.193075 0.110219 0.113211
C38   C     C_3   0.514325 0.078358 0.204895 -0.342671
H31   H     H_    0.449322 0.080724 0.272512 0.240656
H32   H     H_    0.461402 0.047104 0.136194 0.217603
C39   C     C_3   0.629382 0.998192 0.223924 -0.952454
H33   H     H_    0.694544 0.992722 0.156044 0.258529
H34   H     H_    0.596752 0.913539 0.236821 0.285086
H35   H     H_    0.682020 0.027115 0.293680 0.267933
O12   O     O_3   0.610757 0.706726 0.797860 -0.624983
C40   C     C_3   0.561128 0.817457 0.822683 0.101197
H36   H     H_    0.620816 0.874700 0.781316 0.162428
H37   H     H_    0.569977 0.841891 0.905942 0.112127
C41   C     C_3   0.422481 0.836924 0.786481 -0.361387
H38   H     H_    0.416051 0.814890 0.702558 0.254421
H39   H     H_    0.359268 0.783164 0.828530 0.202352
C42   C     C_3   0.375194 0.959023 0.805723 -0.944147
H40   H     H_    0.379469 0.983282 0.889433 0.262140
H41   H     H_    0.274706 0.970438 0.779582 0.264547
H42   H     H_    0.434402 0.014536 0.761891 0.278129

loop_
_geom_bond_atom_site_label_1
_geom_bond_atom_site_label_2
_ccdc_geom_bond_type
C35   H25   S    
C16   C21   S    
C27   C29   A    
C18   C21   S    
C3    O10   S    
C20   H14   S    
C42   H42   S    
C42   H40   S    
O9    C31   S    
C2    O2    A    
C17   C23   S    
C18   C24   S    
C19   C21   S    
C8    H12   S    
C12   N1    A    
C34   H22   S    
C37   C38   S    
C5    C6    A    
C37   H29   S    
C39   H34   S    
C31   H16   S    
C34   H23   S    
C12   H7    S    
C32   H18   S    
N1    Zn1   S    
C15   C22   S    
C38   H31   S    
O10   C34   S    
C23   H3    S    
C4    O9    S    
C15   O7    A    
C31   C32   S    
C15   O5    A    
O1    Zn1   S    
C13   C14   A    
C32   H17   S    
C35   C36   S    
C29   O12   S    
C42   H41   S    
C4    C25   A    
C7    C14   A    
O4    Zn1   S    
C33   H21   S    
C37   H30   S    
C40   H36   S    
C39   H33   S    
C1    O3    A    
C41   C42   S    
C27   H5    S    
C31   H15   S    
C9    H10   S    
C24   H4    S    
C10   H9    S    
C33   H20   S    
C32   C33   S    
C36   H26   S    
C40   H37   S    
C5    C28   A    
C6    C27   A    
C20   C23   S    
O2    Zn2   S    
C11   N2    A    
O6    Zn2   S    
C41   H39   S    
C36   H27   S    
O3    Zn2   S    
C30   O11   S    
C4    C6    A    
C38   H32   S    
C12   C14   A    
C21   C23   S    
C1    C26   S    
C17   H1    S    
C22   C24   S    
C18   H2    S    
C34   C35   S    
O8    Zn1   S    
C19   H13   S    
C25   C30   A    
C7    C9    A    
C9    N2    A    
C10   N1    A    
C3    C26   A    
C16   O8    A    
C20   C22   S    
C35   H24   S    
C3    C5    A    
C39   H35   S    
C17   C22   S    
O7    Zn2   S    
C2    O4    A    
C33   H19   S    
C28   C30   A    
C19   C24   S    
C40   C41   S    
C11   C13   A    
C1    O1    A    
O12   C40   S    
O5    Zn1   S    
C17   C19   S    
C2    C25   S    
C18   C20   S    
C7    H11   S    
C41   H38   S    
C16   O6    A    
C36   H28   S    
O11   C37   S    
C8    C13   A    
N2    Zn2   S    
C38   C39   S    
C28   H6    S    
C26   C29   A    
C8    C10   A    
C11   H8    S    
