data_mof_unit_18947.cif
_audit_creation_date              2012-12-11T17:45:28-0500
_audit_creation_method            fapswitch 2.2
_symmetry_space_group_name_H-M    P1
_symmetry_Int_Tables_number       1
_space_group_crystal_system       triclinic
_cell_length_a                    14.978095
_cell_length_b                    14.924366
_cell_length_c                    15.207897
_cell_angle_alpha                 110.578611
_cell_angle_beta                  108.973957
_cell_angle_gamma                 108.884939
_cell_volume                      2615.66017434

loop_
_atom_site_label
_atom_site_type_symbol
_atom_type_description
_atom_site_fract_x
_atom_site_fract_y
_atom_site_fract_z
_atom_type_partial_charge
C1    C     C_R   0.972725 0.247338 0.060197 -0.130722
C2    C     C_R   0.703696 0.193976 0.790996 -0.142674
C3    C     C_R   0.779003 0.593231 0.023804 -0.027255
C4    C     C_R   0.314389 0.755822 0.224556 -0.132281
C5    C     C_R   0.950060 0.409314 0.686148 -0.155145
C6    C     C_R   0.677043 0.501966 0.947922 0.004198
C7    C     C_R   0.973770 0.504127 0.679646 0.055323
C8    C     C_R   0.702764 0.129988 0.697492 0.069767
C9    C     C_R   0.064257 0.870155 0.072799 0.075915
C10   C     C_R   0.558124 0.209945 0.180200 -0.028595
C11   C     C_R   0.651908 0.311528 0.258287 -0.117800
C12   C     C_R   0.323216 0.782297 0.326314 0.053812
C13   C     C_R   0.754068 0.318516 0.292493 0.115631
C14   C     C_R   0.760612 0.222362 0.247921 -0.212756
C15   C     C_R   0.666884 0.121887 0.166749 -0.132127
C16   C     C_R   0.212639 0.408649 0.909623 -0.167693
C17   C     C_R   0.565468 0.115567 0.133571 -0.112937
C18   C     C_R   0.862488 0.427167 0.488468 -0.253516
C19   C     C_R   0.958106 0.510157 0.584646 0.074500
C20   C     C_R   0.041915 0.589979 0.586191 0.013906
C21   C     C_R   0.026545 0.584596 0.490416 -0.266724
C22   C     C_R   0.932566 0.500310 0.393034 0.074308
C23   C     C_R   0.305492 0.500523 0.942072 0.041455
C24   C     C_R   0.849817 0.418573 0.391029 0.024735
C25   C     C_R   0.179478 0.777285 0.749725 -0.193123
C26   C     C_R   0.286014 0.854177 0.833430 -0.108511
C27   C     C_R   0.367825 0.826109 0.844589 -0.109778
C28   C     C_R   0.992606 0.589911 0.296693 -0.147434
C29   C     C_R   0.342608 0.720418 0.773348 -0.127828
C30   C     C_R   0.235262 0.641772 0.692393 -0.140249
C31   C     C_R   0.152784 0.669576 0.680297 0.126246
C32   C     C_R   0.233522 0.008192 0.519904 -0.123823
C33   C     C_R   0.319311 0.992703 0.515785 -0.129740
C34   C     C_R   0.935522 0.497661 0.298684 0.095824
C35   C     C_R   0.339253 0.915989 0.539559 0.106811
C36   C     C_R   0.276099 0.859288 0.573067 -0.181404
C37   C     C_R   0.187375 0.871977 0.572398 -0.137820
C38   C     C_R   0.165279 0.944916 0.544298 -0.143713
C39   C     C_R   0.528389 0.969511 0.623785 -0.239006
C40   C     C_R   0.301961 0.591985 0.000819 -0.141079
C41   C     C_R   0.621181 0.012642 0.615282 0.054294
C42   C     C_R   0.619374 0.951397 0.518044 0.074459
C43   C     C_R   0.521148 0.860940 0.430056 -0.249498
C44   C     C_R   0.423948 0.843643 0.430936 0.062338
C45   C     C_R   0.687381 0.408989 0.931215 -0.119387
C46   C     C_R   0.428319 0.898774 0.530910 0.018725
C47   C     C_R   0.695971 0.040902 0.431049 -0.167296
C48   C     C_R   0.784200 0.098574 0.423605 -0.194875
C49   C     C_R   0.884473 0.108314 0.479210 -0.301960
C50   C     C_R   0.896956 0.056194 0.540947 0.694172
C51   C     C_R   0.806006 0.994633 0.544569 -0.327334
C52   C     C_R   0.906901 0.407189 0.206845 -0.140880
C53   C     C_R   0.707339 0.992027 0.494664 0.041192
C54   C     C_3   0.563795 0.486579 0.033090 0.543738
C55   C     C_3   0.463248 0.491022 0.034932 -0.567225
C56   C     C_R   0.033817 0.594227 0.781793 -0.112176
C57   C     C_3   0.579037 0.610308 0.948806 -0.416316
C58   C     C_3   0.475551 0.406894 0.830216 -0.490156
C59   C     C_3   0.577204 0.503051 0.940656 0.213944
C60   C     C_3   0.402259 0.501329 0.938569 0.344919
C61   C     C_3   0.477545 0.610607 0.951025 -0.409542
C62   C     C_3   0.372007 0.403694 0.831025 -0.413748
C63   C     C_R   0.145209 0.031931 0.787943 -0.127951
C64   C     C_R   0.219282 0.746659 0.311680 -0.122642
C65   C     C_R   0.111293 0.046399 0.864449 -0.150258
C66   C     C_R   0.186575 0.123509 0.974117 0.032370
C67   C     C_R   0.793380 0.197876 0.700111 -0.131244
C68   C     C_R   0.295891 0.185294 0.006178 -0.332713
C69   C     C_R   0.332484 0.165135 0.931226 0.684196
C70   C     C_R   0.255007 0.090843 0.820587 -0.338590
C71   C     C_R   0.168272 0.039867 0.080357 -0.241068
C72   C     C_R   0.100227 0.988173 0.112369 0.052441
C73   C     C_R   0.053753 0.044736 0.160717 0.022945
C74   C     C_R   0.064495 0.140037 0.159394 -0.246050
C75   C     C_R   0.096747 0.164482 0.090208 0.058766
C76   C     C_R   0.067368 0.251466 0.972307 -0.122836
C77   C     C_R   0.156113 0.117614 0.055370 0.071527
C78   C     C_R   0.001903 0.803386 0.097468 -0.161085
C79   C     C_R   0.866836 0.958217 0.133044 -0.162578
C80   C     C_R   0.795271 0.916807 0.166865 -0.148381
C81   C     C_R   0.834932 0.916119 0.263155 -0.078368
C82   C     C_R   0.946301 0.959078 0.326958 -0.136539
C83   C     C_R   0.018723 0.005451 0.296083 -0.194794
C84   C     C_R   0.978884 0.001277 0.196948 0.128846
C85   C     C_R   0.050358 0.221400 0.044513 0.054870
C86   C     C_3   0.086488 0.155941 0.628201 -0.376488
C87   C     C_3   0.684845 0.651353 0.207256 -0.235298
C88   C     C_3   0.478779 0.160529 0.909880 -0.330932
C89   C     C_R   0.093509 0.805962 0.008380 -0.141037
H1    H     H_    0.937664 0.233956 0.109073 0.092286
H2    H     H_    0.479477 0.203500 0.157944 0.111560
H3    H     H_    0.644638 0.383405 0.295726 0.116715
H4    H     H_    0.379015 0.771423 0.205251 0.090740
H5    H     H_    0.838403 0.225221 0.277169 0.119073
H6    H     H_    0.672620 0.048443 0.132128 0.114458
H7    H     H_    0.800011 0.365039 0.488752 0.135078
H8    H     H_    0.094164 0.641451 0.491321 0.133172
H9    H     H_    0.117359 0.801019 0.739742 0.112422
H10   H     H_    0.305092 0.935741 0.888706 0.111098
H11   H     H_    0.450941 0.886395 0.907504 0.093860
H12   H     H_    0.060429 0.679250 0.806469 0.108177
H13   H     H_    0.406530 0.699952 0.779883 0.101914
H14   H     H_    0.216816 0.560314 0.637199 0.107461
H15   H     H_    0.096874 0.954278 0.544365 0.156296
H16   H     H_    0.186156 0.323754 0.856493 0.102998
H17   H     H_    0.220178 0.069245 0.504387 0.101085
H18   H     H_    0.370076 0.040015 0.493742 0.110796
H19   H     H_    0.292394 0.802074 0.594421 0.133945
H20   H     H_    0.134984 0.825547 0.593217 0.127392
H21   H     H_    0.527747 0.008426 0.698104 0.122997
H22   H     H_    0.519862 0.816044 0.355700 0.123880
H23   H     H_    0.828008 0.179189 0.650031 0.123489
H24   H     H_    0.620201 0.039138 0.391775 0.130779
H25   H     H_    0.775668 0.138544 0.377100 0.161823
H26   H     H_    0.950771 0.155216 0.471750 0.142867
H27   H     H_    0.017471 0.674253 0.351036 0.110251
H28   H     H_    0.814770 0.956739 0.593592 0.148340
H29   H     H_    0.543071 0.400170 0.006689 0.138207
H30   H     H_    0.409553 0.414127 0.028291 0.167337
H31   H     H_    0.482431 0.559314 0.111189 0.169898
H32   H     H_    0.651683 0.685408 0.021311 0.156363
H33   H     H_    0.504728 0.682796 0.028910 0.142442
H34   H     H_    0.978452 0.825807 0.157476 0.129212
H35   H     H_    0.480360 0.417744 0.762834 0.186363
H36   H     H_    0.469250 0.325848 0.813578 0.163462
H37   H     H_    0.323134 0.324221 0.822720 0.156736
H38   H     H_    0.355788 0.677137 0.030462 0.089502
H39   H     H_    0.322788 0.407009 0.760680 0.164109
H40   H     H_    0.581168 0.615783 0.878315 0.166723
H41   H     H_    0.432576 0.620904 0.884695 0.164151
H42   H     H_    0.279198 0.077823 0.759841 0.160436
H43   H     H_    0.086550 0.972280 0.703626 0.168084
H44   H     H_    0.027080 0.995334 0.838906 0.127146
H45   H     H_    0.152550 0.833444 0.984371 0.092925
H46   H     H_    0.353548 0.244530 0.090910 0.139225
H47   H     H_    0.215001 0.006141 0.054313 0.124432
H48   H     H_    0.030497 0.183161 0.198549 0.126945
H49   H     H_    0.854249 0.322067 0.175712 0.109455
H50   H     H_    0.835245 0.956752 0.057266 0.113568
H51   H     H_    0.709131 0.884640 0.118194 0.102451
H52   H     H_    0.779668 0.884322 0.289601 0.105535
H53   H     H_    0.976287 0.957288 0.400736 0.140749
H54   H     H_    0.104860 0.039877 0.345920 0.113019
H55   H     H_    0.192742 0.744048 0.368462 0.123863
H56   H     H_    0.654953 0.166377 0.824718 0.081452
H57   H     H_    0.123405 0.247649 0.943899 0.128180
H58   H     H_    0.624208 0.323951 0.881748 0.088894
H59   H     H_    0.081611 0.232108 0.664129 0.153240
H60   H     H_    0.099685 0.146189 0.558449 0.153296
H61   H     H_    0.158576 0.165287 0.690067 0.191028
H62   H     H_    0.652497 0.691852 0.167596 0.120835
H63   H     H_    0.774354 0.704663 0.257259 0.164866
H64   H     H_    0.653057 0.645422 0.262717 0.151105
H65   H     H_    0.461411 0.164070 0.834807 0.140898
H66   H     H_    0.442912 0.073864 0.891117 0.152555
H67   H     H_    0.800979 0.678869 0.061078 0.090984
H68   H     H_    0.568167 0.198757 0.958722 0.187171
H69   H     H_    0.906870 0.324924 0.620840 0.115487
H70   H     H_    0.492362 0.037333 0.073549 0.094057
N1    N     N_R   0.947080 0.293830 0.002870 -0.042640
N2    N     N_R   0.153670 0.443180 0.946090 -0.035910
N3    N     N_R   0.002360 0.556820 0.208890 -0.044039
N4    N     N_R   0.210070 0.556820 0.002870 -0.034864
N5    N     N_R   0.945960 0.443180 0.152110 -0.041473
N6    N     N_R   0.151710 0.706170 0.208890 -0.043995
N7    N     N_R   0.004320 0.293830 0.946090 -0.042615
N8    N     N_R   0.789930 0.443180 0.997130 -0.033696
N9    N     N_R   0.054040 0.556820 0.847890 -0.040645
N10   N     N_R   0.848290 0.293830 0.791110 -0.044418
N11   N     N_R   0.995680 0.706170 0.053910 -0.047973
N12   N     N_R   0.052920 0.706170 0.997130 -0.042104
N13   N     N_R   0.791050 0.293830 0.847890 -0.042370
N14   N     N_R   0.846330 0.556820 0.053910 -0.038305
N15   N     N_R   0.997640 0.443180 0.791110 -0.040617
N16   N     N_R   0.208950 0.706170 0.152110 -0.040589
Ni1   Ni    Ni4+2 0.869690 0.369690 0.000000 0.214930
Ni2   Ni    Ni4+2 0.130310 0.630310 0.000000 0.212418
Ni3   Ni    Ni4+2 0.000970 0.369690 0.869780 0.216243
Ni4   Ni    Ni4+2 0.999030 0.630310 0.130220 0.220928
O1    O     O_3   0.994042 0.061266 0.598307 -0.644828
O2    O     O_3   0.661628 0.546067 0.134586 -0.609929
O3    O     O_3   0.443754 0.221411 0.970897 -0.648036

loop_
_geom_bond_atom_site_label_1
_geom_bond_atom_site_label_2
_ccdc_geom_bond_type
C25   C31   A    
C66   C68   A    
C63   C65   A    
C58   C62   S    
C1    H1    S    
C6    C45   A    
C36   H19   S    
C18   H7    S    
C5    N15   A    
C79   H50   S    
C35   C36   A    
C33   H18   S    
C9    C72   S    
C82   H53   S    
C3    C6    A    
N1    N7    A    
C81   C82   A    
C28   N3    A    
N16   Ni2   S    
C55   H30   S    
C67   N10   A    
C2    H56   S    
N9    N15   A    
C26   C27   A    
C37   C38   A    
C18   C24   A    
C57   H40   S    
C36   C37   A    
C56   H12   S    
C86   H61   S    
C42   C53   S    
C15   H6    S    
C30   C31   A    
C12   C64   A    
C57   C59   S    
C27   C29   A    
N11   N12   A    
N14   Ni4   S    
C10   C17   A    
C23   C40   A    
C78   N11   A    
C60   C62   S    
C18   C19   A    
C41   C42   A    
C55   H31   S    
C75   C77   A    
C70   H42   S    
C38   H15   S    
C28   H27   S    
C51   H28   S    
C48   H25   S    
C11   H3    S    
C3    N14   A    
C39   H21   S    
C83   C84   A    
C44   C46   A    
C68   C69   A    
C4    N16   A    
C30   H14   S    
N4    Ni2   S    
C52   H49   S    
C87   H64   S    
C76   N7    A    
N7    Ni3   S    
C32   C38   A    
C4    C12   A    
C29   C30   A    
N15   Ni3   S    
C73   C84   S    
C37   H20   S    
C26   H10   S    
C47   C53   A    
C55   C60   S    
C81   H52   S    
C76   H57   S    
C87   H62   S    
C13   C14   A    
N1    Ni1   S    
C43   H22   S    
C7    C56   A    
N2    N4    A    
C75   C85   S    
N3    N5    A    
C54   C59   S    
C1    N1    A    
C73   C74   A    
C1    C85   A    
C23   C60   S    
C22   C34   S    
C74   H48   S    
C27   H11   S    
C74   C75   A    
C88   H66   S    
C8    C41   S    
C89   N12   A    
C40   N4    A    
C39   C41   A    
C86   H60   S    
C9    C89   A    
C71   H47   S    
C62   H37   S    
C72   C73   A    
C64   H55   S    
C25   C26   A    
C88   H68   S    
C40   H38   S    
C57   H32   S    
C82   C83   A    
C4    H4    S    
C13   C24   S    
C60   C61   S    
C51   C53   A    
C88   H65   S    
C50   O1    S    
C43   C44   A    
C64   N6    A    
C21   H8    S    
C25   H9    S    
C88   O3    S    
C47   C48   A    
C63   C70   A    
C56   N9    A    
C47   H24   S    
C86   O1    S    
C50   C51   A    
C54   O2    S    
C63   H43   S    
N12   Ni2   S    
C78   H34   S    
C45   N8    A    
N3    Ni4   S    
C16   H16   S    
C52   N5    A    
C39   C46   A    
C61   H41   S    
C48   C49   A    
C49   H26   S    
C10   H2    S    
C5    H69   S    
C16   C23   A    
C7    C19   S    
C87   H63   S    
C54   H29   S    
C58   H36   S    
N6    Ni4   S    
N10   N13   A    
C22   C24   A    
C42   C43   A    
N10   Ni3   S    
C71   C77   A    
C5    C7    A    
C15   C17   A    
C66   C77   S    
C54   C55   S    
C89   H45   S    
C45   H58   S    
C34   C52   A    
C6    C59   S    
C68   H46   S    
C2    C8    A    
C80   C81   A    
C86   H59   S    
C87   O2    S    
C57   C61   S    
C16   N2    A    
N6    N16   A    
C69   O3    S    
C58   H35   S    
N8    N14   A    
N11   Ni4   S    
C32   C33   A    
C19   C20   A    
C58   C59   S    
C71   C72   A    
C12   C44   S    
C80   H51   S    
C62   H39   S    
C11   C13   A    
C79   C84   A    
N9    Ni2   S    
C3    H67   S    
C33   C35   A    
C29   H13   S    
N5    Ni1   S    
C9    C78   A    
C65   C66   A    
C69   C70   A    
C17   H70   S    
C10   C11   A    
C28   C34   A    
C79   C80   A    
C67   H23   S    
C20   C21   A    
C8    C67   A    
C49   C50   A    
C14   C15   A    
C61   H33   S    
C83   H54   S    
C32   H17   S    
N2    Ni3   S    
C21   C22   A    
C35   C46   S    
C76   C85   A    
C14   H5    S    
C65   H44   S    
N13   Ni1   S    
C2    N13   A    
N8    Ni1   S    
C20   C31   S    
