data_mof_unit_55486.cif
_audit_creation_date              2012-12-10T19:47:25-0500
_audit_creation_method            fapswitch 2.2
_symmetry_space_group_name_H-M    P1
_symmetry_Int_Tables_number       1
_space_group_crystal_system       triclinic
_cell_length_a                    10.912023
_cell_length_b                    10.898973
_cell_length_c                    12.695029
_cell_angle_alpha                 92.278339
_cell_angle_beta                  92.057902
_cell_angle_gamma                 89.610632
_cell_volume                      1507.62952579

loop_
_atom_site_label
_atom_site_type_symbol
_atom_type_description
_atom_site_fract_x
_atom_site_fract_y
_atom_site_fract_z
_atom_type_partial_charge
C1    C     C_R   0.262082 0.500099 0.501659 0.830800
C2    C     C_R   0.738399 0.501184 0.499027 0.881914
C3    C     C_R   0.495934 0.871507 0.497664 -0.301995
C4    C     C_R   0.495507 0.127948 0.502646 -0.268247
C5    C     C_R   0.447406 0.933696 0.409829 -0.078336
C6    C     C_R   0.535750 0.065000 0.592645 -0.100731
C7    C     C_R   0.240318 0.679475 0.834241 -0.239244
C8    C     C_R   0.826871 0.519780 0.136616 -0.253318
C9    C     C_R   0.187351 0.596434 0.759452 -0.198856
C10   C     C_R   0.860073 0.535224 0.243396 -0.077863
C11   C     C_R   0.128723 0.639087 0.667504 -0.006701
C12   C     C_R   0.877708 0.432663 0.305837 -0.012115
C13   C     C_R   0.121492 0.766030 0.652653 0.548461
C14   C     C_R   0.856340 0.314417 0.261194 0.564134
C15   C     C_R   0.172787 0.848741 0.728522 0.623087
C16   C     C_R   0.824730 0.299282 0.153721 0.609090
C17   C     C_R   0.233162 0.805577 0.818827 -0.242636
C18   C     C_R   0.811097 0.401942 0.091389 -0.310927
C19   C     C_R   0.939061 0.544540 0.591016 0.473998
C20   C     C_R   0.062694 0.435584 0.421227 0.483930
C21   C     C_R   0.872605 0.500022 0.499519 -0.262785
C22   C     C_R   0.129051 0.494828 0.505594 -0.250081
C23   C     C_R   0.498416 0.261742 0.501186 0.859849
C24   C     C_R   0.498422 0.738042 0.498934 0.879556
C25   C     C_R   0.935961 0.451378 0.412234 -0.052227
C26   C     C_R   0.066682 0.553090 0.589461 -0.082268
C27   C     C_2   0.460345 0.472598 0.031202 -0.294419
C28   C     C_2   0.535980 0.532588 0.968887 -0.288984
C29   C     C_1   0.525609 0.524698 0.852852 0.218566
C30   C     C_1   0.472915 0.477522 0.147177 0.268308
C31   C     C_R   0.710566 0.187780 0.835834 0.675597
C32   C     C_R   0.214113 0.739402 0.253224 0.719472
C33   C     C_R   0.684840 0.143461 0.732737 -0.241987
C34   C     C_R   0.273993 0.805627 0.335857 -0.285807
C35   C     C_R   0.562925 0.126148 0.696787 0.046177
C36   C     C_R   0.383086 0.868552 0.318930 0.030942
C37   C     C_R   0.465961 0.156484 0.763552 0.564399
C38   C     C_R   0.429868 0.868732 0.216662 0.586152
C39   C     C_R   0.493381 0.196357 0.868497 -0.379894
C40   C     C_R   0.369256 0.799303 0.134248 -0.380748
C41   C     C_R   0.614795 0.212554 0.903845 -0.267652
C42   C     C_R   0.261846 0.735854 0.152724 -0.248542
C43   C     C_R   0.540648 0.937942 0.587773 0.612620
C44   C     C_R   0.451740 0.061347 0.411711 0.600044
Cu1   Cu    Cu3+1 0.492140 0.492110 0.395880 1.039492
Cu2   Cu    Cu3+1 0.507860 0.507890 0.604120 1.007117
H1    H     H_    0.633591 0.243133 0.984605 0.203312
H2    H     H_    0.216139 0.682844 0.089203 0.180342
H3    H     H_    0.608618 0.589016 0.005067 0.175948
H4    H     H_    0.386283 0.417979 0.994982 0.160609
H5    H     H_    0.759555 0.120168 0.681557 0.196999
H6    H     H_    0.236824 0.806118 0.413848 0.198005
H7    H     H_    0.421075 0.212615 0.923446 0.169284
H8    H     H_    0.405894 0.792414 0.056179 0.173206
H9    H     H_    0.273039 0.869755 0.877462 0.187754
H10   H     H_    0.789391 0.390943 0.007844 0.204905
H11   H     H_    0.285740 0.646081 0.904661 0.175699
H12   H     H_    0.816616 0.599100 0.088363 0.190887
H13   H     H_    0.191264 0.499253 0.773367 0.143649
H14   H     H_    0.875980 0.626949 0.276817 0.225510
N1    N     N_1   0.480320 0.480250 0.239400 -0.149982
N2    N     N_1   0.519680 0.519750 0.760600 -0.156469
O1    O     O_R   0.313000 0.493330 0.412070 -0.518543
O2    O     O_R   0.687000 0.506670 0.587930 -0.542825
O3    O     O_R   0.326280 0.506660 0.587930 -0.618310
O4    O     O_R   0.673720 0.493340 0.412070 -0.599102
O5    O     O_R   0.493370 0.312980 0.412070 -0.512702
O6    O     O_R   0.506630 0.687020 0.587930 -0.502541
O7    O     O_R   0.506650 0.326310 0.587930 -0.620167
O8    O     O_R   0.493350 0.673690 0.412070 -0.598832
F1    F     F_    0.062303 0.809502 0.565797 -0.620141
F2    F     F_    0.868791 0.214251 0.320811 -0.642574
F3    F     F_    0.161044 0.970991 0.715552 -0.597003
F4    F     F_    0.811795 0.184752 0.109340 -0.614448
O9    O     O_3   0.878686 0.597199 0.676001 -0.528181
C45   C     C_3   0.875775 0.511288 0.756455 -0.188984
H15   H     H_    0.967672 0.498615 0.794622 0.148522
H16   H     H_    0.839435 0.420562 0.726833 0.159400
H17   H     H_    0.813897 0.547060 0.818123 0.184586
O10   O     O_3   0.121847 0.372928 0.340477 -0.552787
C46   C     C_3   0.153262 0.254423 0.374051 -0.129891
H18   H     H_    0.232530 0.258102 0.431384 0.140431
H19   H     H_    0.179935 0.197216 0.304322 0.237577
H20   H     H_    0.075390 0.207708 0.409786 0.193306
F5    F     F_    0.828586 0.202930 0.870685 -0.635558
F6    F     F_    0.110689 0.676718 0.271140 -0.656354
O11   O     O_3   0.346360 0.136599 0.726370 -0.534065
C47   C     C_3   0.273069 0.241779 0.745667 -0.203564
H21   H     H_    0.322333 0.328484 0.731969 0.139327
H22   H     H_    0.238692 0.242952 0.826980 0.169925
H23   H     H_    0.192155 0.237859 0.690177 0.204515
O12   O     O_3   0.539793 0.928329 0.202272 -0.553211
C48   C     C_3   0.531099 0.001532 0.112936 -0.139808
H24   H     H_    0.441306 0.050422 0.105447 0.155874
H25   H     H_    0.548869 0.945507 0.040028 0.153233
H26   H     H_    0.602971 0.072862 0.121429 0.243330
F7    F     F_    0.587079 0.879513 0.673412 -0.623078
F8    F     F_    0.406361 0.120317 0.326219 -0.674357

loop_
_geom_bond_atom_site_label_1
_geom_bond_atom_site_label_2
_ccdc_geom_bond_type
O11   C47   S    
C48   H24   S    
C31   F5    S    
C23   O7    A    
C45   H17   S    
C46   H18   S    
C24   O8    A    
C39   C41   A    
Cu1   Cu2   S    
C3    C43   A    
Cu2   N2    S    
C16   F4    S    
C28   C29   S    
C19   C21   A    
C45   H16   S    
C20   C25   A    
C5    C36   S    
C38   O12   S    
C6    C35   S    
C15   C17   A    
C23   O5    A    
C19   C26   A    
Cu2   O7    S    
C8    H12   S    
C44   F8    S    
C7    C17   A    
Cu1   O5    S    
C1    O3    A    
C31   C33   A    
C17   H9    S    
C27   H4    S    
C18   H10   S    
C40   C42   A    
C1    C22   S    
C48   H25   S    
C27   C30   S    
C3    C24   S    
C1    O1    A    
C46   H19   S    
C2    O2    A    
C20   O10   S    
C45   H15   S    
Cu2   O3    S    
C4    C6    A    
C4    C23   S    
C13   F1    S    
C11   C26   S    
C3    C5    A    
Cu1   O1    S    
C8    C18   A    
Cu2   O2    S    
C9    H13   S    
C32   C34   A    
C10   H14   S    
O9    C45   S    
Cu2   O6    S    
C28   H3    S    
C47   H23   S    
C32   F6    S    
C2    C21   S    
C41   H1    S    
C42   H2    S    
C9    C11   A    
C10   C12   A    
C16   C18   A    
C15   F3    S    
C5    C44   A    
C47   H22   S    
C48   H26   S    
C40   H8    S    
C6    C43   A    
C13   C15   A    
C14   C16   A    
C36   C38   A    
Cu1   O4    S    
C46   H20   S    
C7    C9    A    
C21   C25   A    
C29   N2    T    
C31   C41   A    
C35   C37   A    
Cu1   O8    S    
C14   F2    S    
C37   O11   S    
C43   F7    S    
C20   C22   A    
O10   C46   S    
C2    O4    A    
C33   H5    S    
C4    C44   A    
C34   H6    S    
C12   C25   S    
C19   O9    S    
C12   C14   A    
C37   C39   A    
C38   C40   A    
C11   C13   A    
C39   H7    S    
Cu1   N1    S    
O12   C48   S    
C33   C35   A    
C34   C36   A    
C24   O6    A    
C47   H21   S    
C8    C10   A    
C22   C26   A    
C30   N1    T    
C27   C28   D    
C32   C42   A    
C7    H11   S    
