data_mof_unit_11592.cif
_audit_creation_date              2012-12-10T19:08:05-0500
_audit_creation_method            fapswitch 2.2
_symmetry_space_group_name_H-M    P1
_symmetry_Int_Tables_number       1
_space_group_crystal_system       triclinic
_cell_length_a                    9.060148
_cell_length_b                    10.854501
_cell_length_c                    9.61606
_cell_angle_alpha                 90.428564
_cell_angle_beta                  90.180951
_cell_angle_gamma                 91.386754
_cell_volume                      945.367197637

loop_
_atom_site_label
_atom_site_type_symbol
_atom_type_description
_atom_site_fract_x
_atom_site_fract_y
_atom_site_fract_z
_atom_type_partial_charge
C1    C     C_R   0.497404 0.262508 0.499580 0.790595
C2    C     C_R   0.471588 0.934348 0.372909 -0.207806
C3    C     C_R   0.481099 0.870501 0.499457 -0.116554
C4    C     C_R   0.469641 0.937164 0.623526 0.079837
C5    C     C_3   0.559859 0.932016 0.753746 -0.032965
C6    C     C_3   0.565596 0.072927 0.752311 -0.065695
C7    C     C_R   0.624831 0.530084 0.073908 0.183466
C8    C     C_R   0.384952 0.448362 0.071929 0.173060
C9    C     C_R   0.384651 0.449872 0.923971 0.230777
C10   C     C_R   0.626294 0.526879 0.927629 0.200803
C11   C     C_3   0.723455 0.639692 0.922667 -0.075724
C12   C     C_R   0.220925 0.499837 0.499854 0.844955
C13   C     C_3   0.717422 0.645120 0.081655 -0.525312
C14   C     C_R   0.496759 0.737511 0.500208 0.792655
C15   C     C_R   0.779073 0.500232 0.500164 0.846185
C16   C     C_1   0.065636 0.499983 0.499840 -0.192242
C17   C     C_1   0.934370 0.500129 0.500231 -0.176689
C18   C     C_R   0.471790 0.064510 0.623265 0.036235
C19   C     C_R   0.483106 0.129139 0.498615 -0.109599
C20   C     C_R   0.472288 0.062984 0.372511 -0.211106
Cu1   Cu    Cu3+1 0.499990 0.499980 0.640670 0.974329
Cu2   Cu    Cu3+1 0.500010 0.500020 0.359330 0.932924
H1    H     H_    0.471841 0.110001 0.273550 0.172126
H2    H     H_    0.671977 0.716953 0.869139 0.201137
H3    H     H_    0.824976 0.630397 0.134204 0.199540
H4    H     H_    0.655066 0.724736 0.121915 0.194616
H5    H     H_    0.471137 0.885791 0.274085 0.163558
H6    H     H_    0.669329 0.890248 0.737613 0.125659
H7    H     H_    0.678369 0.112253 0.733462 0.137554
N1    N     N_R   0.500920 0.500930 0.147930 -0.201609
N2    N     N_R   0.500930 0.500890 0.852020 -0.214400
O1    O     O_R   0.500000 0.319640 0.618810 -0.573591
O2    O     O_R   0.500020 0.319680 0.381230 -0.598926
O3    O     O_R   0.288380 0.499980 0.618770 -0.537525
O4    O     O_R   0.288400 0.500020 0.381190 -0.601120
O5    O     O_R   0.499980 0.680320 0.618770 -0.563152
O6    O     O_R   0.500000 0.680360 0.381190 -0.584149
O7    O     O_R   0.711600 0.499980 0.618810 -0.553861
O8    O     O_R   0.711620 0.500020 0.381230 -0.579411
N3    N     N_3   0.475905 0.876458 0.868637 -0.575866
H8    H     H_    0.367956 0.908470 0.871346 0.238398
H9    H     H_    0.527976 0.901451 0.962217 0.231566
N4    N     N_3   0.492060 0.130270 0.871019 -0.583400
H10   H     H_    0.520389 0.224062 0.871356 0.243369
H11   H     H_    0.377386 0.122650 0.859673 0.223005
N5    N     N_3   0.262466 0.386530 0.136736 -0.624992
H12   H     H_    0.297226 0.330014 0.216884 0.268655
H13   H     H_    0.184534 0.450603 0.167111 0.240352
N6    N     N_3   0.262155 0.394905 0.850341 -0.514665
H14   H     H_    0.248480 0.303360 0.881196 0.201817
H15   H     H_    0.167030 0.441722 0.878134 0.211863
N7    N     N_3   0.870261 0.613096 0.868487 -0.558956
H16   H     H_    0.938561 0.690483 0.887275 0.220166
H17   H     H_    0.915493 0.539502 0.922440 0.220112

loop_
_geom_bond_atom_site_label_1
_geom_bond_atom_site_label_2
_ccdc_geom_bond_type
C7    C10   A    
N4    H10   S    
C15   O7    A    
C2    H5    S    
C11   N7    S    
C5    H6    S    
Cu1   N2    S    
C19   C20   A    
C20   H1    S    
C8    N1    A    
N3    H9    S    
C2    C3    A    
C4    C18   A    
N4    H11   S    
C7    N1    A    
Cu1   Cu2   S    
C12   O4    A    
Cu1   O5    S    
Cu2   O4    S    
C11   C13   S    
C15   O8    A    
C16   C17   T    
C3    C14   S    
Cu2   O8    S    
N3    H8    S    
N7    H17   S    
C18   C19   A    
C8    N5    S    
C6    N4    S    
C14   O5    A    
C5    C6    S    
C6    C18   S    
Cu1   O1    S    
N5    H13   S    
C13   H4    S    
C1    C19   S    
C10   C11   S    
C9    N2    A    
C1    O2    A    
C3    C4    A    
C11   H2    S    
C7    C13   S    
C6    H7    S    
C9    N6    S    
N7    H16   S    
C13   H3    S    
N6    H14   S    
C5    N3    S    
C15   C17   S    
Cu2   O2    S    
N5    H12   S    
C8    C9    A    
Cu1   O3    S    
Cu2   N1    S    
C12   O3    A    
N6    H15   S    
Cu2   O6    S    
C2    C20   A    
C10   N2    A    
C1    O1    A    
Cu1   O7    S    
C12   C16   S    
C4    C5    S    
C14   O6    A    
