data_mof_unit_37119.cif
_audit_creation_date              2012-12-10T17:37:46-0500
_audit_creation_method            fapswitch 2.2
_symmetry_space_group_name_H-M    P1
_symmetry_Int_Tables_number       1
_space_group_crystal_system       triclinic
_cell_length_a                    12.338619
_cell_length_b                    13.216136
_cell_length_c                    17.319146
_cell_angle_alpha                 105.448498
_cell_angle_beta                  74.589181
_cell_angle_gamma                 116.703496
_cell_volume                      2396.6086924

loop_
_atom_site_label
_atom_site_type_symbol
_atom_type_description
_atom_site_fract_x
_atom_site_fract_y
_atom_site_fract_z
_atom_type_partial_charge
C1    C     C_R   0.144477 0.713894 0.508086 0.860017
C2    C     C_R   0.850703 0.429644 0.782589 0.055068
C3    C     C_R   0.922219 0.486511 0.155736 -0.159221
C4    C     C_R   0.914964 0.478870 0.235325 -0.196896
C5    C     C_R   0.134402 0.526717 0.210280 -0.212258
C6    C     C_R   0.141965 0.536094 0.130627 -0.159007
C7    C     C_R   0.035717 0.514909 0.103030 0.189102
C8    C     C_2   0.957637 0.448203 0.975530 -0.215427
C9    C     C_2   0.044061 0.525001 0.019530 -0.249374
C10   C     C_R   0.020886 0.498997 0.263037 -0.013197
C11   C     C_R   0.732992 0.974765 0.392910 -0.193149
C12   C     C_R   0.983412 0.497547 0.651449 0.794703
C13   C     C_R   0.774555 0.164520 0.472492 -0.047527
C14   C     C_R   0.180002 0.918033 0.564352 0.518863
C15   C     C_R   0.258328 0.033250 0.580446 0.602570
C16   C     C_R   0.383690 0.069509 0.551089 -0.402060
C17   C     C_R   0.433694 0.991117 0.501771 -0.002239
C18   C     C_R   0.351676 0.876304 0.477178 0.004964
C19   C     C_R   0.562385 0.023312 0.475221 0.139043
C20   C     C_R   0.606183 0.944243 0.419097 0.161746
C21   C     C_R   0.522997 0.836724 0.388150 -0.245570
C22   C     C_R   0.397657 0.803966 0.415528 -0.135313
C23   C     C_R   0.855966 0.286296 0.488366 0.780071
C24   C     C_R   0.649264 0.131768 0.503148 -0.254885
C25   C     C_R   0.816932 0.084706 0.419301 -0.188394
C26   C     C_R   0.225680 0.837625 0.514216 -0.329535
C27   C     C_R   0.642343 0.675644 0.631378 -0.294873
C28   C     C_R   0.255780 0.350541 0.388229 0.288956
C29   C     C_R   0.347787 0.310439 0.376174 -0.224793
C30   C     C_R   0.439954 0.363259 0.422053 -0.227993
C31   C     C_R   0.445540 0.459745 0.481242 0.009680
C32   C     C_R   0.344509 0.493187 0.499131 0.273794
C33   C     C_R   0.547763 0.522528 0.523894 -0.017440
C34   C     C_R   0.012881 0.496992 0.348007 0.771013
C35   C     C_R   0.544156 0.613498 0.588047 0.166228
C36   C     C_R   0.443062 0.642132 0.608068 -0.278725
C37   C     C_R   0.346174 0.584124 0.564285 -0.169741
C38   C     C_R   0.655555 0.500416 0.504292 -0.000321
C39   C     C_R   0.744501 0.648559 0.610048 0.113162
C40   C     C_R   0.968016 0.484424 0.735455 -0.069087
C41   C     C_R   0.075585 0.521550 0.766382 -0.220961
C42   C     C_R   0.070385 0.506677 0.843051 -0.163307
C43   C     C_R   0.957113 0.460291 0.893423 0.135374
C44   C     C_R   0.845019 0.423161 0.864633 0.100730
Cu1   Cu    Cu3+1 0.900140 0.524980 0.518800 0.957234
Cu2   Cu    Cu3+1 0.099860 0.475020 0.481200 0.924258
H1    H     H_    0.165268 0.560546 0.730128 0.155127
H2    H     H_    0.230127 0.558917 0.090408 0.127152
H3    H     H_    0.914011 0.108494 0.395651 0.158842
H4    H     H_    0.554899 0.777553 0.342383 0.138288
H5    H     H_    0.766967 0.914667 0.350229 0.140415
H6    H     H_    0.622263 0.193785 0.548208 0.145751
H7    H     H_    0.438294 0.160090 0.566716 0.183198
H8    H     H_    0.337687 0.722190 0.385924 0.164348
H9    H     H_    0.820185 0.696224 0.643541 0.168573
H10   H     H_    0.826593 0.457721 0.275299 0.144688
H11   H     H_    0.439509 0.711580 0.657540 0.150296
H12   H     H_    0.640350 0.745060 0.681208 0.148076
H13   H     H_    0.668078 0.435446 0.454569 0.124208
H14   H     H_    0.506665 0.326735 0.408805 0.138936
H15   H     H_    0.353081 0.239690 0.329073 0.141896
H16   H     H_    0.274483 0.613847 0.583988 0.200852
H17   H     H_    0.217356 0.544017 0.231178 0.138027
H18   H     H_    0.121214 0.597047 0.995103 0.149989
H19   H     H_    0.839619 0.472388 0.135861 0.130717
H20   H     H_    0.883888 0.376390 0.002107 0.157230
H21   H     H_    0.156550 0.531261 0.862524 0.143455
N1    N     N_R   0.749710 0.562810 0.547300 -0.188568
N2    N     N_R   0.249640 0.437820 0.453210 -0.221449
O1    O     O_R   0.025490 0.682370 0.523640 -0.509991
O2    O     O_R   0.194150 0.640180 0.491890 -0.618040
O3    O     O_R   0.905900 0.523560 0.631310 -0.587195
O4    O     O_R   0.074570 0.481370 0.599560 -0.588780
O5    O     O_R   0.805850 0.359820 0.508110 -0.599782
O6    O     O_R   0.974510 0.317630 0.476360 -0.589707
O7    O     O_R   0.925430 0.518630 0.400440 -0.582227
O8    O     O_R   0.094100 0.476440 0.368690 -0.622253
F1    F     F_    0.059865 0.885218 0.599964 -0.633559
F2    F     F_    0.213103 0.110257 0.627704 -0.624108
C45   C     C_3   0.174455 0.304457 0.323031 -0.365067
C46   C     C_3   0.170069 0.192056 0.265199 -0.457372
C47   C     C_3   0.074780 0.149908 0.209887 -0.829369
H22   H     H_    0.981106 0.130655 0.246390 0.247665
H23   H     H_    0.096981 0.216136 0.173145 0.262092
H24   H     H_    0.075230 0.070151 0.168015 0.248037
H25   H     H_    0.261011 0.206551 0.225495 0.226450
H26   H     H_    0.145649 0.124094 0.301015 0.233953
H27   H     H_    0.078772 0.287176 0.351011 0.248934
H28   H     H_    0.208989 0.371344 0.284524 0.202815
C48   C     C_3   0.722192 0.380646 0.922387 -0.428528
C49   C     C_3   0.704370 0.480382 0.986208 -0.343460
C50   C     C_3   0.582734 0.437897 0.044629 -0.865626
H29   H     H_    0.504165 0.396196 0.010898 0.257499
H30   H     H_    0.580834 0.375414 0.077562 0.252006
H31   H     H_    0.572463 0.511767 0.089817 0.240835
H32   H     H_    0.780241 0.524845 0.022182 0.227673
H33   H     H_    0.705010 0.544267 0.955172 0.216516
H34   H     H_    0.641865 0.337698 0.891012 0.205743
H35   H     H_    0.716305 0.313223 0.952062 0.187008
C51   C     C_3   0.735665 0.369180 0.742884 -0.387995
C52   C     C_3   0.663794 0.444350 0.759085 -0.338705
C53   C     C_3   0.558779 0.388590 0.710202 -0.792927
H36   H     H_    0.595353 0.376432 0.644097 0.258079
H37   H     H_    0.493062 0.303844 0.727408 0.258992
H38   H     H_    0.508858 0.444812 0.722699 0.246392
H39   H     H_    0.624664 0.458010 0.824539 0.211235
H40   H     H_    0.726013 0.530143 0.742481 0.234860
H41   H     H_    0.760055 0.343397 0.676452 0.205044
H42   H     H_    0.675607 0.285114 0.762767 0.177533

loop_
_geom_bond_atom_site_label_1
_geom_bond_atom_site_label_2
_ccdc_geom_bond_type
C24   H6    S    
C8    H20   S    
C52   C53   S    
C9    H18   S    
C41   C42   A    
C35   C36   A    
C18   C26   A    
C8    C43   S    
C37   H16   S    
C22   H8    S    
Cu1   Cu2   S    
C5    H17   S    
C1    O2    A    
C6    H2    S    
Cu1   O7    S    
C28   C29   A    
C3    C7    A    
C34   O8    A    
C30   C31   A    
C42   H21   S    
C11   C25   A    
C15   C16   A    
C13   C23   S    
C53   H38   S    
C39   N1    A    
C45   H28   S    
C16   H7    S    
C50   H29   S    
Cu2   N2    S    
C33   C35   A    
C49   H32   S    
C39   H9    S    
C28   N2    A    
C2    C44   A    
C8    C9    D    
C30   H14   S    
C31   C33   A    
C46   H25   S    
C12   O3    A    
C2    C51   S    
C51   H42   S    
C21   C22   A    
C4    H10   S    
Cu1   O3    S    
C13   C25   A    
C3    H19   S    
Cu2   O6    S    
C46   C47   S    
C29   H15   S    
C11   C20   A    
C51   H41   S    
C36   H11   S    
C27   C39   A    
C49   C50   S    
C16   C17   A    
C27   C35   A    
C50   H31   S    
C49   H33   S    
C13   C24   A    
Cu1   O5    S    
C12   C40   S    
C43   C44   A    
C29   C30   A    
C31   C32   A    
Cu1   N1    S    
C50   H30   S    
C17   C18   A    
C41   H1    S    
C10   C34   S    
C32   C37   A    
C14   C26   A    
C53   H37   S    
Cu2   O2    S    
C46   H26   S    
C40   C41   A    
C38   N1    A    
C47   H23   S    
C1    C26   S    
C42   C43   A    
C23   O5    A    
C4    C10   A    
C3    C4    A    
C48   H35   S    
C44   C48   S    
C52   H39   S    
C7    C9    S    
C36   C37   A    
Cu1   O1    S    
C18   C22   A    
C32   N2    A    
C1    O1    A    
C23   O6    A    
C45   C46   S    
C27   H12   S    
Cu2   O8    S    
C6    C7    A    
C15   F2    S    
C47   H24   S    
C33   C38   A    
C19   C20   A    
C19   C24   A    
C5    C10   A    
C45   H27   S    
C48   C49   S    
C5    C6    A    
C51   C52   S    
C17   C19   A    
C21   H4    S    
C14   F1    S    
C53   H36   S    
C28   C45   S    
C25   H3    S    
C11   H5    S    
C38   H13   S    
C2    C40   A    
C20   C21   A    
C47   H22   S    
C52   H40   S    
C14   C15   A    
C12   O4    A    
C48   H34   S    
Cu2   O4    S    
C34   O7    A    
