data_mof_unit_58195.cif
_audit_creation_date              2012-10-26T20:20:49-0400
_audit_creation_method            fapswitch 2.2
_symmetry_space_group_name_H-M    P1
_symmetry_Int_Tables_number       1
_space_group_crystal_system       triclinic
_cell_length_a                    8.824866
_cell_length_b                    10.828352
_cell_length_c                    9.617142
_cell_angle_alpha                 90.064236
_cell_angle_beta                  98.151861
_cell_angle_gamma                 92.777018
_cell_volume                      908.618260099

loop_
_atom_site_label
_atom_site_type_symbol
_atom_type_description
_atom_site_fract_x
_atom_site_fract_y
_atom_site_fract_z
_atom_type_partial_charge
Br1   Br    Br    0.265069 0.304365 0.137453 -0.413793
Br2   Br    Br    0.734930 0.695635 0.862547 -0.413797
Br3   Br    Br    0.262426 0.306033 0.800497 -0.375115
Br4   Br    Br    0.737574 0.693967 0.199503 -0.375118
C1    C     C_R   0.500093 0.262375 0.499931 0.562545
C2    C     C_R   0.499635 0.064009 0.626210 -0.099527
C3    C     C_R   0.499676 0.871631 0.500028 0.028240
C4    C     C_R   0.500324 0.128369 0.499972 0.028240
C5    C     C_R   0.403200 0.420349 0.061278 0.255931
C6    C     C_R   0.596800 0.579651 0.938722 0.255932
C7    C     C_R   0.402959 0.420530 0.913216 0.279479
C8    C     C_R   0.597041 0.579470 0.086784 0.279479
C9    C     C_R   0.499907 0.737625 0.500069 0.562544
C10   C     C_R   0.204201 0.498111 0.463842 0.579027
C11   C     C_R   0.795799 0.501889 0.536158 0.579026
C12   C     C_2   0.037538 0.488091 0.444850 0.264675
C13   C     C_2   0.962462 0.511909 0.555149 0.264677
C14   C     C_R   0.501010 0.063761 0.373807 -0.097037
C15   C     C_R   0.498990 0.936239 0.626192 -0.097037
C16   C     C_R   0.500364 0.935990 0.373790 -0.099527
Cu1   Cu    Cu3+1 0.500000 0.500020 0.640660 1.105921
Cu2   Cu    Cu3+1 0.500000 0.499980 0.359340 1.105921
H1    H     H_    0.502129 0.111563 0.275113 0.180222
H2    H     H_    0.497870 0.888437 0.724887 0.180222
H3    H     H_    0.500377 0.887993 0.274971 0.177500
H4    H     H_    0.499623 0.112007 0.725029 0.177500
H5    H     H_    0.028475 0.436319 0.247828 0.376132
H6    H     H_    0.971524 0.563687 0.752171 0.376129
N1    N     N_R   0.500040 0.500030 0.852080 -0.260738
N2    N     N_R   0.499960 0.499970 0.147920 -0.260738
O1    O     O_R   0.499990 0.319660 0.618740 -0.489826
O2    O     O_3   0.042699 0.551903 0.683233 -0.668495
O3    O     O_R   0.500010 0.680340 0.381260 -0.489826
O4    O     O_R   0.499990 0.319630 0.381170 -0.480695
O5    O     O_R   0.500010 0.680370 0.618830 -0.480695
O6    O     O_R   0.274840 0.500010 0.591370 -0.424435
O7    O     O_R   0.725160 0.499990 0.408630 -0.424435
O8    O     O_R   0.274830 0.499980 0.353800 -0.500005
O9    O     O_R   0.725170 0.500020 0.646200 -0.500004
O10   O     O_3   0.957302 0.448097 0.316767 -0.668499

loop_
_geom_bond_atom_site_label_1
_geom_bond_atom_site_label_2
_ccdc_geom_bond_type
C1    C4    S    
C9    O3    A    
Cu1   O5    S    
Br4   C8    S    
Cu1   O1    S    
C14   C16   A    
Cu1   O9    S    
Br3   C7    S    
H6    O2    S    
H5    O10   S    
C1    O4    A    
C15   H2    S    
Cu1   O6    S    
Cu1   Cu2   S    
C2    C15   A    
C5    C7    A    
C6    N1    A    
C11   O9    A    
C2    H4    S    
C6    C8    A    
C5    N2    A    
C12   O10   S    
C9    O5    A    
C3    C15   A    
C10   O6    A    
Cu2   O4    S    
C10   C12   S    
C10   O8    A    
C16   H3    S    
C14   H1    S    
Cu2   O8    S    
C3    C9    S    
Br1   C5    S    
C7    N1    A    
C3    C16   A    
C13   O2    S    
C11   C13   S    
Cu2   O3    S    
C11   O7    A    
C2    C4    A    
Cu2   N2    S    
C8    N2    A    
Cu2   O7    S    
Cu1   N1    S    
C4    C14   A    
C12   C13   D    
C1    O1    A    
Br2   C6    S    
