data_mof_unit_45827.cif
_audit_creation_date              2012-12-10T19:03:39-0500
_audit_creation_method            fapswitch 2.2
_symmetry_space_group_name_H-M    P1
_symmetry_Int_Tables_number       1
_space_group_crystal_system       triclinic
_cell_length_a                    15.89152
_cell_length_b                    10.806781
_cell_length_c                    9.571103
_cell_angle_alpha                 89.882264
_cell_angle_beta                  90.411159
_cell_angle_gamma                 90.24231
_cell_volume                      1643.64424373

loop_
_atom_site_label
_atom_site_type_symbol
_atom_type_description
_atom_site_fract_x
_atom_site_fract_y
_atom_site_fract_z
_atom_type_partial_charge
C1    C     C_R   0.498498 0.262409 0.500131 0.794955
C2    C     C_3   0.953421 0.589194 0.615894 -0.140792
C3    C     C_3   0.916783 0.504804 0.497145 0.142658
C4    C     C_3   0.948522 0.547449 0.351356 -0.403442
C5    C     C_3   0.047585 0.558855 0.348104 -0.091519
C6    C     C_1   0.824562 0.502552 0.499360 0.000385
C7    C     C_1   0.175457 0.501598 0.494988 0.035709
C8    C     C_1   0.250885 0.500606 0.497862 -0.074297
C9    C     C_R   0.499208 0.063548 0.625642 0.096301
C10   C     C_R   0.490182 0.129259 0.500924 -0.121105
C11   C     C_R   0.468407 0.064699 0.378410 -0.168320
C12   C     C_R   0.340355 0.499928 0.499543 0.819564
C13   C     C_R   0.467603 0.935600 0.378620 -0.197870
C14   C     C_R   0.489432 0.870673 0.500896 -0.109126
C15   C     C_R   0.498924 0.936153 0.625524 0.144923
C16   C     C_3   0.566391 0.928622 0.734796 -0.505134
C17   C     C_3   0.567476 0.069560 0.734006 -0.227419
C18   C     C_R   0.573646 0.506544 0.074222 0.228712
C19   C     C_R   0.427681 0.482723 0.073357 -0.035731
C20   C     C_R   0.427628 0.483094 0.925138 -0.034323
C21   C     C_R   0.574041 0.504284 0.927119 0.288260
C22   C     C_3   0.641242 0.601999 0.920566 -0.337638
C23   C     C_R   0.498151 0.737590 0.499964 0.820999
C24   C     C_3   0.640294 0.604975 0.080146 -0.338882
C25   C     C_R   0.659644 0.500045 0.500259 0.834587
C26   C     C_3   0.051222 0.586123 0.612830 -0.431853
C27   C     C_3   0.046841 0.368358 0.511954 -0.142626
C28   C     C_3   0.949359 0.371700 0.522639 -0.471690
C29   C     C_1   0.749131 0.501041 0.500388 -0.088332
C30   C     C_3   0.082932 0.503044 0.491144 0.050253
Cu1   Cu    Cu3+1 0.500000 0.499980 0.640670 0.987619
Cu2   Cu    Cu3+1 0.500000 0.500020 0.359330 0.998028
H1    H     H_    0.453519 0.887335 0.282285 0.217011
H2    H     H_    0.627177 0.109524 0.693227 0.155245
H3    H     H_    0.368712 0.469978 0.126937 0.167919
H4    H     H_    0.075467 0.552264 0.714988 0.221094
H5    H     H_    0.619115 0.687990 0.868141 0.167432
H6    H     H_    0.916607 0.633871 0.318343 0.249674
N1    N     N_R   0.500530 0.500930 0.147930 -0.195714
N2    N     N_R   0.500530 0.500890 0.852020 -0.201989
O1    O     O_R   0.500000 0.319640 0.618810 -0.573551
O2    O     O_R   0.500010 0.319680 0.381230 -0.578711
O3    O     O_R   0.379430 0.499990 0.618840 -0.594339
O4    O     O_R   0.379440 0.500030 0.381260 -0.574407
O5    O     O_R   0.499990 0.680320 0.618770 -0.578976
O6    O     O_R   0.500000 0.680360 0.381190 -0.562142
O7    O     O_R   0.620560 0.499970 0.618740 -0.578820
O8    O     O_R   0.620570 0.500010 0.381160 -0.580719
H7    H     H_    0.933320 0.548662 0.717485 0.162187
H8    H     H_    0.078106 0.680954 0.602861 0.193316
C31   C     C_2   0.921876 0.721759 0.616865 0.958040
O9    O     O_2   0.874154 0.760403 0.526137 -0.552485
O10   O     O_R   0.947177 0.799850 0.725738 -0.720382
H9    H     H_    0.922363 0.885826 0.717087 0.349475
H10   H     H_    0.926134 0.477908 0.273505 0.182286
H11   H     H_    0.455381 0.113317 0.281680 0.174472
H12   H     H_    0.542734 0.886258 0.832941 0.247425
H13   H     H_    0.625409 0.887241 0.694571 0.205611
C32   C     C_2   0.538542 0.126811 0.868612 0.939880
O11   O     O_2   0.583374 0.202913 0.927562 -0.584969
O12   O     O_R   0.460843 0.093549 0.925634 -0.743674
H14   H     H_    0.448495 0.139713 0.015221 0.321816
H15   H     H_    0.368541 0.470718 0.870549 0.157426
C33   C     C_2   0.723706 0.555948 0.865035 0.906449
O13   O     O_2   0.769463 0.627310 0.801585 -0.600627
O14   O     O_R   0.748424 0.433355 0.887338 -0.734234
H16   H     H_    0.805061 0.414517 0.844337 0.327446
H17   H     H_    0.698971 0.570450 0.130861 0.177134
C34   C     C_2   0.612048 0.727355 0.138215 0.938738
O15   O     O_2   0.547895 0.776676 0.094381 -0.616392
O16   O     O_R   0.660628 0.784770 0.241853 -0.732479
H18   H     H_    0.636464 0.867056 0.272071 0.334079
H19   H     H_    0.061796 0.313292 0.417673 0.185782
C35   C     C_2   0.085952 0.298211 0.633509 0.865661
O17   O     O_2   0.071561 0.328040 0.754151 -0.604719
O18   O     O_R   0.138291 0.197557 0.606367 -0.740587
H20   H     H_    0.160850 0.157704 0.694926 0.349699
H21   H     H_    0.927543 0.338418 0.626532 0.200822
H22   H     H_    0.921541 0.307305 0.443988 0.186838
C36   C     C_2   0.076801 0.693479 0.330917 0.856179
O19   O     O_2   0.027049 0.779436 0.335413 -0.547843
O20   O     O_R   0.162256 0.718611 0.309833 -0.759150
H23   H     H_    0.174554 0.810376 0.300525 0.350725
C37   C     C_2   0.078791 0.492583 0.217270 0.841175
O21   O     O_2   0.133402 0.413307 0.223628 -0.586081
O22   O     O_R   0.045704 0.526713 0.086908 -0.734638
H24   H     H_    0.071256 0.478476 0.007114 0.363739

loop_
_geom_bond_atom_site_label_1
_geom_bond_atom_site_label_2
_ccdc_geom_bond_type
C23   O5    A    
C18   C21   A    
C19   C20   A    
C3    C6    S    
C7    C8    T    
O10   H9    S    
Cu1   O3    S    
C18   C24   S    
C19   N1    A    
C3    C28   S    
C37   O22   S    
C12   O3    A    
C26   H8    S    
C20   N2    A    
C15   C16   S    
Cu1   N2    S    
Cu2   N1    S    
C34   O16   S    
C28   H22   S    
C16   C17   S    
C27   C35   S    
C28   H21   S    
C9    C10   A    
C25   O7    A    
C27   H19   S    
O14   H16   S    
C32   O11   D    
C7    C30   S    
Cu1   O7    S    
C13   C14   A    
C27   C30   S    
Cu2   O8    S    
C9    C17   S    
O12   H14   S    
C24   C34   S    
C25   C29   S    
C32   O12   S    
C35   O17   D    
C31   O9    D    
C37   O21   D    
C36   O20   S    
C10   C11   A    
C5    C37   S    
O22   H24   S    
C4    C5    S    
C22   H5    S    
C31   O10   S    
C33   O14   S    
C14   C23   S    
C18   N1    A    
C13   H1    S    
C2    H7    S    
Cu1   Cu2   S    
C8    C12   S    
Cu2   O4    S    
C2    C26   S    
C16   H13   S    
O18   H20   S    
C5    C36   S    
C25   O8    A    
C35   O18   S    
C17   C32   S    
C1    O1    A    
C4    H6    S    
C26   C30   S    
C4    H10   S    
C22   C24   S    
C17   H2    S    
C3    C4    S    
C5    C30   S    
C26   H4    S    
Cu1   O1    S    
Cu2   O6    S    
C1    C10   S    
C36   O19   D    
C33   O13   D    
C20   H15   S    
C2    C3    S    
C9    C15   A    
O16   H18   S    
C12   O4    A    
C19   H3    S    
C11   C13   A    
C21   N2    A    
C16   H12   S    
C34   O15   D    
C2    C31   S    
C24   H17   S    
C22   C33   S    
C1    O2    A    
C6    C29   T    
O20   H23   S    
Cu1   O5    S    
C27   C28   S    
C23   O6    A    
Cu2   O2    S    
C14   C15   A    
C21   C22   S    
C11   H11   S    
