data_mof_unit_24578.cif
_audit_creation_date              2012-12-11T14:52:40-0500
_audit_creation_method            fapswitch 2.2
_symmetry_space_group_name_H-M    P1
_symmetry_Int_Tables_number       1
_space_group_crystal_system       triclinic
_cell_length_a                    18.855753
_cell_length_b                    10.897781
_cell_length_c                    18.796139
_cell_angle_alpha                 89.913242
_cell_angle_beta                  90.985344
_cell_angle_gamma                 89.784223
_cell_volume                      3861.7375765

loop_
_atom_site_label
_atom_site_type_symbol
_atom_type_description
_atom_site_fract_x
_atom_site_fract_y
_atom_site_fract_z
_atom_type_partial_charge
C1    C     C_R   0.272323 0.042178 0.853777 0.532166
C2    C     C_R   0.699887 0.527284 0.037459 -0.145741
C3    C     C_3   0.997405 0.329529 0.072993 0.051425
C4    C     C_R   0.807564 0.041224 0.963333 -0.152146
C5    C     C_R   0.194999 0.036459 0.036110 -0.146088
C6    C     C_R   0.298388 0.515848 0.036894 -0.146593
C7    C     C_R   0.704123 0.510929 0.964152 -0.143579
C8    C     C_R   0.801010 0.028039 0.036683 -0.152791
C9    C     C_R   0.199404 0.022845 0.962535 -0.148133
C10   C     C_R   0.246685 0.580442 0.075032 0.026025
C11   C     C_R   0.752632 0.580237 0.924753 0.029268
C12   C     C_R   0.737284 0.060682 0.069025 0.030835
C13   C     C_R   0.725517 0.037289 0.144128 0.548696
C14   C     C_R   0.255028 0.078738 0.925834 0.031736
C15   C     C_R   0.201733 0.663422 0.039783 -0.143545
C16   C     C_R   0.793884 0.669681 0.958484 -0.136519
C17   C     C_R   0.678856 0.097802 0.026866 -0.143832
C18   C     C_R   0.304436 0.150922 0.962841 -0.138479
C19   C     C_R   0.204176 0.674726 0.967119 -0.140289
C20   C     C_R   0.791040 0.683523 0.031080 -0.139193
C21   C     C_R   0.684704 0.107543 0.954235 -0.143119
C22   C     C_R   0.301714 0.160344 0.035449 -0.144286
C23   C     C_R   0.254239 0.608318 0.928023 0.028424
C24   C     C_R   0.772042 0.542287 0.853577 0.532835
C25   C     C_R   0.744985 0.611283 0.071471 0.024257
C26   C     C_R   0.749855 0.085136 0.922216 0.029776
C27   C     C_R   0.247006 0.103992 0.073030 0.029015
C28   C     C_R   0.526155 0.729201 0.544741 -0.126405
C29   C     C_R   0.533262 0.725261 0.472103 -0.089949
C30   C     C_R   0.026164 0.229206 0.544744 -0.126344
C31   C     C_R   0.033274 0.225265 0.472106 -0.089922
C32   C     C_R   0.516482 0.828480 0.430052 0.039775
C33   C     C_R   0.499691 0.834970 0.576670 0.015013
C34   C     C_R   0.016487 0.328481 0.430054 0.039894
C35   C     C_R   0.227961 0.542674 0.146452 0.547869
C36   C     C_R   0.999692 0.334971 0.576670 0.015149
C37   C     C_R   0.495037 0.937778 0.462253 -0.147894
C38   C     C_R   0.486264 0.940938 0.535593 -0.137415
C39   C     C_R   0.995034 0.437776 0.462252 -0.147834
C40   C     C_R   0.986259 0.440936 0.535592 -0.137354
C41   C     C_R   0.438562 0.817214 0.862503 0.561129
C42   C     C_R   0.527036 0.822094 0.145807 0.547693
C43   C     C_R   0.938661 0.317302 0.862488 0.561887
C44   C     C_R   0.027403 0.322070 0.145566 0.550375
C45   C     C_R   0.182921 0.585294 0.544488 -0.128732
C46   C     C_3   0.505591 0.726388 0.975600 -0.103057
C47   C     C_R   0.786565 0.695654 0.475239 -0.152916
C48   C     C_R   0.682916 0.085293 0.544492 -0.128695
C49   C     C_R   0.286561 0.195658 0.475238 -0.152781
C50   C     C_R   0.176745 0.578578 0.471944 -0.169580
C51   C     C_R   0.786956 0.684774 0.547755 -0.199688
C52   C     C_R   0.676742 0.078579 0.471947 -0.169712
C53   C     C_R   0.286953 0.184774 0.547754 -0.199624
C54   C     C_R   0.237513 0.562901 0.430545 0.041845
C55   C     C_R   0.746600 0.593123 0.578905 0.031392
C56   C     C_R   0.737509 0.062885 0.430550 0.041270
C57   C     C_3   0.453584 0.726530 0.038054 -0.116299
C58   C     C_R   0.246602 0.093114 0.578902 0.031349
C59   C     C_R   0.304214 0.546323 0.462614 0.344893
C60   C     C_R   0.697542 0.524500 0.537840 0.356779
C61   C     C_R   0.804207 0.046282 0.462623 0.344837
C62   C     C_R   0.197550 0.024478 0.537836 0.356677
C63   C     C_R   0.310419 0.554069 0.535674 -0.104039
C64   C     C_R   0.696902 0.536459 0.464792 -0.107616
C65   C     C_R   0.810410 0.054025 0.535682 -0.103809
C66   C     C_R   0.196911 0.036440 0.464788 -0.107724
C67   C     C_R   0.250093 0.580117 0.576032 -0.029795
C68   C     C_3   0.012603 0.235137 0.973378 -0.107491
C69   C     C_R   0.743575 0.618234 0.433347 -0.028162
C70   C     C_R   0.750086 0.080099 0.576037 -0.029519
C71   C     C_R   0.243578 0.118228 0.433345 -0.028001
C72   C     C_R   0.261689 0.640057 0.853315 0.534059
C73   C     C_R   0.738091 0.641275 0.146422 0.544511
C74   C     C_R   0.760563 0.134766 0.851320 0.531571
C75   C     C_R   0.238639 0.139081 0.147119 0.545489
C76   C     C_R   0.269973 0.048069 0.647230 0.565668
C77   C     C_R   0.726734 0.041608 0.356056 0.584239
C78   C     C_R   0.769972 0.548072 0.647231 0.565030
C79   C     C_3   0.961267 0.220621 0.035751 -0.118236
C80   C     C_R   0.226736 0.541615 0.356053 0.582026
C81   C     C_R   0.470686 0.824184 0.647377 0.557916
C82   C     C_R   0.533162 0.823014 0.355017 0.553547
C83   C     C_R   0.970686 0.324184 0.647377 0.558216
C84   C     C_R   0.033164 0.323014 0.355019 0.553801
C85   C     C_R   0.259624 0.633570 0.644971 0.558511
C86   C     C_R   0.738650 0.642613 0.358592 0.549247
C87   C     C_R   0.759622 0.133565 0.644973 0.556804
C88   C     C_R   0.238652 0.142609 0.358591 0.548536
C89   C     C_3   0.451334 0.928433 0.036586 -0.126852
C90   C     C_R   0.302674 0.530856 0.963440 -0.146753
C91   C     C_3   0.503113 0.928148 0.973416 -0.110678
C92   C     C_3   0.944996 0.420590 0.038408 -0.125985
C93   C     C_3   0.996113 0.434992 0.975189 -0.104948
C94   C     C_3   0.407338 0.825290 0.000059 -0.136362
C95   C     C_3   0.549129 0.829436 0.011213 -0.110302
C96   C     C_3   0.908363 0.311361 0.999880 -0.141183
C97   C     C_3   0.048838 0.344294 0.011027 -0.108110
C98   C     C_3   0.459791 0.824820 0.938345 0.051025
C99   C     C_3   0.497018 0.829387 0.073219 0.049040
C100  C     C_3   0.960115 0.325432 0.938170 0.049128
Cr1   Cr    Cr6+3 0.229630 0.835900 0.747350 1.065687
Cr2   Cr    Cr6+3 0.614200 0.677120 0.250660 1.034610
Cr3   Cr    Cr6+3 0.885800 0.177120 0.749340 1.018460
Cr4   Cr    Cr6+3 0.114200 0.177120 0.250660 1.033017
Cr5   Cr    Cr6+3 0.770370 0.835900 0.252650 1.060113
Cr6   Cr    Cr6+3 0.729630 0.335900 0.747350 1.066132
Cr7   Cr    Cr6+3 0.270370 0.335900 0.252650 1.059007
Cr8   Cr    Cr6+3 0.387410 0.989850 0.750850 1.016400
Cr9   Cr    Cr6+3 0.612590 0.989850 0.249150 1.019713
Cr10  Cr    Cr6+3 0.887410 0.489850 0.750850 1.019299
Cr11  Cr    Cr6+3 0.112590 0.489850 0.249150 1.022783
Cr12  Cr    Cr6+3 0.385800 0.677120 0.749340 1.020128
F1    F     F_    0.363070 0.526804 0.423474 -0.630806
F2    F     F_    0.654248 0.439634 0.567168 -0.624686
F3    F     F_    0.863062 0.026743 0.423486 -0.630619
F4    F     F_    0.154262 0.939601 0.567161 -0.624711
H1    H     H_    0.348660 0.823741 0.994038 0.123589
H2    H     H_    0.823232 0.741078 0.578806 0.149185
H3    H     H_    0.624021 0.085324 0.448451 0.157379
H4    H     H_    0.323224 0.241085 0.578806 0.149249
H5    H     H_    0.363001 0.549429 0.559731 0.165398
H6    H     H_    0.660751 0.481305 0.432942 0.151259
H7    H     H_    0.862990 0.049367 0.559742 0.165461
H8    H     H_    0.160765 0.981277 0.432936 0.151089
H9    H     H_    0.429526 0.010775 0.063216 0.118498
H10   H     H_    0.523472 0.010629 0.945860 0.116559
H11   H     H_    0.917417 0.496158 0.066363 0.124070
H12   H     H_    0.607872 0.831234 0.016828 0.124584
H13   H     H_    0.010633 0.522788 0.949291 0.127077
H14   H     H_    0.528398 0.643369 0.950411 0.131711
H15   H     H_    0.433355 0.644194 0.065843 0.125986
H16   H     H_    0.040786 0.159057 0.946461 0.130346
H17   H     H_    0.947394 0.132787 0.061830 0.119346
H18   H     H_    0.343081 0.481862 0.934523 0.123179
H19   H     H_    0.662497 0.473616 0.067473 0.128208
H20   H     H_    0.858523 0.023491 0.939607 0.129440
H21   H     H_    0.151176 0.995230 0.063827 0.124767
H22   H     H_    0.333558 0.450803 0.063264 0.124239
H23   H     H_    0.850187 0.298483 0.993877 0.122177
H24   H     H_    0.672044 0.440447 0.939053 0.135054
H25   H     H_    0.845604 0.994105 0.068077 0.115142
H26   H     H_    0.160758 0.966401 0.934833 0.120357
H27   H     H_    0.161688 0.715029 0.067772 0.133385
H28   H     H_    0.831242 0.724931 0.929325 0.134133
H29   H     H_    0.627732 0.117936 0.049662 0.137598
H30   H     H_    0.347928 0.195604 0.936330 0.133882
H31   H     H_    0.167231 0.738234 0.941962 0.134204
H32   H     H_    0.824678 0.752734 0.055275 0.138149
H33   H     H_    0.639054 0.139851 0.923715 0.128105
H34   H     H_    0.107010 0.358138 0.016702 0.124968
H35   H     H_    0.342039 0.215443 0.061668 0.128581
H36   H     H_    0.537451 0.646865 0.575375 0.169982
H37   H     H_    0.552704 0.640809 0.449101 0.162750
H38   H     H_    0.037464 0.146873 0.575380 0.169991
H39   H     H_    0.052723 0.140817 0.449105 0.162765
H40   H     H_    0.484134 0.019278 0.430806 0.132617
H41   H     H_    0.465348 0.023692 0.559377 0.147363
H42   H     H_    0.984125 0.519273 0.430804 0.132667
H43   H     H_    0.965337 0.523687 0.559375 0.147404
H44   H     H_    0.135959 0.603388 0.575322 0.161447
H45   H     H_    0.820073 0.765281 0.452249 0.192483
H46   H     H_    0.635954 0.103404 0.575324 0.161196
H47   H     H_    0.320063 0.265296 0.452250 0.192538
H48   H     H_    0.124022 0.585304 0.448450 0.157423
O1    O     O_R   0.214270 0.709000 0.827470 -0.530327
O2    O     O_R   0.543270 0.717630 0.330160 -0.505219
O3    O     O_R   0.956730 0.217630 0.669840 -0.513089
O4    O     O_R   0.043270 0.217630 0.330160 -0.505136
O5    O     O_R   0.320620 0.625640 0.672920 -0.515301
O6    O     O_R   0.679380 0.625640 0.327080 -0.512589
O7    O     O_R   0.820620 0.125640 0.672920 -0.515831
O8    O     O_R   0.179380 0.125640 0.327080 -0.513201
O9    O     O_3   0.334280 0.834290 0.749180 -0.276232
O10   O     O_3   0.665720 0.834290 0.250820 -0.268276
O11   O     O_3   0.834280 0.334290 0.749180 -0.275033
O12   O     O_R   0.785730 0.709000 0.172530 -0.528510
O13   O     O_3   0.165720 0.334290 0.250820 -0.265974
O14   O     O_R   0.236160 0.958490 0.823130 -0.515153
O15   O     O_R   0.763840 0.958490 0.176870 -0.505343
O16   O     O_R   0.736160 0.458490 0.823130 -0.513364
O17   O     O_R   0.263840 0.458490 0.176870 -0.505973
O18   O     O_R   0.332080 0.075470 0.831280 -0.534446
O19   O     O_R   0.667920 0.075470 0.168720 -0.524576
O20   O     O_R   0.832080 0.575470 0.831280 -0.532330
O21   O     O_R   0.167920 0.575470 0.168720 -0.521959
O22   O     O_R   0.446300 0.918110 0.826620 -0.502211
O23   O     O_R   0.714270 0.209000 0.827470 -0.529337
O24   O     O_R   0.553700 0.918110 0.173380 -0.505926
O25   O     O_R   0.946300 0.418110 0.826620 -0.500349
O26   O     O_R   0.053700 0.418110 0.173380 -0.500281
O27   O     O_R   0.457110 0.716200 0.831760 -0.519185
O28   O     O_R   0.542890 0.716200 0.168240 -0.514172
O29   O     O_R   0.957110 0.216200 0.831760 -0.520962
O30   O     O_R   0.042890 0.216200 0.168240 -0.516775
O31   O     O_R   0.320980 0.624310 0.823030 -0.522433
O32   O     O_R   0.679020 0.624310 0.176970 -0.501012
O33   O     O_R   0.820980 0.124310 0.823030 -0.524949
O34   O     O_R   0.285730 0.209000 0.172530 -0.529009
O35   O     O_R   0.179020 0.124310 0.176970 -0.502884
O36   O     O_R   0.213890 0.710430 0.665540 -0.468109
O37   O     O_R   0.786110 0.710430 0.334460 -0.508508
O38   O     O_R   0.713890 0.210430 0.665540 -0.469306
O39   O     O_R   0.286110 0.210430 0.334460 -0.508906
O40   O     O_R   0.235810 0.959820 0.673020 -0.424672
O41   O     O_R   0.764190 0.959820 0.326980 -0.445460
O42   O     O_R   0.735810 0.459820 0.673020 -0.424814
O43   O     O_R   0.264190 0.459820 0.326980 -0.446528
O44   O     O_R   0.331700 0.076900 0.669350 -0.537509
O45   O     O_R   0.445950 0.919440 0.676520 -0.499715
O46   O     O_R   0.668300 0.076900 0.330650 -0.538565
O47   O     O_R   0.831700 0.576900 0.669350 -0.537976
O48   O     O_R   0.168300 0.576900 0.330650 -0.540405
O49   O     O_R   0.554050 0.919440 0.323480 -0.513720
O50   O     O_R   0.945950 0.419440 0.676520 -0.499503
O51   O     O_R   0.054050 0.419440 0.323480 -0.513910
O52   O     O_R   0.456730 0.717630 0.669840 -0.513110

loop_
_geom_bond_atom_site_label_1
_geom_bond_atom_site_label_2
_ccdc_geom_bond_type
C58   C62   A    
C81   O45   A    
C21   C26   A    
C35   O21   A    
Cr2   O6    S    
C88   O8    A    
C91   H10   S    
C24   O20   A    
C72   O1    A    
C14   C18   A    
C40   H43   S    
C60   F2    S    
C2    C7    A    
C4    C8    A    
C3    C79   S    
C72   O31   A    
C68   C100  S    
Cr8   O45   S    
Cr1   O36   S    
C58   C76   S    
C89   H9    S    
Cr10  O11   S    
Cr3   O3    S    
C50   C54   A    
Cr7   O17   S    
Cr8   O22   S    
C28   C29   A    
C16   H28   S    
C25   C73   S    
Cr11  O51   S    
Cr6   O23   S    
C15   C19   A    
C29   C32   A    
Cr9   O49   S    
C10   C15   A    
C30   C31   A    
C90   H18   S    
C94   H1    S    
C93   H13   S    
C81   O52   A    
Cr4   O4    S    
C20   C25   A    
C94   C98   S    
C36   C83   S    
C65   C70   A    
C57   C99   S    
C11   C24   S    
C92   C96   S    
C51   H2    S    
C76   O44   A    
Cr3   O33   S    
C89   C94   S    
C68   H16   S    
C91   C98   S    
C68   C97   S    
C47   C69   A    
Cr1   O14   S    
C44   O26   A    
C5    C27   A    
Cr1   O9    S    
C95   H12   S    
C46   C95   S    
Cr4   O13   S    
C13   O19   A    
Cr5   O12   S    
C12   C17   A    
Cr8   O44   S    
Cr2   O28   S    
Cr6   O11   S    
C20   H32   S    
C8    H25   S    
C21   H33   S    
C8    C12   A    
C89   C91   S    
C87   O38   A    
Cr7   O43   S    
C84   O51   A    
C16   C20   A    
C4    H20   S    
Cr9   O19   S    
C68   C79   S    
C65   H7    S    
Cr12  O9    S    
C46   C98   S    
Cr10  O20   S    
Cr2   O2    S    
C18   C22   A    
C55   C60   A    
Cr7   O13   S    
Cr3   O7    S    
C37   H40   S    
Cr7   O39   S    
C45   H44   S    
C34   C84   S    
C96   H23   S    
C27   C75   S    
C70   C87   S    
Cr6   O16   S    
C63   H5    S    
Cr5   O15   S    
C7    C11   A    
C54   C80   S    
C54   C59   A    
Cr9   O24   S    
C4    C26   A    
C79   H17   S    
C79   C96   S    
C63   C67   A    
C3    C44   S    
Cr11  O21   S    
C67   C85   S    
C62   C66   A    
Cr11  O48   S    
C50   H48   S    
C34   C39   A    
C36   C40   A    
C43   C100  S    
C39   C40   A    
C55   C78   S    
C41   O27   A    
C61   F3    S    
C46   H14   S    
C47   C51   A    
C6    C90   A    
C83   O3    A    
C42   O28   A    
C85   O5    A    
C56   C77   S    
C9    H26   S    
C3    C92   S    
C6    H22   S    
C19   C23   A    
C9    C14   A    
C78   O42   A    
Cr12  O31   S    
C5    C9    A    
C37   C38   A    
C84   O4    A    
Cr8   O18   S    
C77   O41   A    
Cr6   O38   S    
C82   O49   A    
C1    O14   A    
C3    C97   S    
C85   O36   A    
Cr5   O37   S    
Cr12  O5    S    
C93   C100  S    
C74   O33   A    
C48   C52   A    
C97   H34   S    
C87   O7    A    
Cr8   O9    S    
Cr3   O11   S    
C23   C90   A    
C56   C61   A    
C32   C37   A    
Cr1   O1    S    
C92   C93   S    
C86   O37   A    
C10   C35   S    
C66   C71   A    
C15   H27   S    
C77   O46   A    
C89   C99   S    
C28   C33   A    
C28   H36   S    
C57   C94   S    
C39   H42   S    
C17   H29   S    
Cr4   O35   S    
C66   H8    S    
C35   O17   A    
Cr9   O46   S    
C92   H11   S    
C93   C97   S    
Cr4   O8    S    
C83   O50   A    
C31   C34   A    
C29   H37   S    
C74   O23   A    
C82   O2    A    
C75   O34   A    
C42   O24   A    
C22   H35   S    
Cr9   O10   S    
C86   O6    A    
C59   C63   A    
C23   C72   S    
C57   H15   S    
C95   C99   S    
C2    H19   S    
C38   H41   S    
C48   C70   A    
C59   F1    S    
C18   H30   S    
Cr1   O40   S    
Cr2   O32   S    
Cr5   O10   S    
Cr6   O42   S    
Cr7   O34   S    
C31   H39   S    
C1    O18   A    
C76   O40   A    
Cr5   O41   S    
C45   C67   A    
C75   O35   A    
Cr2   O10   S    
C64   C69   A    
C43   O29   A    
Cr10  O25   S    
C22   C27   A    
C33   C38   A    
C30   C36   A    
C60   C64   A    
Cr10  O47   S    
C5    H21   S    
C46   C57   S    
C13   O15   A    
C42   C99   S    
C32   C82   S    
C7    H24   S    
C45   C50   A    
C73   O12   A    
C49   C53   A    
C24   O16   A    
C96   C100  S    
C44   O30   A    
C26   C74   S    
Cr12  O27   S    
C41   O22   A    
C2    C25   A    
C51   C55   A    
Cr12  O52   S    
C88   O39   A    
C80   O48   A    
C19   H31   S    
C49   H47   S    
C11   C16   A    
C6    C10   A    
C91   C95   S    
C71   C88   S    
C47   H45   S    
C52   H3    S    
C61   C65   A    
C30   H38   S    
C80   O43   A    
C48   H46   S    
C12   C13   S    
C43   O25   A    
Cr11  O26   S    
C64   H6    S    
C49   C71   A    
C73   O32   A    
C53   H4    S    
Cr11  O13   S    
Cr4   O30   S    
C41   C98   S    
C1    C14   S    
Cr3   O29   S    
C33   C81   S    
C78   O47   A    
C53   C58   A    
C69   C86   S    
C52   C56   A    
Cr10  O50   S    
C62   F4    S    
C17   C21   A    
