data_mof_unit_18293.cif
_audit_creation_date              2012-12-11T14:44:02-0500
_audit_creation_method            fapswitch 2.2
_symmetry_space_group_name_H-M    P1
_symmetry_Int_Tables_number       1
_space_group_crystal_system       triclinic
_cell_length_a                    19.121451
_cell_length_b                    11.026544
_cell_length_c                    18.69462
_cell_angle_alpha                 89.832536
_cell_angle_beta                  89.638533
_cell_angle_gamma                 90.081817
_cell_volume                      3941.54010159

loop_
_atom_site_label
_atom_site_type_symbol
_atom_type_description
_atom_site_fract_x
_atom_site_fract_y
_atom_site_fract_z
_atom_type_partial_charge
C1    C     C_R   0.731430 0.381748 0.148026 0.558336
C2    C     C_R   0.268466 0.382344 0.851972 0.562712
C3    C     C_R   0.228824 0.873573 0.145194 0.578805
C4    C     C_R   0.769423 0.877612 0.852952 0.577998
C5    C     C_R   0.514893 0.390820 0.925294 0.124355
C6    C     C_R   0.484772 0.382297 0.072364 0.118691
C7    C     C_R   0.030875 0.880677 0.921838 0.099177
C8    C     C_R   0.997819 0.895317 0.068675 0.113951
C9    C     C_R   0.031489 0.991406 0.956943 -0.088331
C10   C     C_R   0.015773 0.998548 0.029587 -0.082416
C11   C     C_R   0.505869 0.496412 0.964506 -0.106315
C12   C     C_R   0.494984 0.492079 0.037750 -0.104724
C13   C     C_R   0.687779 0.031954 0.011553 -0.127157
C14   C     C_R   0.324314 0.994277 0.984103 -0.115941
C15   C     C_R   0.172654 0.455465 0.023231 -0.116467
C16   C     C_R   0.822872 0.436184 0.973775 -0.122968
C17   C     C_R   0.699784 0.000723 0.939258 0.098373
C18   C     C_R   0.311590 0.963087 0.056453 0.114475
C19   C     C_R   0.179648 0.427995 0.949637 0.097378
C20   C     C_R   0.817191 0.411404 0.047420 0.088064
C21   C     C_R   0.750854 0.912825 0.924282 0.062471
C22   C     C_R   0.247016 0.910261 0.073978 0.051224
C23   C     C_R   0.244509 0.447282 0.916472 0.024043
C24   C     C_R   0.755543 0.443390 0.082960 0.015134
C25   C     C_R   0.794665 0.871186 0.978637 -0.113308
C26   C     C_R   0.194446 0.903852 0.022951 -0.123643
C27   C     C_R   0.292751 0.523800 0.949780 -0.113825
C28   C     C_R   0.709741 0.525625 0.050911 -0.117703
C29   C     C_R   0.797776 0.941811 0.038856 0.117201
C30   C     C_R   0.200537 0.983077 0.966833 0.097662
C31   C     C_R   0.284492 0.557746 0.020191 0.071389
C32   C     C_R   0.717000 0.557587 0.980023 0.066606
C33   C     C_R   0.734378 0.987805 0.063849 0.019997
C34   C     C_R   0.267021 0.993002 0.936568 0.018181
C35   C     C_R   0.228166 0.511104 0.060876 0.000375
C36   C     C_R   0.770333 0.503591 0.938244 0.000686
C37   C     C_R   0.522894 0.048211 0.473140 0.091802
C38   C     C_R   0.528159 0.058675 0.547053 0.097928
C39   C     C_R   0.022928 0.548177 0.473154 0.092094
C40   C     C_R   0.028168 0.558611 0.547072 0.096646
C41   C     C_R   0.505571 0.166538 0.579517 0.008765
C42   C     C_R   0.515037 0.155873 0.431062 0.006034
C43   C     C_R   0.005605 0.666500 0.579537 0.006813
C44   C     C_R   0.015103 0.655862 0.431088 0.004631
C45   C     C_R   0.534286 0.154784 0.145191 0.576122
C46   C     C_R   0.469321 0.155578 0.852220 0.569806
C47   C     C_R   0.032056 0.656301 0.146680 0.554366
C48   C     C_R   0.968063 0.655245 0.853069 0.563035
C49   C     C_R   0.496275 0.271842 0.538447 -0.172591
C50   C     C_R   0.503573 0.267215 0.464753 -0.177359
C51   C     C_R   0.996365 0.771826 0.538478 -0.172614
C52   C     C_R   0.003674 0.767208 0.464787 -0.178150
C53   C     C_R   0.762157 0.068723 0.483742 -0.135842
C54   C     C_R   0.184962 0.924864 0.544303 -0.133002
C55   C     C_R   0.262187 0.568695 0.483726 -0.135856
C56   C     C_R   0.684941 0.424752 0.544334 -0.132354
C57   C     C_R   0.770435 0.037092 0.554933 -0.113367
C58   C     C_R   0.178756 0.914969 0.471453 -0.127692
C59   C     C_R   0.270473 0.537054 0.554912 -0.115723
C60   C     C_R   0.678731 0.414836 0.471483 -0.127128
C61   C     C_R   0.750882 0.921038 0.577856 0.046322
C62   C     C_R   0.238620 0.901812 0.428068 0.019635
C63   C     C_R   0.250891 0.421014 0.577842 0.045735
C64   C     C_R   0.738596 0.401721 0.428096 0.019801
C65   C     C_R   0.722315 0.837498 0.529743 -0.105049
C66   C     C_R   0.304849 0.895388 0.458423 -0.148798
C67   C     C_R   0.222299 0.337487 0.529735 -0.103380
C68   C     C_R   0.804827 0.395312 0.458448 -0.150972
C69   C     C_R   0.713088 0.869941 0.459037 -0.093005
C70   C     C_R   0.311256 0.906390 0.531899 -0.139045
C71   C     C_R   0.213078 0.369929 0.459029 -0.091041
C72   C     C_R   0.811237 0.406315 0.531922 -0.139164
C73   C     C_R   0.733911 0.985221 0.435812 0.030915
C74   C     C_R   0.251210 0.924498 0.574618 0.017391
C75   C     C_R   0.233919 0.485203 0.435803 0.030708
C76   C     C_R   0.751193 0.424427 0.574643 0.018471
C77   C     C_R   0.727933 0.020224 0.139632 0.557678
C78   C     C_R   0.272502 0.020928 0.860005 0.565621
C79   C     C_R   0.226890 0.523799 0.140195 0.573782
C80   C     C_R   0.772674 0.521753 0.859841 0.571053
C81   C     C_R   0.727949 0.375390 0.353571 0.539578
C82   C     C_R   0.270471 0.378601 0.647907 0.553089
C83   C     C_R   0.227966 0.875437 0.353550 0.549676
C84   C     C_R   0.770461 0.878628 0.647921 0.560322
C85   C     C_R   0.534734 0.155036 0.355465 0.566059
C86   C     C_R   0.470516 0.157501 0.648499 0.575309
C87   C     C_R   0.034770 0.655032 0.355484 0.556507
C88   C     C_R   0.970520 0.657493 0.648503 0.571195
C89   C     C_R   0.728057 0.019222 0.361565 0.545476
C90   C     C_R   0.258974 0.971116 0.645967 0.554566
C91   C     C_R   0.228059 0.519215 0.361563 0.546252
C92   C     C_R   0.758967 0.471093 0.645978 0.558715
C93   C     C_R   0.502709 0.165152 0.922064 0.028971
C94   C     C_R   0.509535 0.161511 0.071247 0.020451
C95   C     C_R   0.996465 0.663424 0.925029 0.024218
C96   C     C_R   0.004020 0.668103 0.074384 0.013436
C97   C     C_R   0.506279 0.276505 0.959665 0.009875
C98   C     C_R   0.498968 0.273145 0.035466 0.001380
C99   C     C_R   0.010314 0.774827 0.959623 -0.005555
C100  C     C_R   0.002485 0.779770 0.035658 -0.015299
C101  C     C_R   0.515689 0.054246 0.031532 -0.157678
C102  C     C_R   0.511909 0.055930 0.958675 -0.154713
C103  C     C_R   0.000771 0.560046 0.036900 -0.151993
C104  C     C_R   0.990250 0.558400 0.965585 -0.148069
Cr1   Cr    Cr6+3 0.772000 0.169640 0.250110 1.092226
Cr2   Cr    Cr6+3 0.228000 0.169640 0.749890 1.100153
Cr3   Cr    Cr6+3 0.272000 0.669640 0.250110 1.090542
Cr4   Cr    Cr6+3 0.728000 0.669640 0.749890 1.098421
Cr5   Cr    Cr6+3 0.614960 0.323350 0.249260 1.048398
Cr6   Cr    Cr6+3 0.385040 0.323350 0.750740 1.054044
Cr7   Cr    Cr6+3 0.114960 0.823350 0.249260 1.060337
Cr8   Cr    Cr6+3 0.885040 0.823350 0.750740 1.065860
Cr9   Cr    Cr6+3 0.616670 0.010620 0.250840 1.077049
Cr10  Cr    Cr6+3 0.383330 0.010620 0.749160 1.066044
Cr11  Cr    Cr6+3 0.116670 0.510620 0.250840 1.083074
Cr12  Cr    Cr6+3 0.883330 0.510620 0.749160 1.075548
H1    H     H_    0.525173 0.967082 0.056537 0.186589
H2    H     H_    0.513097 0.969505 0.931211 0.184725
H3    H     H_    0.010261 0.473903 0.061605 0.185659
H4    H     H_    0.977276 0.471915 0.942643 0.181507
H5    H     H_    0.793955 0.101262 0.591430 0.144208
H6    H     H_    0.126620 0.916090 0.449267 0.150404
H7    H     H_    0.294018 0.601211 0.591402 0.140019
H8    H     H_    0.626594 0.415926 0.449296 0.150321
H9    H     H_    0.649084 0.098796 0.025711 0.121583
H10   H     H_    0.375127 0.024366 0.966418 0.135028
H11   H     H_    0.125804 0.428086 0.051354 0.162201
H12   H     H_    0.867193 0.401104 0.944475 0.163604
H13   H     H_    0.480141 0.356377 0.562840 0.158094
H14   H     H_    0.498184 0.349985 0.433921 0.153143
H15   H     H_    0.980256 0.856374 0.562874 0.158272
H16   H     H_    0.998313 0.849993 0.433962 0.153364
O1    O     O_R   0.787540 0.042690 0.170470 -0.442031
O2    O     O_R   0.212460 0.042690 0.829530 -0.457505
O3    O     O_R   0.287540 0.542690 0.170470 -0.435661
O4    O     O_R   0.712460 0.542690 0.829530 -0.438538
O5    O     O_R   0.556540 0.252920 0.323970 -0.499908
O6    O     O_R   0.443460 0.252920 0.676030 -0.497741
O7    O     O_R   0.056540 0.752920 0.323970 -0.501034
O8    O     O_R   0.943460 0.752920 0.676030 -0.498700
O9    O     O_R   0.545870 0.051100 0.330840 -0.473533
O10   O     O_R   0.454130 0.051100 0.669160 -0.479731
O11   O     O_R   0.045870 0.551100 0.330840 -0.476862
O12   O     O_R   0.954130 0.551100 0.669160 -0.478019
O13   O     O_R   0.681340 0.959300 0.325510 -0.486053
O14   O     O_R   0.318660 0.959300 0.674490 -0.503288
O15   O     O_R   0.181340 0.459300 0.325510 -0.480229
O16   O     O_R   0.818660 0.459300 0.674490 -0.499416
O17   O     O_3   0.667880 0.167870 0.250070 -0.325329
O18   O     O_3   0.332120 0.167870 0.749930 -0.302964
O19   O     O_3   0.167880 0.667870 0.250070 -0.334145
O20   O     O_3   0.832120 0.667870 0.749930 -0.312275
O21   O     O_R   0.765660 0.292160 0.175050 -0.470571
O22   O     O_R   0.234340 0.292160 0.824950 -0.468167
O23   O     O_R   0.265660 0.792160 0.175050 -0.478905
O24   O     O_R   0.734340 0.792160 0.824950 -0.484718
O25   O     O_R   0.670190 0.408980 0.168550 -0.524609
O26   O     O_R   0.329810 0.408980 0.831450 -0.527272
O27   O     O_R   0.170190 0.908980 0.168550 -0.493987
O28   O     O_R   0.829810 0.908980 0.831450 -0.489295
O29   O     O_R   0.556580 0.251450 0.175160 -0.482365
O30   O     O_R   0.443420 0.251450 0.824840 -0.483708
O31   O     O_R   0.056580 0.751450 0.175160 -0.488580
O32   O     O_R   0.943420 0.751450 0.824840 -0.486911
O33   O     O_R   0.545920 0.049510 0.170320 -0.503118
O34   O     O_R   0.454080 0.049510 0.829680 -0.516797
O35   O     O_R   0.045920 0.549510 0.170320 -0.514071
O36   O     O_R   0.954080 0.549510 0.829680 -0.509915
O37   O     O_R   0.681390 0.957840 0.176710 -0.489381
O38   O     O_R   0.318610 0.957840 0.823290 -0.493343
O39   O     O_R   0.181390 0.457840 0.176710 -0.477272
O40   O     O_R   0.818610 0.457840 0.823290 -0.490881
O41   O     O_R   0.787500 0.044280 0.330990 -0.484442
O42   O     O_R   0.212500 0.044280 0.669010 -0.499692
O43   O     O_R   0.287500 0.544280 0.330990 -0.482748
O44   O     O_R   0.712500 0.544280 0.669010 -0.500811
O45   O     O_R   0.765610 0.293630 0.323860 -0.512819
O46   O     O_R   0.234390 0.293630 0.676140 -0.483159
O47   O     O_R   0.265610 0.793630 0.323860 -0.510726
O48   O     O_R   0.734390 0.793630 0.676140 -0.483480
O49   O     O_R   0.670140 0.410570 0.329080 -0.515041
O50   O     O_R   0.329860 0.410570 0.670920 -0.518108
O51   O     O_R   0.170140 0.910570 0.329080 -0.507605
O52   O     O_R   0.829860 0.910570 0.670920 -0.513997
H17   H     H_    0.778883 0.157086 0.465560 0.134882
H18   H     H_    0.138307 0.938674 0.576491 0.150598
H19   H     H_    0.278925 0.657058 0.465543 0.133862
H20   H     H_    0.638288 0.438556 0.576525 0.150456
H21   H     H_    0.709110 0.745962 0.546328 0.152434
H22   H     H_    0.350910 0.881885 0.425479 0.167715
H23   H     H_    0.209077 0.245958 0.546324 0.153345
H24   H     H_    0.850890 0.381823 0.425505 0.165955
H25   H     H_    0.692086 0.803681 0.422260 0.162922
H26   H     H_    0.363262 0.907383 0.554566 0.171416
H27   H     H_    0.192065 0.303675 0.422252 0.165792
H28   H     H_    0.863246 0.407323 0.554584 0.171623
I1    I     I_    0.560977 0.419487 0.821974 -0.222033
I2    I     I_    0.427741 0.392525 0.170970 -0.202573
I3    I     I_    0.079117 0.880414 0.818372 -0.268531
I4    I     I_    0.945974 0.930710 0.168377 -0.218742
H29   H     H_    0.044948 0.073004 0.927696 0.196354
H30   H     H_    0.013944 0.086716 0.054866 0.198193
H31   H     H_    0.507695 0.583289 0.937902 0.176933
H32   H     H_    0.492834 0.575216 0.067849 0.177634
I5    I     I_    0.658753 0.103284 0.853463 -0.295605
I6    I     I_    0.380425 0.000860 0.141302 -0.269549
I7    I     I_    0.094829 0.356650 0.888657 -0.315005
I8    I     I_    0.902206 0.339482 0.107787 -0.304682
H33   H     H_    0.838490 0.812415 0.966054 0.126668
H34   H     H_    0.143489 0.868270 0.037028 0.138240
H35   H     H_    0.339863 0.553144 0.922241 0.170634
H36   H     H_    0.665203 0.561227 0.080123 0.171828
I9    I     I_    0.860770 0.088073 0.004420 -0.334435
I10   I     I_    0.170369 0.149776 0.012292 -0.378662
I11   I     I_    0.362030 0.679161 0.055283 -0.374553
I12   I     I_    0.641510 0.685936 0.946303 -0.391429
I13   I     I_    0.516530 0.864726 0.432440 -0.337683
I14   I     I_    0.568205 0.910192 0.610303 -0.290147
I15   I     I_    0.016565 0.364698 0.432427 -0.334107
I16   I     I_    0.068120 0.410015 0.610315 -0.289979

loop_
_geom_bond_atom_site_label_1
_geom_bond_atom_site_label_2
_ccdc_geom_bond_type
C58   C62   A    
Cr1   O21   S    
C62   C83   S    
C101  C102  A    
Cr2   O18   S    
C48   C95   S    
C55   C59   A    
C92   O16   A    
C38   I14   S    
C19   C23   A    
C89   O41   A    
C72   C76   A    
Cr5   O25   S    
C91   O15   A    
C97   C98   A    
Cr6   O30   S    
Cr7   O7    S    
Cr8   O52   S    
C71   C75   A    
C4    O28   A    
C80   O4    A    
C92   O44   A    
C89   O13   A    
C41   C86   S    
Cr4   O48   S    
C65   H21   S    
C57   C61   A    
C7    C99   A    
C56   C76   A    
C43   C88   S    
C64   C68   A    
C39   I15   S    
C20   I8    S    
C15   C19   A    
Cr9   O33   S    
C67   H23   S    
C31   I11   S    
C94   C98   A    
C95   C99   A    
Cr9   O13   S    
Cr4   O44   S    
C37   I13   S    
C78   O38   A    
C45   O29   A    
Cr12  O40   S    
C25   C29   A    
Cr5   O5    S    
C38   C41   A    
C79   O39   A    
C37   C42   A    
C84   O48   A    
C53   H17   S    
Cr10  O38   S    
C88   O8    A    
Cr3   O3    S    
C50   H14   S    
C54   C74   A    
C29   I9    S    
C41   C49   A    
C40   C43   A    
C20   C24   A    
C29   C33   A    
C88   O12   A    
Cr2   O22   S    
C48   O36   A    
C70   C74   A    
C47   C96   S    
Cr8   O20   S    
C69   C73   A    
C10   H30   S    
C23   C27   A    
C44   C87   S    
Cr8   O28   S    
C9    C10   A    
C54   H18   S    
Cr6   O26   S    
C16   C20   A    
C47   O31   A    
C44   C52   A    
C2    O22   A    
Cr4   O20   S    
Cr1   O41   S    
C40   I16   S    
C19   I7    S    
C18   I6    S    
C77   O1    A    
C27   H35   S    
C45   C94   S    
C69   H25   S    
C103  C104  A    
Cr10  O34   S    
Cr11  O11   S    
Cr3   O19   S    
C59   H7    S    
Cr8   O32   S    
C63   C67   A    
C58   H6    S    
C30   C34   A    
C63   C82   S    
C27   C31   A    
C51   C52   A    
C6    C98   A    
C56   H20   S    
C28   C32   A    
Cr7   O31   S    
C94   C101  A    
Cr12  O12   S    
Cr11  O39   S    
C36   C80   S    
C85   O9    A    
C39   C40   A    
C6    I2    S    
C55   C75   A    
C62   C66   A    
C5    I1    S    
C72   H28   S    
C49   H13   S    
C17   C21   A    
C56   C60   A    
Cr7   O19   S    
C68   C72   A    
C52   H16   S    
C86   O6    A    
Cr5   O17   S    
C73   C89   S    
C13   C33   A    
C37   C38   A    
Cr9   O17   S    
C30   I10   S    
Cr10  O18   S    
C47   O35   A    
C93   C97   A    
C71   H27   S    
C99   C100  A    
Cr4   O24   S    
C84   O52   A    
C70   H26   S    
C7    C9    A    
C82   O46   A    
Cr7   O51   S    
Cr2   O42   S    
C83   O51   A    
C26   H34   S    
C42   C85   S    
C11   H31   S    
C25   H33   S    
C78   O2    A    
C1    O21   A    
Cr10  O14   S    
C9    H29   S    
Cr7   O27   S    
C76   C92   S    
Cr6   O6    S    
Cr1   O45   S    
C4    O24   A    
C42   C50   A    
C26   C30   A    
C55   H19   S    
C46   O30   A    
C31   C35   A    
C8    I4    S    
C60   H8    S    
C3    O23   A    
C80   O40   A    
Cr11  O35   S    
Cr8   O8    S    
C85   O5    A    
Cr12  O20   S    
C79   O3    A    
C95   C104  A    
C86   O10   A    
Cr12  O16   S    
C54   C58   A    
Cr5   O49   S    
Cr10  O10   S    
C77   O37   A    
C21   C25   A    
C81   O49   A    
C53   C57   A    
C46   O34   A    
C16   H12   S    
Cr3   O47   S    
C18   C22   A    
Cr1   O1    S    
C53   C73   A    
C14   C18   A    
C103  H3    S    
C24   C28   A    
C87   O7    A    
Cr6   O18   S    
C61   C84   S    
C102  H2    S    
C93   C102  A    
C14   C34   A    
Cr9   O37   S    
C11   C12   A    
C32   C36   A    
C5    C11   A    
C39   C44   A    
C48   O32   A    
C75   C91   S    
C28   H36   S    
Cr1   O17   S    
C82   O50   A    
C59   C63   A    
C14   H10   S    
Cr4   O4    S    
C83   O47   A    
C60   C64   A    
Cr11  O15   S    
C101  H1    S    
C74   C90   S    
C17   I5    S    
C8    C100  A    
C81   O45   A    
C90   O14   A    
Cr5   O29   S    
C16   C36   A    
C6    C12   A    
C4    C21   S    
C33   C77   S    
C66   C70   A    
C46   C93   S    
Cr3   O43   S    
C43   C51   A    
C65   C69   A    
C96   C100  A    
C1    O25   A    
Cr9   O9    S    
C5    C97   A    
C67   C71   A    
C12   H32   S    
C7    I3    S    
Cr3   O23   S    
C64   C81   S    
C15   C35   A    
C90   O42   A    
C66   H22   S    
C3    O27   A    
C57   H5    S    
C13   C17   A    
C32   I12   S    
C61   C65   A    
Cr2   O2    S    
C2    O26   A    
Cr6   O50   S    
C1    C24   S    
C8    C10   A    
C49   C50   A    
C22   C26   A    
C51   H15   S    
Cr11  O19   S    
C2    C23   S    
C68   H24   S    
Cr12  O36   S    
C3    C22   S    
C15   H11   S    
C35   C79   S    
C87   O11   A    
C96   C103  A    
C45   O33   A    
C13   H9    S    
Cr2   O46   S    
C34   C78   S    
C91   O43   A    
C104  H4    S    
