data_mof_unit_42630.cif
_audit_creation_date              2012-12-11T14:35:54-0500
_audit_creation_method            fapswitch 2.2
_symmetry_space_group_name_H-M    P1
_symmetry_Int_Tables_number       1
_space_group_crystal_system       triclinic
_cell_length_a                    14.484079
_cell_length_b                    15.996053
_cell_length_c                    6.946636
_cell_angle_alpha                 89.721866
_cell_angle_beta                  81.140697
_cell_angle_gamma                 90.039149
_cell_volume                      1590.23089297

loop_
_atom_site_label
_atom_site_type_symbol
_atom_type_description
_atom_site_fract_x
_atom_site_fract_y
_atom_site_fract_z
_atom_type_partial_charge
O1    O     O_R   0.337460 0.413110 0.524760 -0.553204
O2    O     O_R   0.662540 0.913110 0.475240 -0.553201
O3    O     O_R   0.348690 0.587910 0.191230 -0.514471
O4    O     O_R   0.651310 0.087910 0.808770 -0.515903
O5    O     O_R   0.166530 0.586890 0.082470 -0.548371
O6    O     O_R   0.833470 0.086890 0.917530 -0.546088
C1    C     C_R   0.369464 0.617415 0.353651 0.753660
C2    C     C_R   0.629498 0.116181 0.645535 0.734755
O7    O     O_R   0.348700 0.413830 0.191250 -0.497988
O8    O     O_R   0.651300 0.913830 0.808750 -0.500704
O9    O     O_R   0.166530 0.411570 0.082490 -0.544539
O10   O     O_R   0.833470 0.911570 0.917510 -0.537889
C3    C     C_R   0.371411 0.385456 0.353880 0.644004
C4    C     C_R   0.632911 0.882320 0.646408 0.648652
O11   O     O_R   0.337460 0.588430 0.524740 -0.543018
O12   O     O_R   0.662540 0.088430 0.475260 -0.538451
O13   O     O_3   0.192230 0.499460 0.407330 -0.389724
O14   O     O_3   0.807770 0.999460 0.592670 -0.390606
V1    V     V_3+5 0.263080 0.500100 0.108540 1.519871
V2    V     V_3+5 0.736920 0.000100 0.891460 1.531565
O15   O     O_R   0.155290 0.412090 0.756570 -0.548954
O16   O     O_R   0.844710 0.912090 0.243430 -0.549465
C5    C     C_R   0.132794 0.382901 0.932922 0.649898
C6    C     C_R   0.867061 0.882757 0.067558 0.669549
O17   O     O_R   0.155290 0.586170 0.756550 -0.547986
O18   O     O_R   0.844710 0.086170 0.243450 -0.547620
C7    C     C_R   0.132427 0.615286 0.932961 0.641427
C8    C     C_R   0.867404 0.115340 0.066680 0.658028
V3    V     V_3+5 0.240910 0.499900 0.616030 1.421438
V4    V     V_3+5 0.759090 0.999900 0.383970 1.431859
O19   O     O_3   0.311760 0.500540 0.867100 -0.339176
O20   O     O_3   0.688240 0.000540 0.132900 -0.347978
C9    C     C_3   0.043777 0.712055 0.187800 -0.301353
C10   C     C_3   0.956565 0.212534 0.811578 -0.305576
H1    H     H_    0.017111 0.657408 0.279752 0.139265
H2    H     H_    0.983360 0.158084 0.720529 0.133093
H3    H     H_    0.110641 0.731839 0.234311 0.131999
H4    H     H_    0.889962 0.232458 0.763923 0.143719
C11   C     C_3   0.972483 0.784398 0.224976 -0.320252
C12   C     C_3   0.028075 0.284884 0.774950 -0.316440
H5    H     H_    0.005745 0.838400 0.288159 0.134373
H6    H     H_    0.995273 0.338979 0.710217 0.139944
H7    H     H_    0.912206 0.763971 0.334388 0.146689
H8    H     H_    0.088694 0.264612 0.666871 0.135885
H9    H     H_    0.938299 0.604607 0.996882 0.131655
H10   H     H_    0.061349 0.104977 0.004947 0.121937
H11   H     H_    0.832131 0.711896 0.054135 0.153975
H12   H     H_    0.167794 0.212567 0.950325 0.141445
C13   C     C_3   0.965806 0.660777 0.911659 -0.331302
C14   C     C_3   0.033500 0.160766 0.089723 -0.334799
C15   C     C_3   0.096533 0.765275 0.847838 -0.312826
C16   C     C_3   0.902727 0.265054 0.150472 -0.301758
C17   C     C_3   0.061326 0.686463 0.968709 0.104451
C18   C     C_3   0.938362 0.186566 0.030769 0.101507
H13   H     H_    0.108501 0.750030 0.689794 0.134774
H14   H     H_    0.890205 0.249439 0.308671 0.138740
H15   H     H_    0.164703 0.785793 0.886706 0.130750
H16   H     H_    0.834774 0.285553 0.110281 0.160143
C19   C     C_3   0.937796 0.811445 0.033281 0.084962
C20   C     C_3   0.061947 0.311642 0.967363 0.104298
C21   C     C_3   0.893796 0.733368 0.949935 -0.264628
C22   C     C_3   0.105490 0.233575 0.052725 -0.297150
C23   C     C_3   0.024687 0.837958 0.885281 -0.328859
C24   C     C_3   0.974631 0.337907 0.113437 -0.328450
H17   H     H_    0.058586 0.893239 0.941642 0.121301
H18   H     H_    0.941086 0.393211 0.055441 0.130255
H19   H     H_    0.002750 0.856923 0.744757 0.138527
H20   H     H_    0.995941 0.356713 0.254277 0.141373
H21   H     H_    0.974971 0.643563 0.754844 0.144140
H22   H     H_    0.023707 0.142922 0.246605 0.138137
H23   H     H_    0.868414 0.749978 0.811384 0.163810
H24   H     H_    0.129783 0.249980 0.192197 0.140756
H25   H     H_    0.526432 0.831813 0.394142 0.146921
H26   H     H_    0.425735 0.301645 0.650736 0.195127
H27   H     H_    0.487761 0.654237 0.590516 0.227031
H28   H     H_    0.515876 0.157023 0.391805 0.201604
C25   C     C_2   0.429956 0.691752 0.347829 -0.287621
C26   C     C_2   0.566179 0.187678 0.650621 -0.244505
C27   C     C_2   0.482463 0.704483 0.488051 -0.058437
C28   C     C_2   0.514688 0.201713 0.509408 -0.051437
C29   C     C_2   0.578320 0.803662 0.654633 0.296405
C30   C     C_2   0.439497 0.316029 0.344633 0.260154
C31   C     C_2   0.530741 0.785089 0.506672 -0.259576
C32   C     C_2   0.456703 0.277674 0.509530 -0.221763
H29   H     H_    0.424993 0.739770 0.239150 0.185059
H30   H     H_    0.568439 0.233525 0.761640 0.250193
S1    S     S_3+6 0.592606 0.729377 0.839241 -0.046882
O21   O     O_2   0.500017 0.690733 0.918464 -0.363967
O22   O     O_2   0.657728 0.662071 0.750265 -0.349846
O23   O     O_3   0.637903 0.773741 0.023007 -0.515379
H31   H     H_    0.646731 0.727002 0.112417 0.352223
S2    S     S_3+6 0.495496 0.283732 0.113616 -0.064363
O24   O     O_2   0.593873 0.255620 0.122358 -0.366521
O25   O     O_2   0.440545 0.211971 0.049970 -0.356494
O26   O     O_3   0.498816 0.362161 0.950332 -0.508508
H32   H     H_    0.541332 0.404361 0.993166 0.342703

loop_
_geom_bond_atom_site_label_1
_geom_bond_atom_site_label_2
_ccdc_geom_bond_type
V4    O20   S    
S1    O21   D    
C23   H17   S    
C12   C20   S    
O13   V3    S    
O26   H32   S    
O4    C2    A    
V1    O19   S    
C11   H5    S    
O9    V1    S    
C9    C11   S    
C10   C12   S    
C24   H20   S    
O3    C1    A    
C26   C28   D    
O12   V4    S    
C30   S2    S    
O17   V3    S    
C20   C22   S    
O7    C3    A    
O13   V1    S    
O5    C7    A    
O7    V1    S    
O6    C8    A    
O8    V2    S    
O3    V1    S    
O14   V4    S    
O14   V2    S    
C28   C32   S    
C1    C25   S    
C21   H23   S    
C12   H6    S    
C25   H29   S    
C2    O12   A    
C13   H21   S    
C2    C26   S    
O1    V3    S    
C29   C31   D    
C16   C18   S    
O11   V3    S    
C25   C27   D    
C9    C17   S    
C5    C20   S    
C23   H19   S    
C19   C21   S    
C13   C21   S    
C15   C23   S    
C16   C24   S    
C8    C18   S    
C11   H7    S    
C1    O11   A    
O15   V3    S    
C3    C30   S    
S2    O26   S    
C9    H3    S    
C15   C17   S    
C24   H18   S    
H12   C22   S    
H9    C13   S    
C11   C19   S    
O10   V2    S    
S2    O25   D    
C22   H24   S    
C14   C18   S    
C29   S1    S    
C16   H16   S    
C15   H15   S    
C10   C18   S    
C30   C32   D    
O15   C5    A    
O8    C4    A    
C14   C22   S    
O16   C6    A    
O1    C3    A    
V2    O20   S    
O10   C6    A    
O16   V4    S    
C10   H4    S    
C19   C23   S    
H28   C28   S    
H26   C32   S    
H11   C21   S    
C7    C17   S    
O18   V4    S    
O5    V1    S    
O17   C7    A    
O6    V2    S    
H10   C14   S    
O18   C8    A    
O2    V4    S    
C20   C24   S    
S1    O22   D    
C14   H22   S    
V3    O19   S    
C27   C31   S    
C26   H30   S    
O23   H31   S    
C6    C19   S    
C13   C17   S    
O9    C5    A    
S2    O24   D    
C9    H1    S    
C10   H2    S    
C15   H13   S    
O2    C4    A    
O4    V2    S    
C12   H8    S    
S1    O23   S    
C4    C29   S    
H27   C27   S    
H25   C31   S    
C16   H14   S    
