data_mof_unit_19895.cif
_audit_creation_date              2013-03-05T15:55:55-0500
_audit_creation_method            fapswitch 2.2
_symmetry_space_group_name_H-M    P1
_symmetry_Int_Tables_number       1
_space_group_crystal_system       triclinic
_cell_length_a                    21.694939
_cell_length_b                    7.179904
_cell_length_c                    14.937227
_cell_angle_alpha                 90.000069
_cell_angle_beta                  105.976331
_cell_angle_gamma                 89.999818
_cell_volume                      2236.86664266

loop_
_atom_site_label
_atom_site_type_symbol
_atom_site_description
_atom_site_fract_x
_atom_site_fract_y
_atom_site_fract_z
_atom_type_partial_charge
O1    O     O_R   0.335860 0.638190 0.002110 -0.564297
O2    O     O_R   0.664140 0.361810 0.997890 -0.605560
O3    O     O_R   0.164140 0.138190 0.997890 -0.564297
O4    O     O_R   0.835860 0.861810 0.002110 -0.605562
O5    O     O_R   0.217530 0.305920 0.861960 -0.595075
O6    O     O_R   0.782470 0.694080 0.138040 -0.570758
O7    O     O_R   0.282470 0.805920 0.138040 -0.595072
O8    O     O_R   0.717530 0.194080 0.861960 -0.570757
C1    C     C_R   0.205726 0.476095 0.825794 0.980250
C2    C     C_R   0.795181 0.523795 0.174352 0.970612
C3    C     C_R   0.294274 0.976095 0.174206 0.980266
C4    C     C_R   0.704819 0.023795 0.825648 0.970618
O9    O     O_R   0.338690 0.308320 0.993240 -0.552009
O10   O     O_R   0.661310 0.691680 0.006760 -0.586732
O11   O     O_R   0.161310 0.808320 0.006760 -0.552022
O12   O     O_R   0.838690 0.191680 0.993240 -0.586732
O13   O     O_R   0.286170 0.140430 0.130100 -0.555394
O14   O     O_R   0.713830 0.859570 0.869900 -0.569819
O15   O     O_R   0.213830 0.640430 0.869900 -0.555396
O16   O     O_R   0.786170 0.359570 0.130100 -0.569819
C5    C     C_R   0.364887 0.476846 0.997884 1.084153
C6    C     C_R   0.635192 0.522573 0.003063 1.163120
C7    C     C_R   0.135113 0.976847 0.002115 1.084164
C8    C     C_R   0.864808 0.022573 0.996937 1.163120
O17   O     O_3   0.232630 0.472410 0.044750 -0.268757
O18   O     O_3   0.767370 0.527590 0.955250 -0.299452
O19   O     O_3   0.267370 0.972410 0.955250 -0.268756
O20   O     O_3   0.732630 0.027590 0.044750 -0.299452
V1    V     V_3+5 0.253220 0.196620 0.991700 1.331977
V2    V     V_3+5 0.746780 0.803380 0.008300 1.258032
V3    V     V_3+5 0.246780 0.696620 0.008300 1.331976
V4    V     V_3+5 0.753220 0.303380 0.991700 1.258033
C9    C     C_R   0.040329 0.869346 0.056883 0.202667
C10   C     C_R   0.958919 0.126868 0.937747 0.132823
C11   C     C_R   0.459672 0.369346 0.943113 0.202630
C12   C     C_R   0.541080 0.626867 0.062251 0.132818
C13   C     C_R   0.974480 0.876187 0.051952 0.492094
C14   C     C_R   0.024220 0.110368 0.938037 0.531699
C15   C     C_R   0.525521 0.376189 0.948046 0.492120
C16   C     C_R   0.475779 0.610364 0.061962 0.531702
C17   C     C_R   0.933631 0.009953 0.995539 -0.530342
C18   C     C_R   0.065769 0.986043 0.999735 -0.509083
C19   C     C_R   0.566368 0.509955 0.004459 -0.530352
C20   C     C_R   0.434230 0.486040 0.000263 -0.509082
C21   C     C_R   0.677282 0.024210 0.723499 -0.239507
C22   C     C_R   0.322920 0.973815 0.275643 -0.244235
C23   C     C_R   0.822718 0.524211 0.276500 -0.239506
C24   C     C_R   0.177079 0.473815 0.724357 -0.244229
C25   C     C_R   0.676265 0.198305 0.584322 -0.173922
C26   C     C_R   0.329402 0.786389 0.411936 -0.140958
C27   C     C_R   0.823735 0.698308 0.415677 -0.173920
C28   C     C_R   0.170597 0.286386 0.588065 -0.140949
C29   C     C_R   0.708578 0.133902 0.672030 -0.162070
C30   C     C_R   0.294040 0.857526 0.327364 -0.174595
C31   C     C_R   0.791422 0.633903 0.327969 -0.162071
C32   C     C_R   0.205959 0.357524 0.672636 -0.174609
C33   C     C_R   0.614400 0.958257 0.681018 0.274311
C34   C     C_R   0.385793 0.041107 0.314996 0.275513
C35   C     C_R   0.885600 0.458257 0.318982 0.274307
C36   C     C_R   0.114207 0.541109 0.685004 0.275514
C37   C     C_R   0.582875 0.010410 0.586763 -0.048202
C38   C     C_R   0.421596 0.978758 0.405756 -0.086332
C39   C     C_R   0.917125 0.510411 0.413237 -0.048201
C40   C     C_R   0.078404 0.478759 0.594244 -0.086334
C41   C     C_R   0.612665 0.146904 0.544147 0.155053
C42   C     C_R   0.393608 0.836690 0.448347 0.130203
C43   C     C_R   0.887334 0.646906 0.455852 0.155052
C44   C     C_R   0.106392 0.336689 0.551653 0.130201
C45   C     C_R   0.520938 0.944022 0.535541 0.078206
C46   C     C_R   0.484905 0.041714 0.454295 0.083609
C47   C     C_R   0.979061 0.444023 0.464460 0.078206
C48   C     C_R   0.015095 0.541716 0.545705 0.083608
C49   C     C_R   0.512957 0.201456 0.427057 -0.108611
C50   C     C_R   0.494772 0.780258 0.561481 -0.098959
C51   C     C_R   0.987042 0.701459 0.572942 -0.108611
C52   C     C_R   0.005228 0.280257 0.438520 -0.098959
C53   C     C_R   0.577150 0.242715 0.465854 -0.200907
C54   C     C_R   0.430938 0.735876 0.523432 -0.168123
C55   C     C_R   0.922849 0.742719 0.534146 -0.200907
C56   C     C_R   0.069062 0.235874 0.476569 -0.168121
H1    H     H_    0.597963 0.359216 0.438234 0.136221
H2    H     H_    0.411314 0.616355 0.550515 0.155526
H3    H     H_    0.902036 0.859220 0.561765 0.136222
H4    H     H_    0.088685 0.116352 0.449486 0.155529
H5    H     H_    0.245858 0.805412 0.297376 0.175138
H6    H     H_    0.756218 0.186650 0.703649 0.201396
H7    H     H_    0.254141 0.305408 0.702624 0.175118
H8    H     H_    0.743781 0.686651 0.296351 0.201395
H9    H     H_    0.699937 0.297596 0.550211 0.138645
H10   H     H_    0.307497 0.682955 0.446329 0.141020
H11   H     H_    0.800063 0.797600 0.449788 0.138644
H12   H     H_    0.192502 0.182950 0.553672 0.141019
H13   H     H_    0.486403 0.299946 0.377005 0.159872
H14   H     H_    0.522976 0.684562 0.612046 0.181626
H15   H     H_    0.013596 0.799949 0.622994 0.159875
H16   H     H_    0.977024 0.184561 0.387955 0.181626
N1    N     N_R   0.081352 0.748430 0.123799 0.247093
O21   O     O_R   0.090588 0.780879 0.212192 -0.355755
O22   O     O_R   0.098685 0.588679 0.097499 -0.362147
N2    N     N_R   0.917919 0.254115 0.874053 0.237869
O23   O     O_R   0.863767 0.195830 0.819744 -0.464415
O24   O     O_R   0.938639 0.418391 0.859681 -0.366817
N3    N     N_R   0.418650 0.248428 0.876196 0.247066
O25   O     O_R   0.409452 0.280803 0.787805 -0.355690
O26   O     O_R   0.401303 0.088702 0.902503 -0.362152
N4    N     N_R   0.582079 0.754117 0.125945 0.237868
O27   O     O_R   0.636231 0.695833 0.180254 -0.464416
O28   O     O_R   0.561359 0.918392 0.140316 -0.366816
O29   O     O_3   0.950413 0.755196 0.106089 -0.587939
C57   C     C_3   0.935407 0.584796 0.057578 0.148485
H17   H     H_    0.910261 0.604545 0.982570 0.112693
H18   H     H_    0.901902 0.505987 0.087253 0.145506
H19   H     H_    0.979060 0.498850 0.065381 0.156759
O30   O     O_3   0.048084 0.214708 0.876930 -0.561219
C58   C     C_3   0.024818 0.143317 0.785440 0.029436
H20   H     H_    0.983303 0.226468 0.745371 0.173106
H21   H     H_    0.010451 0.993797 0.782317 0.119337
H22   H     H_    0.063041 0.157889 0.749539 0.146605
O31   O     O_3   0.549589 0.255197 0.893911 -0.587927
C59   C     C_3   0.564592 0.084795 0.942422 0.148493
H23   H     H_    0.589738 0.104543 0.017430 0.112691
H24   H     H_    0.598095 0.005977 0.912747 0.145508
H25   H     H_    0.520937 0.998859 0.934619 0.156753
O32   O     O_3   0.451915 0.714697 0.123072 -0.561221
C60   C     C_3   0.475185 0.643306 0.214561 0.029437
H26   H     H_    0.516703 0.726451 0.254626 0.173104
H27   H     H_    0.489549 0.493783 0.217682 0.119342
H28   H     H_    0.436965 0.657883 0.250467 0.146604
N5    N     N_R   0.414942 0.145931 0.255963 0.207314
O33   O     O_R   0.391689 0.307607 0.224738 -0.453882
O34   O     O_R   0.463034 0.077853 0.230495 -0.370306
N6    N     N_R   0.579070 0.874413 0.738899 0.199051
O35   O     O_R   0.524914 0.946687 0.743117 -0.361453
O36   O     O_R   0.598088 0.717764 0.781319 -0.419394
N7    N     N_R   0.085059 0.645938 0.744036 0.207313
O37   O     O_R   0.108312 0.807614 0.775259 -0.453886
O38   O     O_R   0.036967 0.577864 0.769506 -0.370311
N8    N     N_R   0.920930 0.374413 0.261101 0.199052
O39   O     O_R   0.975086 0.446686 0.256883 -0.361463
O40   O     O_R   0.901912 0.217763 0.218681 -0.419391

loop_
_geom_bond_atom_site_label_1
_geom_bond_atom_site_label_2
_geom_bond_distance
_ccdc_geom_bond_type
C34   C38   1.435957 A    
O1    C5    1.328312 A    
O19   V1    1.753327 S    
O13   V1    2.033235 S    
C50   H14   1.078220 S    
C33   N6    1.436026 S    
O3    C7    1.328309 A    
C49   H13   1.074161 S    
C56   H4    1.084500 S    
O15   V3    2.033236 S    
O30   C58   1.416117 S    
C51   H15   1.074161 S    
N7    O37   1.299996 A    
O7    C3    1.331974 A    
C21   C33   1.418258 A    
C26   C30   1.382671 A    
C7    C18   1.496464 S    
C25   C41   1.394386 A    
C9    C18   1.412343 A    
C40   C44   1.423581 A    
O9    V1    2.014588 S    
C14   C18   1.414699 A    
C11   N3    1.433595 S    
C47   C52   1.405716 A    
C14   O30   1.386566 S    
C25   C29   1.384230 A    
N4    O27   1.299539 A    
C34   N5    1.432080 S    
C58   H20   1.108654 S    
N1    O21   1.300805 A    
O1    V3    2.004444 S    
C38   C46   1.438145 A    
O2    V4    2.004441 S    
C31   H8    1.079819 S    
O3    V1    2.004444 S    
C57   H17   1.112012 S    
C27   H11   1.084280 S    
C26   H10   1.084294 S    
C2    O16   1.339524 A    
N6    O35   1.301701 A    
C58   H21   1.115267 S    
O2    C6    1.326430 A    
C60   H28   1.109491 S    
C10   N2    1.437093 S    
C29   H6    1.079819 S    
O14   V2    2.033236 S    
C13   O29   1.383335 S    
C28   C44   1.396242 A    
C59   H25   1.109277 S    
O11   C7    1.330503 A    
C21   C29   1.399885 A    
O12   C8    1.334578 A    
C22   C34   1.413563 A    
C8    C17   1.501742 S    
C10   C17   1.418287 A    
O10   V2    2.014584 S    
C48   C51   1.409857 A    
C42   C54   1.392014 A    
N1    O22   1.301017 A    
C1    O15   1.339167 A    
C24   C36   1.413562 A    
O5    V1    2.035936 S    
C16   O32   1.386566 S    
C39   C43   1.417679 A    
C41   C53   1.392325 A    
C38   C42   1.423578 A    
C12   N4    1.437093 S    
O8    V4    2.035936 S    
C12   C16   1.420474 A    
O7    V3    2.035935 S    
O18   V4    1.753330 S    
C32   H7    1.084234 S    
C15   C19   1.416597 A    
C35   N8    1.436030 S    
C9    C13   1.410946 A    
C11   C15   1.410946 A    
O5    C1    1.331974 A    
C5    C20   1.496464 S    
C54   H2    1.084498 S    
C6    C19   1.501739 S    
C57   H19   1.109274 S    
C53   H1    1.084581 S    
O8    C4    1.335189 A    
C58   H22   1.109490 S    
C22   C30   1.397507 A    
C46   C49   1.409856 A    
N2    O24   1.300939 A    
O9    C5    1.330501 A    
C45   C50   1.405715 A    
N3    O26   1.301014 A    
C27   C43   1.394386 A    
C33   C37   1.435318 A    
C11   C20   1.412352 A    
C26   C42   1.396243 A    
C36   N7    1.432080 S    
N8    O40   1.301090 A    
O6    V2    2.035935 S    
C39   C47   1.432558 A    
C60   H26   1.108655 S    
C28   H12   1.084293 S    
C44   C56   1.392014 A    
N3    O25   1.300788 A    
C59   H23   1.112011 S    
C59   H24   1.105621 S    
C23   C31   1.399886 A    
N5    O33   1.299996 A    
O16   V4    2.033235 S    
C37   C45   1.432558 A    
N7    O38   1.300287 A    
C3    O13   1.339168 A    
C10   C14   1.420472 A    
O17   V3    1.753330 S    
C52   C56   1.381722 A    
C25   H9    1.084279 S    
C4    C21   1.477581 S    
C12   C19   1.418282 A    
O6    C2    1.335189 A    
C30   H5    1.084234 S    
O31   C59   1.413524 S    
O11   V3    2.014579 S    
C24   C32   1.397507 A    
O12   V4    2.014584 S    
C35   C39   1.435319 A    
C36   C40   1.435959 A    
O10   C6    1.334578 A    
O20   V2    1.753327 S    
C47   C48   1.433059 A    
O29   C57   1.413525 S    
C52   H16   1.078219 S    
C55   H3    1.084582 S    
N4    O28   1.300939 A    
O4    C8    1.326430 A    
C15   O31   1.383339 S    
N2    O23   1.299539 A    
C27   C31   1.384230 A    
C40   C48   1.438145 A    
C13   C17   1.416600 A    
C45   C46   1.433057 A    
C57   H18   1.105623 S    
N8    O39   1.301706 A    
C23   C35   1.418258 A    
C37   C41   1.417679 A    
C16   C20   1.414702 A    
C1    C24   1.471035 S    
N6    O36   1.301087 A    
C50   C54   1.381723 A    
C4    O14   1.339524 A    
C2    C23   1.477581 S    
C60   H27   1.115268 S    
C49   C53   1.385217 A    
C3    C22   1.471035 S    
C9    N1    1.433587 S    
C51   C55   1.385216 A    
C43   C55   1.392326 A    
O4    V2    2.004447 S    
C28   C32   1.382670 A    
O32   C60   1.416113 S    
N5    O34   1.300285 A    
