data_mof_unit_49467.cif
_audit_creation_date              2012-12-11T14:39:25-0500
_audit_creation_method            fapswitch 2.2
_symmetry_space_group_name_H-M    P1
_symmetry_Int_Tables_number       1
_space_group_crystal_system       triclinic
_cell_length_a                    7.216009
_cell_length_b                    14.04905
_cell_length_c                    16.330056
_cell_angle_alpha                 90.000012
_cell_angle_beta                  97.28586
_cell_angle_gamma                 90.0
_cell_volume                      1642.14261642

loop_
_atom_site_label
_atom_site_type_symbol
_atom_type_description
_atom_site_fract_x
_atom_site_fract_y
_atom_site_fract_z
_atom_type_partial_charge
O1    O     O_R   0.525340 0.338340 0.164530 -0.539647
O2    O     O_R   0.474660 0.661660 0.835470 -0.539646
O3    O     O_R   0.974660 0.838340 0.835470 -0.539646
O4    O     O_R   0.025340 0.161660 0.164530 -0.539647
O5    O     O_R   0.253520 0.352000 0.336710 -0.542007
O6    O     O_R   0.746480 0.648000 0.663290 -0.542007
O7    O     O_R   0.246480 0.852000 0.663290 -0.542007
O8    O     O_R   0.753520 0.148000 0.336710 -0.542007
O9    O     O_R   0.083330 0.168380 0.337300 -0.533268
O10   O     O_R   0.916670 0.831620 0.662700 -0.533267
O11   O     O_R   0.416670 0.668380 0.662700 -0.533268
O12   O     O_R   0.583330 0.331620 0.337300 -0.533267
C1    C     C_R   0.432178 0.369071 0.363438 0.692682
C2    C     C_R   0.567821 0.630929 0.636562 0.692682
C3    C     C_R   0.067821 0.869071 0.636562 0.692682
C4    C     C_R   0.932178 0.130929 0.363438 0.692682
O13   O     O_R   0.195840 0.349670 0.165140 -0.544152
O14   O     O_R   0.804160 0.650330 0.834860 -0.544152
O15   O     O_R   0.304160 0.849670 0.834860 -0.544152
O16   O     O_R   0.695840 0.150330 0.165140 -0.544152
C5    C     C_R   0.357148 0.371803 0.137540 0.737875
C6    C     C_R   0.642852 0.628197 0.862460 0.737874
C7    C     C_R   0.142852 0.871803 0.862460 0.737875
C8    C     C_R   0.857148 0.128197 0.137540 0.737874
O17   O     O_3   0.387830 0.193120 0.250910 -0.375352
O18   O     O_3   0.612170 0.806880 0.749090 -0.375352
O19   O     O_3   0.112170 0.693120 0.749090 -0.375352
O20   O     O_3   0.887830 0.306880 0.250910 -0.375352
V1    V     V_3+5 0.113010 0.264540 0.250910 1.404382
V2    V     V_3+5 0.886990 0.735460 0.749090 1.404381
V3    V     V_3+5 0.386990 0.764540 0.749090 1.404382
V4    V     V_3+5 0.613010 0.235460 0.250910 1.404381
C9    C     C_R   0.071064 0.196648 0.526378 -0.243723
C10   C     C_R   0.928936 0.803352 0.473622 -0.243723
C11   C     C_R   0.428936 0.696648 0.473622 -0.243723
C12   C     C_R   0.571063 0.303352 0.526378 -0.243724
C13   C     C_R   0.137919 0.230777 0.604529 -0.153527
C14   C     C_R   0.862081 0.769223 0.395471 -0.153527
C15   C     C_R   0.362082 0.730777 0.395471 -0.153527
C16   C     C_R   0.637916 0.269223 0.604530 -0.153526
C17   C     C_R   0.168414 0.169611 0.671951 0.535089
C18   C     C_R   0.831586 0.830389 0.328049 0.535089
C19   C     C_R   0.331588 0.669611 0.328049 0.535089
C20   C     C_R   0.668411 0.330389 0.671951 0.535092
C21   C     C_R   0.136633 0.071143 0.658988 -0.256378
C22   C     C_R   0.863367 0.928857 0.341011 -0.256378
C23   C     C_R   0.363369 0.571143 0.341011 -0.256379
C24   C     C_R   0.636631 0.428857 0.658989 -0.256380
C25   C     C_R   0.069397 0.034706 0.579807 0.009237
C26   C     C_R   0.930603 0.965294 0.420193 0.009237
C27   C     C_R   0.430603 0.534706 0.420193 0.009237
C28   C     C_R   0.569396 0.465294 0.579807 0.009238
C29   C     C_R   0.036053 0.098543 0.512413 0.057117
C30   C     C_R   0.963947 0.901457 0.487587 0.057116
C31   C     C_R   0.463948 0.598543 0.487587 0.057116
C32   C     C_R   0.536052 0.401457 0.512413 0.057116
C33   C     C_R   0.032998 0.936258 0.567133 -0.124702
C34   C     C_R   0.967002 0.063742 0.432867 -0.124702
C35   C     C_R   0.467002 0.436258 0.432867 -0.124701
C36   C     C_R   0.532998 0.563742 0.567133 -0.124701
H1    H     H_    0.046693 0.248521 0.477250 0.143928
H2    H     H_    0.953307 0.751479 0.522750 0.143928
H3    H     H_    0.453307 0.748521 0.522750 0.143928
H4    H     H_    0.546691 0.251479 0.477250 0.143928
H5    H     H_    0.164842 0.306236 0.612939 0.143790
H6    H     H_    0.835158 0.693764 0.387061 0.143790
H7    H     H_    0.335160 0.806236 0.387061 0.143790
H8    H     H_    0.664838 0.193764 0.612939 0.143790
H9    H     H_    0.165735 0.023177 0.710638 0.107338
H10   H     H_    0.834265 0.976823 0.289361 0.107337
H11   H     H_    0.334267 0.523177 0.289361 0.107338
H12   H     H_    0.665732 0.476823 0.710639 0.107335
H13   H     H_    0.138857 0.065001 0.057468 0.160057
H14   H     H_    0.861143 0.934998 0.942532 0.160057
H15   H     H_    0.361142 0.565001 0.942532 0.160057
H16   H     H_    0.638857 0.434998 0.057468 0.160057
C37   C     C_2   0.150220 0.941267 0.931184 -0.355632
C38   C     C_2   0.849780 0.058733 0.068816 -0.355631
C39   C     C_2   0.349780 0.441266 0.068816 -0.355632
C40   C     C_2   0.650219 0.558733 0.931184 -0.355632
C41   C     C_2   0.995963 0.965797 0.965393 -0.133152
C42   C     C_2   0.004037 0.034203 0.034607 -0.133152
C43   C     C_2   0.504037 0.465796 0.034607 -0.133153
C44   C     C_2   0.495963 0.534203 0.965393 -0.133153
H17   H     H_    0.715459 0.027882 0.045193 0.126637
H18   H     H_    0.284541 0.972117 0.954807 0.126637
H19   H     H_    0.784541 0.527882 0.954806 0.126637
H20   H     H_    0.215459 0.472117 0.045193 0.126637
O21   O     O_3   0.759029 0.790528 0.252668 -0.554500
C45   C     C_3   0.821394 0.837424 0.184810 -0.213312
H21   H     H_    0.972656 0.855884 0.196130 0.161603
H22   H     H_    0.734696 0.901468 0.168090 0.128422
H23   H     H_    0.802378 0.788773 0.130890 0.161193
O22   O     O_3   0.240970 0.209472 0.747332 -0.554498
C46   C     C_3   0.178602 0.162576 0.815190 -0.213305
H24   H     H_    0.265299 0.098532 0.831910 0.128421
H25   H     H_    0.027341 0.144117 0.803870 0.161601
H26   H     H_    0.197617 0.211228 0.869109 0.161193
O23   O     O_3   0.740965 0.290527 0.747332 -0.554499
C47   C     C_3   0.678612 0.337427 0.815191 -0.213305
H27   H     H_    0.527352 0.355891 0.803874 0.161598
H28   H     H_    0.765318 0.401469 0.831908 0.128420
H29   H     H_    0.697627 0.288777 0.869112 0.161192
O24   O     O_3   0.259033 0.709472 0.252667 -0.554499
C48   C     C_3   0.321405 0.662577 0.184810 -0.213303
H30   H     H_    0.234708 0.598533 0.168088 0.128420
H31   H     H_    0.472668 0.644118 0.196131 0.161602
H32   H     H_    0.302394 0.711229 0.130890 0.161192

loop_
_geom_bond_atom_site_label_1
_geom_bond_atom_site_label_2
_ccdc_geom_bond_type
O1    C5    A    
O13   V1    S    
O3    C7    A    
C46   H24   S    
C40   C44   D    
O15   V3    S    
C41   C42   S    
C46   H26   S    
C48   H31   S    
C26   C30   A    
O20   V1    S    
O9    C4    A    
C14   C18   A    
C40   H19   S    
O10   C3    A    
O4    C8    A    
O11   C2    A    
H15   C44   S    
C10   H2    S    
C25   C33   A    
C18   C22   A    
O10   V2    S    
C19   O24   S    
C39   H20   S    
C28   C36   A    
C43   C44   S    
C13   H5    S    
O2    C6    A    
O14   V2    S    
C37   C41   D    
O5    C1    A    
O4    V1    S    
O9    V1    S    
O17   V4    S    
O7    C3    A    
O11   V3    S    
O18   V3    S    
O8    C4    A    
C10   C14   A    
C31   C36   A    
O12   V4    S    
O19   V2    S    
C3    C33   S    
C24   H12   S    
H16   C43   S    
O24   C48   S    
O5    V1    S    
C9    C29   A    
C48   H32   S    
O7    V3    S    
C21   H9    S    
C26   C34   A    
O16   C8    A    
C12   C16   A    
C24   C28   A    
O15   C7    A    
C15   C19   A    
C11   C31   A    
C47   H29   S    
O13   C5    A    
O2    V3    S    
O8    V4    S    
O3    V2    S    
C11   C15   A    
C12   C32   A    
O6    C2    A    
C38   C42   D    
C45   H22   S    
C17   O22   S    
C21   C25   A    
C5    C39   S    
C47   H28   S    
C4    C34   S    
C7    C37   S    
C23   H11   S    
C38   H17   S    
C8    C38   S    
O6    V2    S    
C37   H18   S    
C10   C30   A    
C27   C35   A    
H14   C41   S    
H13   C42   S    
C45   H23   S    
O16   V4    S    
C14   H6    S    
O14   C6    A    
C15   H7    S    
C23   C27   A    
C29   C34   A    
C46   H25   S    
C1    C35   S    
C2    C36   S    
C48   H30   S    
C22   C26   A    
C32   C35   A    
C18   O21   S    
C6    C40   S    
O23   C47   S    
C39   C43   D    
C45   H21   S    
C25   C29   A    
C47   H27   S    
C20   O23   S    
C27   C31   A    
O1    V4    S    
C13   C17   A    
O22   C46   S    
C9    C13   A    
C22   H10   S    
C28   C32   A    
C16   C20   A    
O12   C1    A    
C9    H1    S    
C16   H8    S    
C17   C21   A    
C11   H3    S    
O21   C45   S    
C12   H4    S    
C19   C23   A    
C20   C24   A    
C30   C33   A    
