data_mof_unit_20482.cif
_audit_creation_date              2012-12-10T17:23:42-0500
_audit_creation_method            fapswitch 2.2
_symmetry_space_group_name_H-M    P1
_symmetry_Int_Tables_number       1
_space_group_crystal_system       triclinic
_cell_length_a                    9.613368
_cell_length_b                    10.887569
_cell_length_c                    17.36738
_cell_angle_alpha                 93.608415
_cell_angle_beta                  86.645068
_cell_angle_gamma                 87.694265
_cell_volume                      1809.30469065

loop_
_atom_site_label
_atom_site_type_symbol
_atom_type_description
_atom_site_fract_x
_atom_site_fract_y
_atom_site_fract_z
_atom_type_partial_charge
C1    C     C_R   0.496092 0.738438 0.502234 0.841775
C2    C     C_R   0.346452 0.519892 0.776414 -0.185644
C3    C     C_R   0.408358 0.459189 0.146734 -0.148031
C4    C     C_R   0.402313 0.476309 0.226624 -0.204811
C5    C     C_R   0.655268 0.471730 0.223854 -0.197207
C6    C     C_R   0.661175 0.454572 0.143614 -0.162380
C7    C     C_R   0.537838 0.450555 0.104702 0.189561
C8    C     C_2   0.452472 0.497748 0.979607 -0.218016
C9    C     C_2   0.546573 0.439608 0.020118 -0.225153
C10   C     C_R   0.525578 0.483616 0.265812 -0.024301
C11   C     C_R   0.236283 0.904924 0.555224 -0.228074
C12   C     C_R   0.482396 0.499541 0.649621 0.792614
C13   C     C_R   0.127976 0.981822 0.591765 0.026796
C14   C     C_R   0.155243 0.101899 0.616699 -0.196484
C15   C     C_R   0.283284 0.149248 0.597193 -0.164363
C16   C     C_R   0.387295 0.077644 0.551699 0.103257
C17   C     C_R   0.370694 0.949647 0.537906 0.080660
C18   C     C_R   0.489287 0.874226 0.507589 -0.140618
C19   C     C_R   0.614966 0.929143 0.489244 -0.207326
C20   C     C_R   0.627315 0.055390 0.496793 -0.048421
C21   C     C_R   0.508327 0.131515 0.521159 -0.175294
C22   C     C_R   0.874076 0.345575 0.390617 -0.124686
C23   C     C_R   0.502605 0.263643 0.506952 0.774826
C24   C     C_R   0.954893 0.273451 0.334795 -0.153450
C25   C     C_R   0.098387 0.272954 0.334710 -0.206109
C26   C     C_R   0.161761 0.345152 0.390135 -0.142659
C27   C     C_R   0.083577 0.425689 0.445131 0.199966
C28   C     C_R   0.934137 0.426242 0.444981 0.165718
C29   C     C_R   0.919677 0.563743 0.556485 0.106878
C30   C     C_R   0.067188 0.565425 0.554413 -0.078349
C31   C     C_R   0.517640 0.496773 0.350249 0.770484
C32   C     C_R   0.474328 0.497257 0.733728 -0.055318
C33   C     C_R   0.595686 0.473071 0.772061 -0.163026
C34   C     C_R   0.590218 0.473337 0.851984 -0.129572
C35   C     C_R   0.462209 0.495101 0.894888 0.176878
C36   C     C_R   0.340720 0.519248 0.856633 -0.158090
Cu1   Cu    Cu3+1 0.359340 0.500010 0.500010 0.935641
Cu2   Cu    Cu3+1 0.640660 0.499990 0.499990 0.990897
H1    H     H_    0.695211 0.453772 0.740379 0.195279
H2    H     H_    0.761830 0.446903 0.111776 0.127699
H3    H     H_    0.707060 0.872628 0.469224 0.222554
H4    H     H_    0.209252 0.812677 0.539695 0.192951
H5    H     H_    0.075527 0.161312 0.648322 0.189245
H6    H     H_    0.300111 0.242752 0.618314 0.168152
H7    H     H_    0.765575 0.329828 0.391435 0.193642
H8    H     H_    0.905597 0.213507 0.293416 0.166742
H9    H     H_    0.300866 0.482925 0.257547 0.163208
H10   H     H_    0.161266 0.213223 0.292916 0.156874
H11   H     H_    0.271946 0.331573 0.388490 0.200367
H12   H     H_    0.117770 0.618167 0.598878 0.148660
H13   H     H_    0.751871 0.475376 0.252849 0.159196
H14   H     H_    0.635487 0.387419 0.991550 0.147064
H15   H     H_    0.241317 0.537351 0.888890 0.133550
H16   H     H_    0.311697 0.451809 0.118125 0.127950
H17   H     H_    0.251339 0.539088 0.748008 0.170171
H18   H     H_    0.364765 0.550317 0.009469 0.148525
H19   H     H_    0.687032 0.458843 0.879433 0.133666
N1    N     N_R   0.852190 0.498790 0.499250 -0.236402
N2    N     N_R   0.148060 0.498710 0.499220 -0.215030
O1    O     O_R   0.381190 0.680360 0.500010 -0.598796
O2    O     O_R   0.618760 0.680340 0.500000 -0.522572
O3    O     O_R   0.367440 0.500030 0.613600 -0.601271
O4    O     O_R   0.605010 0.500010 0.613590 -0.568262
O5    O     O_R   0.381240 0.319660 0.500000 -0.604603
O6    O     O_R   0.618810 0.319640 0.499990 -0.572679
O7    O     O_R   0.394990 0.499990 0.386410 -0.601063
O8    O     O_R   0.632560 0.499970 0.386400 -0.607233
C37   C     C_2   0.984988 0.938138 0.601989 0.855144
O9    O     O_2   0.947762 0.854194 0.559036 -0.609431
O10   O     O_R   0.890594 0.996079 0.658493 -0.745368
H20   H     H_    0.794581 0.960993 0.657702 0.346971
C38   C     C_2   0.769424 0.100786 0.483557 0.880225
O11   O     O_2   0.842261 0.061767 0.426468 -0.609899
O12   O     O_R   0.824448 0.179626 0.539603 -0.724471
H21   H     H_    0.924586 0.199330 0.525671 0.323131
C39   C     C_2   0.846421 0.623263 0.627422 0.904401
O13   O     O_2   0.886670 0.598593 0.690406 -0.657216
O14   O     O_R   0.739430 0.712614 0.623907 -0.711811
H22   H     H_    0.699939 0.745713 0.676925 0.312167

loop_
_geom_bond_atom_site_label_1
_geom_bond_atom_site_label_2
_ccdc_geom_bond_type
C31   O7    A    
C24   C25   A    
C16   C21   A    
C35   C36   A    
C8    H18   S    
Cu1   O3    S    
C29   C39   S    
C31   O8    A    
C1    C18   S    
Cu1   Cu2   S    
C39   O14   S    
C15   H6    S    
C18   C19   A    
C3    C7    A    
C2    H17   S    
C5    C6    A    
C3    H16   S    
C15   C16   A    
C11   H4    S    
C2    C32   A    
C34   C35   A    
C36   H15   S    
Cu2   N1    S    
C10   C31   S    
C19   C20   A    
C37   O9    D    
C34   H19   S    
O10   H20   S    
Cu2   O2    S    
C30   H12   S    
C22   C28   A    
C13   C14   A    
C12   C32   S    
C9    H14   S    
C33   C34   A    
O12   H21   S    
C39   O13   D    
C38   O12   S    
C26   H11   S    
C12   O4    A    
O14   H22   S    
C8    C9    D    
C25   C26   A    
C8    C35   S    
C29   C30   A    
C12   O3    A    
Cu2   O6    S    
C30   N2    A    
C20   C21   A    
C17   C18   A    
C26   C27   A    
C33   H1    S    
Cu2   O8    S    
C25   H10   S    
Cu1   N2    S    
C23   O5    A    
C21   C23   S    
C22   C24   A    
C1    O1    A    
C4    C10   A    
C3    C4    A    
Cu1   O5    S    
Cu2   O4    S    
C2    C36   A    
C7    C9    S    
C11   C17   A    
C5    H13   S    
C38   O11   D    
C1    O2    A    
C6    C7    A    
C28   N1    A    
C24   H8    S    
C32   C33   A    
C23   O6    A    
C5    C10   A    
C27   N2    A    
C11   C13   A    
C16   C17   A    
C6    H2    S    
Cu1   O7    S    
Cu1   O1    S    
C22   H7    S    
C29   N1    A    
C37   O10   S    
C27   C28   A    
C14   C15   A    
C20   C38   S    
C13   C37   S    
C19   H3    S    
C14   H5    S    
C4    H9    S    
