data_mof_unit_35133.cif
_audit_creation_date              2012-12-11T17:05:32-0500
_audit_creation_method            fapswitch 2.2
_symmetry_space_group_name_H-M    P1
_symmetry_Int_Tables_number       1
_space_group_crystal_system       triclinic
_cell_length_a                    6.998407
_cell_length_b                    14.853515
_cell_length_c                    15.790062
_cell_angle_alpha                 90.04978
_cell_angle_beta                  89.98355
_cell_angle_gamma                 90.994541
_cell_volume                      1641.14389028

loop_
_atom_site_label
_atom_site_type_symbol
_atom_type_description
_atom_site_fract_x
_atom_site_fract_y
_atom_site_fract_z
_atom_type_partial_charge
O1    O     O_R   0.494380 0.415640 0.412830 -0.521428
O2    O     O_R   0.823960 0.405540 0.586560 -0.512435
O3    O     O_R   0.994270 0.584360 0.587170 -0.516731
C1    C     C_R   0.654104 0.381688 0.613566 0.750678
O4    O     O_R   0.824090 0.404620 0.413450 -0.524468
O5    O     O_R   0.994400 0.583430 0.412820 -0.542704
C2    C     C_R   0.654264 0.383678 0.383397 0.694827
O6    O     O_R   0.494250 0.416570 0.587180 -0.532303
O7    O     O_3   0.660800 0.558670 0.500000 -0.374416
V1    V     V_3+5 0.935650 0.489120 0.500000 1.602796
O8    O     O_R   0.324110 0.594460 0.413440 -0.546849
C3    C     C_R   0.155768 0.617321 0.385378 0.667128
O9    O     O_R   0.323980 0.595380 0.586550 -0.554175
C4    C     C_R   0.154229 0.615993 0.617313 0.704319
V2    V     V_3+5 0.435660 0.510880 0.500000 1.541591
O10   O     O_3   0.160640 0.441330 0.500000 -0.323895
C5    C     C_3   0.959080 0.666551 0.751424 0.256662
C6    C     C_3   0.934408 0.749258 0.812853 0.090350
H1    H     H_    0.923973 0.724061 0.879148 0.158696
H2    H     H_    0.989048 0.898132 0.712492 0.148248
C7    C     C_3   0.126579 0.784904 0.648844 0.104227
C8    C     C_3   0.315101 0.689240 0.744778 -0.372937
C9    C     C_3   0.134238 0.687194 0.688099 -0.040191
H3    H     H_    0.434694 0.716184 0.707443 0.222949
H4    H     H_    0.350347 0.620991 0.767443 0.207140
C10   C     C_3   0.114689 0.813089 0.809659 -0.103850
C11   C     C_3   0.121485 0.858726 0.720115 -0.141490
C12   C     C_3   0.290906 0.752201 0.821426 -0.375557
H5    H     H_    0.273014 0.711262 0.879928 0.178151
H6    H     H_    0.423111 0.792928 0.830301 0.246629
H7    H     H_    0.258964 0.795569 0.610230 0.117335
C13   C     C_R   0.260803 0.748442 0.183003 0.081651
C14   C     C_R   0.114977 0.811384 0.179604 -0.095729
C15   C     C_R   0.969763 0.803311 0.241317 -0.121063
H8    H     H_    0.850183 0.848496 0.240397 0.111719
C16   C     C_R   0.984219 0.740638 0.308371 -0.128843
H9    H     H_    0.874166 0.739004 0.356556 0.120067
C17   C     C_R   0.143497 0.683802 0.315362 -0.109723
C18   C     C_R   0.274346 0.686100 0.248131 0.127573
C19   C     C_3   0.488294 0.688684 0.244666 -0.279701
C20   C     C_3   0.471743 0.757149 0.171663 -0.278492
H10   H     H_    0.551575 0.717917 0.303299 0.103233
H11   H     H_    0.526906 0.825503 0.188504 0.111385
C21   C     C_R   0.504786 0.313569 0.744575 -0.026668
C22   C     C_R   0.645624 0.312722 0.681683 -0.071079
C23   C     C_R   0.786164 0.246080 0.688560 -0.110571
H12   H     H_    0.895385 0.241168 0.640656 0.173659
C24   C     C_R   0.779167 0.181224 0.754020 -0.217384
H13   H     H_    0.887286 0.130029 0.756202 0.151494
C25   C     C_R   0.626668 0.179256 0.812480 -0.137757
C26   C     C_R   0.493018 0.247000 0.806510 0.139121
C27   C     C_3   0.280685 0.239883 0.803541 0.066028
C28   C     C_3   0.291787 0.316282 0.738205 0.162359
H14   H     H_    0.227974 0.173642 0.779229 0.127846
C29   C     C_R   0.513172 0.242974 0.317049 0.035197
C30   C     C_R   0.643367 0.316056 0.312842 -0.197183
C31   C     C_R   0.761416 0.321720 0.239323 0.371444
C32   C     C_R   0.758403 0.251840 0.178648 -0.124543
H15   H     H_    0.848760 0.258424 0.123160 0.166284
C33   C     C_R   0.626639 0.179549 0.183702 -0.142045
C34   C     C_R   0.508539 0.174728 0.255311 0.061536
C35   C     C_3   0.296117 0.165489 0.257128 -0.475195
C36   C     C_3   0.298028 0.246293 0.316944 -0.121196
H16   H     H_    0.250800 0.100918 0.287325 0.161181
H17   H     H_    0.227628 0.176689 0.194598 0.212195
O11   O     O_R   0.771490 0.080820 0.910070 -0.547963
O12   O     O_R   0.441590 0.092730 0.083780 -0.535749
O13   O     O_R   0.271350 0.913900 0.084390 -0.557415
C37   C     C_R   0.611369 0.113154 0.113666 0.704065
O14   O     O_R   0.441780 0.091820 0.910670 -0.522249
O15   O     O_R   0.271540 0.912980 0.910040 -0.545231
C38   C     C_R   0.611667 0.111229 0.880333 0.734427
O16   O     O_R   0.771300 0.081740 0.084420 -0.551650
O17   O     O_3   0.604960 0.938700 0.997240 -0.356916
V3    V     V_3+5 0.330090 0.008230 0.997220 1.496649
O18   O     O_R   0.941820 0.901930 0.910640 -0.506462
C39   C     C_R   0.109036 0.881868 0.880628 0.723413
O19   O     O_R   0.941630 0.902840 0.083750 -0.520945
C40   C     C_R   0.109362 0.881207 0.112680 0.693081
V4    V     V_3+5 0.830090 0.986410 0.997190 1.517416
O20   O     O_3   0.105080 0.055990 0.997200 -0.371221
C41   C     C_2   0.773737 0.638989 0.707070 0.797215
O21   O     O_2   0.716438 0.680979 0.645931 -0.550358
O22   O     O_R   0.678803 0.559525 0.731520 -0.655300
H18   H     H_    0.568245 0.543200 0.693110 0.280997
C42   C     C_2   0.281821 0.928077 0.710539 0.725252
O23   O     O_2   0.243940 0.008039 0.706406 -0.586578
O24   O     O_R   0.471530 0.901450 0.704987 -0.662749
H19   H     H_    0.564042 0.954372 0.699002 0.297456
C43   C     C_2   0.573424 0.600045 0.220039 0.820504
O25   O     O_2   0.745102 0.596390 0.206833 -0.546581
O26   O     O_R   0.456400 0.523841 0.208673 -0.645789
H20   H     H_    0.528479 0.470628 0.185721 0.325698
C44   C     C_2   0.534404 0.725236 0.085112 0.861024
O27   O     O_2   0.683436 0.754551 0.054767 -0.540431
O28   O     O_R   0.425580 0.660746 0.040922 -0.648330
H21   H     H_    0.486600 0.643151 0.985206 0.297374
O29   O     O_3   0.009977 0.592773 0.802009 -0.653224
H22   H     H_    0.910119 0.581400 0.845726 0.315502
O30   O     O_3   0.200600 0.264003 0.881600 -0.601060
H23   H     H_    0.060355 0.256879 0.874492 0.307951
C45   C     C_2   0.217890 0.404153 0.769666 0.880797
O31   O     O_2   0.079495 0.437562 0.735802 -0.519689
O32   O     O_R   0.305590 0.444693 0.840178 -0.643671
H24   H     H_    0.236856 0.498599 0.863051 0.332731
O33   O     O_3   0.222934 0.292643 0.657291 -0.635056
H25   H     H_    0.276050 0.233364 0.641471 0.312782
O34   O     O_3   0.864318 0.398316 0.218429 -0.609650
H26   H     H_    0.835563 0.446421 0.259379 0.304110
C46   C     C_2   0.205803 0.226721 0.401580 0.805577
O35   O     O_2   0.301770 0.225872 0.466303 -0.555373
O36   O     O_R   0.008772 0.210253 0.405439 -0.664824
H27   H     H_    0.961997 0.199292 0.465389 0.291181
C47   C     C_2   0.231426 0.332516 0.276076 0.823021
O37   O     O_2   0.242333 0.342607 0.199256 -0.519949
O38   O     O_R   0.172866 0.403669 0.326860 -0.629398
H28   H     H_    0.157667 0.461336 0.293645 0.316754
O39   O     O_3   0.763974 0.795976 0.799480 -0.649754
H29   H     H_    0.753492 0.810400 0.738734 0.345611
O40   O     O_3   0.969445 0.795059 0.594610 -0.620288
H30   H     H_    0.002734 0.766961 0.539578 0.288168

loop_
_geom_bond_atom_site_label_1
_geom_bond_atom_site_label_2
_ccdc_geom_bond_type
C29   C30   A    
O2    C1    A    
C6    C10   S    
C1    O6    A    
C47   O37   D    
C43   O25   D    
C22   C23   A    
C27   C28   S    
O13   V3    S    
C7    H7    S    
C10   C11   S    
C5    C9    S    
O26   H20   S    
C12   H5    S    
C15   H8    S    
C7    O40   S    
O5    C3    A    
C17   C18   A    
C42   O24   S    
O33   H25   S    
C32   C33   A    
V2    O10   S    
O34   H26   S    
C6    H1    S    
C13   C18   A    
C25   C38   S    
C46   O35   D    
O36   H27   S    
C35   H16   S    
C45   O31   D    
O39   H29   S    
C36   C47   S    
O8    V2    S    
C28   O33   S    
O11   C38   A    
C8    H4    S    
C29   C36   S    
C13   C20   S    
C37   O16   A    
O1    V2    S    
C5    O29   S    
C6    O39   S    
C15   C16   A    
O13   C40   A    
C19   H10   S    
C7    C11   S    
O17   V4    S    
O9    C4    A    
C20   H11   S    
C44   O27   D    
C2    C30   S    
C21   C28   S    
O32   H24   S    
C8    C12   S    
C27   H14   S    
C5    C6    S    
C1    C22   S    
C8    C9    S    
C23   C24   A    
C10   C39   S    
O17   V3    S    
C26   C27   S    
O18   C39   A    
C18   C19   S    
O4    C2    A    
C42   O23   D    
V3    O20   S    
C25   C26   A    
C32   H15   S    
C27   O30   S    
C33   C34   A    
O12   C37   A    
C4    C9    S    
C11   C42   S    
C45   O32   S    
C35   C36   S    
C43   O26   S    
C20   C44   S    
C28   C45   S    
C5    C41   S    
O28   H21   S    
C14   C15   A    
O22   H18   S    
C44   O28   S    
O3    C4    A    
C21   C26   A    
C19   C20   S    
O29   H22   S    
O6    V2    S    
C41   O22   S    
C7    C9    S    
C8    H3    S    
O12   V3    S    
C30   C31   A    
C16   C17   A    
O2    V1    S    
O15   C39   A    
C21   C22   A    
O7    V1    S    
C23   H12   S    
C24   H13   S    
C35   H17   S    
O1    C2    A    
C14   C40   S    
O18   V4    S    
V4    O20   S    
O5    V1    S    
C47   O38   S    
O8    C3    A    
H2    C11   S    
O11   V4    S    
C10   C12   S    
C13   C14   A    
C36   C46   S    
O9    V2    S    
O7    V2    S    
C12   H6    S    
O3    V1    S    
V1    O10   S    
O15   V3    S    
O19   C40   A    
C31   C32   A    
C33   C37   S    
C29   C34   A    
C24   C25   A    
O30   H23   S    
O16   V4    S    
O38   H28   S    
O19   V4    S    
C3    C17   S    
C34   C35   S    
C46   O36   S    
O4    V1    S    
C31   O34   S    
O24   H19   S    
C16   H9    S    
C41   O21   D    
O14   V3    S    
O40   H30   S    
O14   C38   A    
C19   C43   S    
