data_mof_unit_63392.cif
_audit_creation_date              2012-12-10T16:42:46-0500
_audit_creation_method            fapswitch 2.2
_symmetry_space_group_name_H-M    P1
_symmetry_Int_Tables_number       1
_space_group_crystal_system       triclinic
_cell_length_a                    19.087954
_cell_length_b                    18.976298
_cell_length_c                    18.941142
_cell_angle_alpha                 109.261024
_cell_angle_beta                  109.712037
_cell_angle_gamma                 109.613713
_cell_volume                      5270.09259817

loop_
_atom_site_label
_atom_site_type_symbol
_atom_type_description
_atom_site_fract_x
_atom_site_fract_y
_atom_site_fract_z
_atom_type_partial_charge
C1    C     C_R   0.388114 0.382579 0.504851 0.842926
C2    C     C_R   0.757501 0.580212 0.756156 0.048774
C3    C     C_R   0.812453 0.500411 0.812748 -0.151266
C4    C     C_R   0.742995 0.420998 0.738675 0.068565
C5    C     C_R   0.674760 0.421010 0.678904 0.071521
C6    C     C_R   0.684265 0.500664 0.685520 -0.156453
C7    C     C_R   0.739437 0.341015 0.722739 -0.131543
C8    C     C_R   0.665985 0.263090 0.655186 -0.126915
C9    C     C_R   0.594842 0.262970 0.602325 -0.131782
C10   C     C_R   0.598744 0.340828 0.613762 -0.137540
C11   C     C_2   0.252871 0.254076 0.573921 -0.217352
C12   C     C_R   0.618063 0.500417 0.618324 0.777650
C13   C     C_2   0.178432 0.190136 0.500345 -0.148599
C14   C     C_2   0.315695 0.327777 0.576579 -0.106329
C15   C     C_2   0.333842 0.314008 0.512638 -0.283647
C16   C     C_2   0.178300 0.498728 0.251102 -0.240377
C17   C     C_2   0.187138 0.510447 0.187346 -0.159442
C18   C     C_2   0.249796 0.510020 0.325187 -0.099002
C19   C     C_2   0.300960 0.479649 0.312168 -0.267290
C20   C     C_2   0.743260 0.749330 0.425782 -0.145435
C21   C     C_2   0.819445 0.810491 0.497198 -0.304746
C22   C     C_2   0.682637 0.676508 0.425853 -0.137682
C23   C     C_R   0.615729 0.617829 0.498564 0.845970
C24   C     C_2   0.678026 0.686655 0.497299 -0.312977
C25   C     C_R   0.995217 0.382193 0.877877 0.859803
C26   C     C_R   0.878968 0.500088 0.878875 0.787237
C27   C     C_R   0.996519 0.617228 0.114461 0.786298
C28   C     C_R   0.115687 0.501699 0.116405 0.791037
C29   C     C_R   0.002961 0.120553 0.617140 0.891167
C30   C     C_R   0.116927 0.118845 0.500556 0.821378
C31   C     C_R   0.005261 0.888263 0.383124 0.849142
C32   C     C_R   0.882932 0.880719 0.498514 0.844892
C33   C     C_2   0.009962 0.262227 0.681657 0.000268
C34   C     C_R   0.377229 0.494330 0.381602 0.864221
C35   C     C_2   0.011160 0.192749 0.685731 -0.388429
C36   C     C_2   0.018388 0.330959 0.755707 -0.169706
C37   C     C_2   0.988012 0.314174 0.806104 -0.339597
C38   C     C_2   0.072486 0.810701 0.327646 -0.113002
C39   C     C_2   0.013574 0.835354 0.314375 -0.237297
C40   C     C_2   0.069458 0.748860 0.253065 -0.211555
C41   C     C_2   0.995006 0.679355 0.183594 -0.134750
C42   C     C_R   0.772369 0.660388 0.761121 -0.236785
C43   C     C_R   0.838292 0.738959 0.836083 0.237363
C44   C     C_R   0.892595 0.738824 0.908096 -0.010859
C45   C     C_R   0.881253 0.659319 0.901135 -0.235859
C46   C     C_R   0.817470 0.579895 0.823841 0.053330
Cu1   Cu    Cu3+1 0.500390 0.438990 0.439360 0.977741
Cu2   Cu    Cu3+1 0.499610 0.561010 0.560640 0.967265
Cu3   Cu    Cu3+1 0.935830 0.439030 0.996840 0.991856
Cu4   Cu    Cu3+1 0.057850 0.561040 0.996790 1.011980
Cu5   Cu    Cu3+1 0.061410 0.000010 0.561410 0.983377
Cu6   Cu    Cu3+1 0.938590 0.999990 0.438590 1.020799
H1    H     H_    0.536788 0.202360 0.551477 0.141007
H2    H     H_    0.346865 0.392338 0.630857 0.175007
H3    H     H_    0.308600 0.248206 0.463649 0.153520
H4    H     H_    0.117978 0.483634 0.250750 0.172208
H5    H     H_    0.259465 0.542384 0.389643 0.173504
H6    H     H_    0.284930 0.439838 0.246429 0.155559
H7    H     H_    0.727035 0.749882 0.365277 0.168873
H8    H     H_    0.839714 0.804785 0.554984 0.155200
H9    H     H_    0.638196 0.615607 0.365388 0.169143
H10   H     H_    0.733027 0.663673 0.707199 0.155644
H11   H     H_    0.715668 0.749977 0.555071 0.149326
H12   H     H_    0.024631 0.190968 0.745393 0.156128
H13   H     H_    0.047615 0.396464 0.766914 0.189068
H14   H     H_    0.952044 0.248183 0.791288 0.157082
H15   H     H_    0.122932 0.835556 0.392689 0.169019
H16   H     H_    0.968741 0.816133 0.248815 0.169112
H17   H     H_    0.130432 0.758535 0.257154 0.165194
H18   H     H_    0.923011 0.660409 0.957196 0.193395
H19   H     H_    0.793103 0.337360 0.761503 0.143054
H20   H     H_    0.663838 0.202587 0.644724 0.140218
H21   H     H_    0.541193 0.336929 0.571454 0.142721
H22   H     H_    0.267018 0.253695 0.634314 0.171127
O1    O     O_R   0.411310 0.359450 0.448800 -0.595948
O2    O     O_R   0.048900 0.462510 0.908320 -0.568599
O3    O     O_R   0.855710 0.448510 0.907250 -0.579999
O4    O     O_R   0.958760 0.551540 0.907200 -0.587699
O5    O     O_R   0.944780 0.537560 0.085320 -0.568722
O6    O     O_R   0.047820 0.640590 0.085270 -0.576593
O7    O     O_R   0.034920 0.448530 0.086440 -0.583050
O8    O     O_R   0.137970 0.551560 0.086390 -0.563459
O9    O     O_R   0.051300 0.089020 0.640330 -0.587464
O10   O     O_R   0.947570 0.089010 0.536620 -0.559200
O11   O     O_R   0.140880 0.089030 0.551840 -0.595995
O12   O     O_R   0.410660 0.462490 0.551220 -0.576396
O13   O     O_R   0.037150 0.089020 0.448130 -0.550067
O14   O     O_R   0.052430 0.910990 0.463380 -0.582905
O15   O     O_R   0.948700 0.910980 0.359670 -0.582787
O16   O     O_R   0.962850 0.910980 0.551870 -0.582636
O17   O     O_R   0.859120 0.910970 0.448160 -0.582447
O18   O     O_R   0.589930 0.448490 0.538390 -0.585228
O19   O     O_R   0.589280 0.551530 0.640800 -0.592376
O20   O     O_R   0.589340 0.537510 0.448780 -0.572252
O21   O     O_R   0.588690 0.640550 0.551200 -0.592430
O22   O     O_R   0.410720 0.448470 0.359200 -0.586454
O23   O     O_R   0.410070 0.551510 0.461610 -0.573399
O24   O     O_R   0.945860 0.359480 0.908360 -0.596748
C47   C     C_2   0.146799 0.196297 0.420099 0.869416
O25   O     O_2   0.110471 0.131938 0.349244 -0.590961
O26   O     O_R   0.155687 0.274466 0.425578 -0.744605
H23   H     H_    0.131234 0.269951 0.366706 0.333077
C48   C     C_2   0.272785 0.548606 0.193417 0.875495
O27   O     O_2   0.278747 0.520450 0.128892 -0.587994
O28   O     O_R   0.345349 0.618373 0.271672 -0.747282
H24   H     H_    0.399186 0.638482 0.267094 0.331638
C49   C     C_2   0.009441 0.278091 0.609693 0.877879
O29   O     O_2   0.976279 0.318929 0.590357 -0.584765
O30   O     O_R   0.050031 0.250359 0.566802 -0.762471
H25   H     H_    0.046170 0.266447 0.520175 0.349615
C50   C     C_2   0.910826 0.651116 0.181272 0.866335
O31   O     O_2   0.844990 0.621421 0.113806 -0.587470
O32   O     O_R   0.906441 0.654891 0.254590 -0.748991
H26   H     H_    0.845653 0.633289 0.244303 0.333239
N1    N     N_2   0.847224 0.817502 0.838902 -0.385194
H27   H     H_    0.834636 0.815915 0.780793 0.243234
C51   C     C_3   0.801184 0.849663 0.874669 -0.599711
H28   H     H_    0.730667 0.803996 0.832341 0.206050
H29   H     H_    0.815271 0.913216 0.879181 0.227825
H30   H     H_    0.821736 0.858458 0.940730 0.241235
C52   C     C_2   0.963219 0.820315 0.990065 0.861707
O33   O     O_2   0.995583 0.818518 0.056831 -0.598575
O34   O     O_R   0.994035 0.899062 0.991340 -0.722184
H31   H     H_    0.042047 0.949257 0.050932 0.342855

loop_
_geom_bond_atom_site_label_1
_geom_bond_atom_site_label_2
_ccdc_geom_bond_type
C38   C40   S    
O26   H23   S    
Cu2   O21   S    
Cu1   O18   S    
C50   O31   D    
C33   C49   S    
Cu5   O11   S    
C7    C8    A    
C45   C46   A    
C2    C46   A    
Cu2   O23   S    
C26   O4    A    
C36   C37   D    
C34   O22   A    
C29   O9    A    
C27   O5    A    
C51   H29   S    
Cu5   O16   S    
C7    H19   S    
C5    C6    A    
C33   C35   D    
C11   C14   S    
C32   O17   A    
N1    H27   S    
C44   C52   S    
C33   C36   S    
C18   C19   D    
C39   H16   S    
Cu3   O7    S    
Cu6   O10   S    
C43   N1    S    
Cu3   O24   S    
C32   O16   A    
C47   O25   D    
C23   O21   A    
C8    C9    A    
N1    C51   S    
C23   C24   S    
C35   H12   S    
C1    C15   S    
C9    C10   A    
C42   H10   S    
C25   C37   S    
C28   O7    A    
C34   O23   A    
C49   O30   S    
Cu6   O15   S    
C2    C6    A    
C4    C7    A    
Cu4   O4    S    
C3    C26   S    
C19   H6    S    
C21   C32   S    
C8    H20   S    
C26   O3    A    
C40   H17   S    
C28   O8    A    
Cu5   Cu6   S    
C1    O1    A    
C13   C30   S    
O34   H31   S    
C21   H8    S    
C50   O32   S    
C27   O6    A    
Cu2   O19   S    
C51   H30   S    
C36   H13   S    
C16   C17   D    
C31   O15   A    
C11   H22   S    
Cu3   O5    S    
C20   H7    S    
C15   H3    S    
C13   C47   S    
C43   C44   A    
C16   H4    S    
Cu4   O2    S    
C27   C41   S    
C18   H5    S    
Cu1   Cu2   S    
Cu1   O22   S    
C37   H14   S    
C48   O28   S    
C20   C21   D    
C30   O11   A    
C52   O33   D    
C29   O10   A    
C40   C41   D    
C47   O26   S    
C20   C22   S    
C24   H11   S    
C22   C24   D    
C12   O19   A    
C9    H1    S    
C42   C43   A    
C49   O29   D    
C3    C4    A    
Cu5   O9    S    
C44   C45   A    
Cu4   O8    S    
O32   H26   S    
C1    O12   A    
C31   O14   A    
C14   H2    S    
C45   H18   S    
C17   C28   S    
C12   O18   A    
Cu6   O13   S    
C4    C5    A    
C19   C34   S    
Cu4   O6    S    
Cu5   O14   S    
O28   H24   S    
C29   C35   S    
C3    C46   A    
C23   O20   A    
C25   O2    A    
C17   C48   S    
Cu1   O1    S    
C5    C10   A    
O30   H25   S    
C22   H9    S    
C6    C12   S    
C11   C13   D    
C38   C39   D    
C2    C42   A    
C10   H21   S    
Cu1   O20   S    
Cu3   O3    S    
Cu2   O12   S    
C52   O34   S    
C25   O24   A    
C38   H15   S    
C16   C18   S    
Cu3   Cu4   S    
C41   C50   S    
C48   O27   D    
C31   C39   S    
C14   C15   D    
Cu6   O17   S    
C30   O13   A    
C51   H28   S    
