data_mof_unit_25403.cif
_audit_creation_date              2012-10-26T18:40:17-0400
_audit_creation_method            fapswitch 2.2
_symmetry_space_group_name_H-M    P1
_symmetry_Int_Tables_number       1
_space_group_crystal_system       triclinic
_cell_length_a                    8.699719
_cell_length_b                    15.044748
_cell_length_c                    14.018764
_cell_angle_alpha                 90.080385
_cell_angle_beta                  98.079932
_cell_angle_gamma                 93.068682
_cell_volume                      1813.95356577

loop_
_atom_site_label
_atom_site_type_symbol
_atom_type_description
_atom_site_fract_x
_atom_site_fract_y
_atom_site_fract_z
_atom_type_partial_charge
C1    C     C_R   0.511066 0.330188 0.501357 0.568794
C2    C     C_R   0.548199 0.574589 0.896712 -0.155950
C3    C     C_R   0.499030 0.502964 0.054082 -0.017016
C4    C     C_R   0.492878 0.500664 0.944645 -0.023585
C5    C     C_R   0.204043 0.499410 0.475295 0.580426
C6    C     C_R   0.796063 0.500299 0.524943 0.559096
C7    C     C_2   0.037922 0.498589 0.462366 -0.106628
C8    C     C_2   0.962409 0.500829 0.538812 -0.111829
C9    C     C_R   0.567409 0.095681 0.592528 -0.117575
C10   C     C_R   0.402581 0.905432 0.531193 -0.128302
C11   C     C_R   0.571409 0.188131 0.592608 0.106075
C12   C     C_R   0.501572 0.669581 0.500220 0.585088
C13   C     C_R   0.386913 0.813270 0.524989 0.062900
C14   C     C_R   0.531754 0.233464 0.504755 0.013679
C15   C     C_R   0.510997 0.765810 0.501678 0.032602
C16   C     C_R   0.514530 0.184850 0.418044 -0.166944
C17   C     C_R   0.649194 0.810523 0.483849 -0.133857
C18   C     C_R   0.519730 0.092249 0.417297 -0.006770
C19   C     C_R   0.664942 0.903303 0.488631 -0.003020
C20   C     C_R   0.540024 0.047619 0.506160 -0.002086
C21   C     C_R   0.538847 0.950663 0.511103 -0.011536
C22   C     C_R   0.509804 0.044669 0.323428 0.034617
C23   C     C_R   0.626210 0.541751 0.117535 -0.027362
C24   C     C_R   0.616128 0.068394 0.259828 -0.102345
C25   C     C_R   0.614050 0.020964 0.173778 -0.131215
C26   C     C_R   0.503508 0.950942 0.149266 -0.109777
C27   C     C_R   0.395270 0.927983 0.211006 -0.112591
C28   C     C_R   0.398349 0.974478 0.297693 -0.097975
C29   C     C_R   0.811376 0.949497 0.468350 0.049469
C30   C     C_R   0.863624 0.937092 0.379188 -0.060418
C31   C     C_R   0.994596 0.986234 0.356818 -0.115154
C32   C     C_R   0.076133 0.046536 0.424011 -0.119969
C33   C     C_R   0.028095 0.056944 0.514120 -0.103739
C34   C     C_R   0.430944 0.426522 0.886443 -0.026869
C35   C     C_R   0.896437 0.008488 0.536454 -0.079474
C36   C     C_R   0.771951 0.570589 0.079063 0.031781
C37   C     C_R   0.856145 0.506732 0.038422 -0.091371
C38   C     C_R   0.983371 0.532973 0.992394 -0.119457
C39   C     C_R   0.030202 0.622933 0.988267 -0.102097
C40   C     C_R   0.947361 0.687103 0.028176 -0.101957
C41   C     C_R   0.817705 0.661337 0.072333 -0.085581
C42   C     C_R   0.395680 0.340044 0.931964 0.047213
C43   C     C_R   0.518953 0.292219 0.977755 -0.062284
C44   C     C_R   0.489226 0.213430 0.026099 -0.109157
C45   C     C_R   0.616769 0.547100 0.218520 0.208711
C46   C     C_R   0.336214 0.181508 0.029157 -0.106098
C47   C     C_R   0.212559 0.228472 0.983655 -0.098088
C48   C     C_R   0.241821 0.307408 0.935158 -0.081989
C49   C     C_R   0.255425 0.401598 0.228070 0.085762
C50   C     C_R   0.105800 0.432469 0.227928 -0.091527
C51   C     C_R   0.982213 0.373321 0.243477 -0.135354
C52   C     C_R   0.006394 0.282821 0.256665 -0.107376
C53   C     C_R   0.152976 0.250997 0.251501 -0.120160
C54   C     C_R   0.275939 0.310041 0.235189 -0.077107
C55   C     C_R   0.663526 0.642505 0.763655 0.083759
C56   C     C_R   0.419369 0.432519 0.784137 0.249756
C57   C     C_R   0.609984 0.729032 0.754135 -0.089444
C58   C     C_R   0.708939 0.799716 0.731241 -0.121327
C59   C     C_R   0.862811 0.784953 0.720451 -0.101058
C60   C     C_R   0.918245 0.699666 0.733532 -0.113597
C61   C     C_R   0.819293 0.628762 0.755470 -0.065618
C62   C     C_R   0.379615 0.459652 0.196290 0.110163
C63   C     C_R   0.566160 0.570190 0.798786 0.106599
C64   C     C_R   0.373530 0.467298 0.096074 -0.151434
Cu1   Cu    Cu3+1 0.500000 0.499990 0.596430 1.026874
Cu2   Cu    Cu3+1 0.500000 0.500010 0.403570 0.997392
H1    H     H_    0.977266 0.496282 0.389452 0.146085
H2    H     H_    0.698738 0.038229 0.126301 0.101335
H3    H     H_    0.501855 0.914426 0.082523 0.109255
H4    H     H_    0.309465 0.873774 0.191994 0.119556
H5    H     H_    0.314364 0.955240 0.344645 0.125815
H6    H     H_    0.799864 0.891756 0.325845 0.139472
H7    H     H_    0.031881 0.978164 0.286997 0.101855
H8    H     H_    0.177026 0.084880 0.406598 0.115990
H9    H     H_    0.092455 0.102910 0.566464 0.142096
H10   H     H_    0.860384 0.017287 0.606527 0.111596
H11   H     H_    0.821054 0.436754 0.040594 0.104625
H12   H     H_    0.022769 0.503433 0.612205 0.144521
H13   H     H_    0.044160 0.483618 0.958609 0.101026
H14   H     H_    0.128954 0.642978 0.952636 0.110666
H15   H     H_    0.981639 0.756967 0.023127 0.106839
H16   H     H_    0.750148 0.712169 0.098456 0.124604
H17   H     H_    0.638115 0.316308 0.976464 0.114267
H18   H     H_    0.585174 0.177619 0.061609 0.105158
H19   H     H_    0.313486 0.120777 0.067309 0.118460
H20   H     H_    0.094002 0.204205 0.986781 0.117019
H21   H     H_    0.144880 0.344175 0.902243 0.121774
H22   H     H_    0.085239 0.502192 0.215769 0.142311
H23   H     H_    0.592900 0.060844 0.660066 0.129093
H24   H     H_    0.867484 0.397546 0.244483 0.123892
H25   H     H_    0.910800 0.237136 0.268485 0.107194
H26   H     H_    0.170333 0.180409 0.257331 0.102113
H27   H     H_    0.385397 0.284452 0.223147 0.099875
H28   H     H_    0.491722 0.741439 0.764059 0.115599
H29   H     H_    0.666594 0.865978 0.722338 0.114838
H30   H     H_    0.939514 0.839787 0.703170 0.135393
H31   H     H_    0.038580 0.688562 0.728307 0.139796
H32   H     H_    0.865131 0.563660 0.768532 0.125781
H33   H     H_    0.305659 0.942277 0.547343 0.147990
H34   H     H_    0.498285 0.218846 0.350327 0.121375
H35   H     H_    0.745826 0.773036 0.468351 0.162476
H36   H     H_    0.270477 0.441697 0.050802 0.108609
H37   H     H_    0.585146 0.635393 0.936270 0.115240
H38   H     H_    0.703636 0.121808 0.278315 0.104296
I1    I     I_    0.665734 0.249397 0.726809 -0.383379
I2    I     I_    0.168945 0.750550 0.542339 -0.453221
I3    I     I_    0.776711 0.641204 0.300517 -0.406704
I4    I     I_    0.252163 0.341842 0.701986 -0.341275
N1    N     N_R   0.500000 0.500020 0.258690 -0.229158
N2    N     N_R   0.500000 0.499980 0.741310 -0.225294
O1    O     O_R   0.500010 0.371450 0.581430 -0.443182
O2    O     O_R   0.499990 0.628550 0.418570 -0.466716
O3    O     O_R   0.500010 0.371460 0.418560 -0.518379
O4    O     O_R   0.499990 0.628540 0.581440 -0.489168
O5    O     O_R   0.274840 0.499990 0.562640 -0.477420
O6    O     O_R   0.725160 0.500010 0.437360 -0.487497
O7    O     O_R   0.274840 0.500000 0.399770 -0.493911
O8    O     O_R   0.725160 0.500000 0.600230 -0.499276

loop_
_geom_bond_atom_site_label_1
_geom_bond_atom_site_label_2
_ccdc_geom_bond_type
C34   C56   A    
C23   C45   A    
Cu2   O3    S    
C43   H17   S    
Cu1   O4    S    
C3    C23   A    
C61   H32   S    
C34   C42   S    
C43   C44   A    
C7    C8    D    
C53   C54   A    
C2    C63   A    
C64   H36   S    
C26   C27   A    
C29   C30   A    
Cu2   O6    S    
C36   C37   A    
C19   C21   A    
C51   H24   S    
C32   H8    S    
C30   C31   A    
C11   C14   A    
C45   N1    A    
C31   H7    S    
C38   H13   S    
C49   C54   A    
C49   C50   A    
C17   H35   S    
C56   I4    S    
C54   H27   S    
C62   C64   A    
C17   C19   A    
C33   H9    S    
Cu1   O1    S    
C31   C32   A    
Cu2   O7    S    
C55   C63   S    
C11   I1    S    
Cu1   O8    S    
C18   C20   A    
C50   H22   S    
C46   H19   S    
C59   C60   A    
C22   C28   A    
C5    O5    A    
C8    H12   S    
Cu1   O5    S    
C36   C41   A    
C25   H2    S    
C1    O3    A    
C56   N2    A    
C44   C46   A    
C12   O4    A    
C10   C21   A    
C4    C34   A    
C35   H10   S    
C51   C52   A    
C47   H20   S    
C24   C25   A    
C60   H31   S    
C9    H23   S    
C39   C40   A    
C5    C7    S    
C16   H34   S    
C6    C8    S    
C25   C26   A    
C3    C64   A    
C37   H11   S    
C5    O7    A    
C60   C61   A    
C24   H38   S    
C2    C4    A    
C58   H29   S    
C37   C38   A    
C9    C20   A    
C47   C48   A    
C12   C15   S    
C53   H26   S    
C50   C51   A    
C48   H21   S    
C42   C48   A    
C9    C11   A    
C6    O6    A    
C27   H4    S    
C40   C41   A    
Cu1   Cu2   S    
C57   H28   S    
C55   C57   A    
C22   C24   A    
C28   H5    S    
C59   H30   S    
C3    C4    S    
C19   C29   S    
C12   O2    A    
C52   C53   A    
C15   C17   A    
C46   C47   A    
C49   C62   S    
C18   C22   S    
C40   H15   S    
C13   I2    S    
C44   H18   S    
C10   C13   A    
C30   H6    S    
C29   C35   A    
C32   C33   A    
C63   N2    A    
C13   C15   A    
C58   C59   A    
C39   H14   S    
C57   C58   A    
C38   C39   A    
C62   N1    A    
C2    H37   S    
C41   H16   S    
C55   C61   A    
C33   C35   A    
C14   C16   A    
Cu2   N1    S    
C10   H33   S    
Cu1   N2    S    
C7    H1    S    
C20   C21   S    
C16   C18   A    
C23   C36   S    
C42   C43   A    
C27   C28   A    
C26   H3    S    
C52   H25   S    
C1    C14   S    
Cu2   O2    S    
C6    O8    A    
C1    O1    A    
C45   I3    S    
