data_mof_unit_22771.cif
_audit_creation_date              2012-12-10T17:28:39-0500
_audit_creation_method            fapswitch 2.2
_symmetry_space_group_name_H-M    P1
_symmetry_Int_Tables_number       1
_space_group_crystal_system       triclinic
_cell_length_a                    10.667155
_cell_length_b                    11.994559
_cell_length_c                    12.83603
_cell_angle_alpha                 94.318695
_cell_angle_beta                  90.017885
_cell_angle_gamma                 86.457613
_cell_volume                      1634.53425871

loop_
_atom_site_label
_atom_site_type_symbol
_atom_type_description
_atom_site_fract_x
_atom_site_fract_y
_atom_site_fract_z
_atom_type_partial_charge
C1    C     C_R   0.493103 0.522949 0.700216 0.845015
C2    C     C_R   0.577551 0.536795 0.129898 0.022467
C3    C     C_R   0.466814 0.459301 0.976195 0.139953
C4    C     C_R   0.550923 0.536730 0.022534 0.132898
C5    C     C_R   0.377297 0.953600 0.407522 -0.333316
C6    C     C_R   0.622764 0.046380 0.592457 -0.333688
C7    C     C_R   0.389320 0.837561 0.416240 0.021801
C8    C     C_R   0.610101 0.162532 0.584329 0.033561
C9    C     C_R   0.554081 0.858753 0.538928 -0.056148
C10   C     C_R   0.446358 0.141170 0.460684 -0.050862
C11   C     C_R   0.545035 0.976028 0.533201 0.093528
C12   C     C_R   0.507967 0.477188 0.299780 0.852494
C13   C     C_R   0.455414 0.023890 0.466417 0.090912
C14   C     C_R   0.739177 0.500227 0.499016 0.870605
C15   C     C_R   0.260832 0.499917 0.500555 0.869296
C16   C     C_R   0.877773 0.396350 0.324471 -0.170848
C17   C     C_R   0.121183 0.616154 0.668717 -0.155987
C18   C     C_R   0.946748 0.346976 0.239132 -0.137621
C19   C     C_R   0.051420 0.672657 0.750306 -0.139536
C20   C     C_R   0.076921 0.347438 0.239338 -0.154337
C21   C     C_R   0.921693 0.669104 0.751594 -0.148169
C22   C     C_R   0.138222 0.397040 0.325019 -0.163857
C23   C     C_R   0.515754 0.461085 0.188070 -0.076886
C24   C     C_R   0.861427 0.611306 0.669968 -0.162529
C25   C     C_R   0.069543 0.447337 0.412878 0.081792
C26   C     C_R   0.930331 0.557238 0.583973 0.076070
C27   C     C_R   0.938580 0.447515 0.412371 0.071775
C28   C     C_R   0.061100 0.558243 0.583958 0.059125
C29   C     C_R   0.128476 0.500445 0.499795 -0.198836
C30   C     C_R   0.871515 0.501121 0.498670 -0.198673
C31   C     C_3   0.672595 0.613570 0.182151 -0.405436
C32   C     C_3   0.618842 0.735586 0.202621 -0.306482
C33   C     C_3   0.704138 0.803560 0.274849 -0.849619
C34   C     C_R   0.492483 0.539054 0.811808 -0.069992
C35   C     C_3   0.318583 0.403082 0.826368 -0.417809
C36   C     C_3   0.194165 0.441602 0.882540 -0.367781
C37   C     C_3   0.083869 0.382442 0.832685 -0.853543
C38   C     C_R   0.603867 0.613345 0.960728 -0.237826
C39   C     C_R   0.424994 0.374483 0.034445 -0.240756
C40   C     C_R   0.574535 0.614414 0.856689 -0.247542
C41   C     C_R   0.447988 0.376366 0.139722 -0.253863
C42   C     C_R   0.428767 0.466962 0.871999 0.031245
H1    H     H_    0.867599 0.710882 0.816118 0.125950
H2    H     H_    0.760651 0.609715 0.674992 0.137914
H3    H     H_    0.405571 0.315451 0.184624 0.157267
H4    H     H_    0.621097 0.671086 0.809929 0.150555
H5    H     H_    0.671809 0.670764 0.989760 0.148430
H6    H     H_    0.370350 0.308082 0.000718 0.153075
H7    H     H_    0.378396 0.179540 0.409509 0.125561
H8    H     H_    0.622297 0.820331 0.589851 0.125691
H9    H     H_    0.670187 0.216774 0.629902 0.138780
H10   H     H_    0.328732 0.783392 0.371131 0.132988
H11   H     H_    0.713931 0.766316 0.351270 0.279751
H12   H     H_    0.130604 0.309925 0.172704 0.129474
H13   H     H_    0.798487 0.805669 0.238767 0.250879
H14   H     H_    0.662936 0.890731 0.288669 0.248013
H15   H     H_    0.607950 0.777385 0.128822 0.199872
H16   H     H_    0.524177 0.738209 0.238455 0.244425
H17   H     H_    0.705332 0.581474 0.256974 0.207188
H18   H     H_    0.759542 0.610419 0.134169 0.182378
H19   H     H_    0.096709 0.290854 0.840180 0.253912
H20   H     H_    0.995225 0.414545 0.872822 0.251890
H21   H     H_    0.075844 0.397966 0.748752 0.273161
H22   H     H_    0.177123 0.533306 0.878998 0.228735
H23   H     H_    0.307412 0.987948 0.355564 0.145816
H24   H     H_    0.197291 0.424802 0.966208 0.225466
H25   H     H_    0.303388 0.417005 0.742841 0.217921
H26   H     H_    0.338763 0.311473 0.829488 0.201566
H27   H     H_    0.692557 0.012029 0.644501 0.146563
H28   H     H_    0.776720 0.394995 0.319945 0.135117
H29   H     H_    0.222135 0.618135 0.673633 0.145164
H30   H     H_    0.898915 0.308946 0.172401 0.137322
H31   H     H_    0.098495 0.717398 0.813804 0.127623
H32   H     H_    0.239402 0.396875 0.320726 0.137131
N1    N     N_R   0.523130 0.207800 0.519340 -0.102135
N2    N     N_R   0.476870 0.792200 0.480660 -0.098779
O1    O     O_R   0.506170 0.421700 0.658830 -0.619536
O2    O     O_R   0.493830 0.578300 0.341170 -0.616706
O3    O     O_R   0.491330 0.609310 0.646410 -0.628800
O4    O     O_R   0.508670 0.390690 0.353590 -0.630981
O5    O     O_R   0.690650 0.406190 0.506220 -0.615495
O6    O     O_R   0.309350 0.593810 0.493780 -0.617943
O7    O     O_R   0.675800 0.593810 0.493800 -0.630231
O8    O     O_R   0.324200 0.406190 0.506200 -0.625080
Zn1   Zn    Zn3+2 0.509910 0.374730 0.508290 0.933258
Zn2   Zn    Zn3+2 0.490090 0.625270 0.491710 0.926252

loop_
_geom_bond_atom_site_label_1
_geom_bond_atom_site_label_2
_ccdc_geom_bond_type
C33   H13   S    
C6    H27   S    
C3    C42   A    
C1    O1    A    
C35   C36   S    
C34   C42   A    
C32   H16   S    
C37   H20   S    
C39   C41   A    
C40   H4    S    
C12   C23   S    
C34   C40   A    
C32   H15   S    
C36   C37   S    
C19   C21   A    
C24   C26   A    
C7    H10   S    
C36   H24   S    
C25   C29   A    
C31   H17   S    
C35   C42   S    
C21   H1    S    
N1    Zn1   S    
C22   C25   A    
C12   O2    A    
C9    N2    A    
C5    C13   A    
O2    Zn2   S    
C33   H14   S    
C3    C39   A    
C27   C30   A    
C18   H30   S    
C14   O7    A    
C14   C30   S    
C37   H21   S    
C1    C34   S    
C15   C29   S    
C15   O6    A    
C33   H11   S    
C19   H31   S    
C16   H28   S    
O8    Zn1   S    
C20   H12   S    
C6    C11   A    
C5    C7    A    
C6    C8    A    
O6    Zn2   S    
C8    N1    A    
C2    C31   S    
C31   H18   S    
C2    C4    A    
O4    Zn1   S    
C10   N1    A    
C31   C32   S    
C35   H25   S    
C9    C11   A    
C8    H9    S    
C38   H5    S    
C15   O8    A    
C5    H23   S    
C20   C22   A    
C26   C30   A    
C24   H2    S    
C22   H32   S    
C3    C4    A    
N2    Zn2   S    
C28   C29   A    
C17   C28   A    
C9    H8    S    
C4    C38   A    
C10   C13   A    
C37   H19   S    
C17   H29   S    
C7    N2    A    
C25   C27   A    
C26   C28   A    
C23   C41   A    
C32   C33   S    
C38   C40   A    
C11   C13   A    
C35   H26   S    
C16   C27   A    
C1    O3    A    
C12   O4    A    
C17   C19   A    
C18   C20   A    
O1    Zn1   S    
O7    Zn2   S    
C16   C18   A    
C21   C24   A    
C2    C23   A    
C41   H3    S    
C14   O5    A    
C36   H22   S    
C10   H7    S    
O3    Zn2   S    
O5    Zn1   S    
C39   H6    S    
