data_mof_unit_17081.cif
_audit_creation_date              2012-12-10T19:42:55-0500
_audit_creation_method            fapswitch 2.2
_symmetry_space_group_name_H-M    P1
_symmetry_Int_Tables_number       1
_space_group_crystal_system       triclinic
_cell_length_a                    10.812643
_cell_length_b                    12.977086
_cell_length_c                    11.665004
_cell_angle_alpha                 99.924743
_cell_angle_beta                  94.131093
_cell_angle_gamma                 89.860099
_cell_volume                      1608.02714605

loop_
_atom_site_label
_atom_site_type_symbol
_atom_type_description
_atom_site_fract_x
_atom_site_fract_y
_atom_site_fract_z
_atom_type_partial_charge
C1    C     C_R   0.497673 0.299046 0.478534 0.803682
C2    C     C_R   0.502328 0.700954 0.521466 0.803692
C3    C     C_R   0.871679 0.500919 0.501376 -0.189141
C4    C     C_R   0.128324 0.499076 0.498623 -0.189109
C5    C     C_R   0.940428 0.429035 0.558029 -0.060832
C6    C     C_R   0.059578 0.570970 0.441985 -0.060776
C7    C     C_R   0.502178 0.814371 0.534177 -0.048870
C8    C     C_R   0.497827 0.185629 0.465824 -0.048905
C9    C     C_R   0.528206 0.015837 0.348723 -0.228890
C10   C     C_R   0.471800 0.984163 0.651279 -0.228889
C11   C     C_R   0.520829 0.123850 0.358515 -0.204979
C12   C     C_R   0.479177 0.876151 0.641486 -0.204980
C13   C     C_R   0.479214 0.138833 0.562693 -0.262850
C14   C     C_R   0.520791 0.861168 0.437308 -0.262817
C15   C     C_R   0.487423 0.030968 0.553869 0.160225
C16   C     C_R   0.512582 0.969033 0.446133 0.160243
C17   C     C_R   0.393241 0.394677 0.020178 -0.260038
C18   C     C_R   0.606761 0.605321 0.979822 -0.260023
C19   C     C_R   0.402252 0.405602 0.142694 0.095575
C20   C     C_R   0.597750 0.594397 0.857306 0.095608
C21   C     C_R   0.544384 0.546737 0.157980 0.041492
C22   C     C_R   0.455616 0.453262 0.842019 0.041454
C23   C     C_R   0.262438 0.500663 0.499875 0.787861
C24   C     C_R   0.737563 0.499335 0.500125 0.787845
C25   C     C_R   0.538301 0.538590 0.034869 0.051716
C26   C     C_R   0.461700 0.461409 0.965130 0.051770
C27   C     C_R   0.212567 0.823916 0.407434 -0.107788
C28   C     C_R   0.787356 0.176217 0.592860 -0.107799
C29   C     C_R   0.156414 0.746604 0.456035 -0.148907
C30   C     C_R   0.843541 0.253447 0.544167 -0.148731
C31   C     C_R   0.124364 0.649243 0.387470 0.088889
C32   C     C_R   0.875646 0.350832 0.612639 0.089024
C33   C     C_R   0.150032 0.629240 0.268157 0.100575
C34   C     C_R   0.850014 0.370938 0.731954 0.100536
C35   C     C_R   0.209142 0.707493 0.221392 -0.100831
C36   C     C_R   0.790862 0.292770 0.778808 -0.100792
C37   C     C_R   0.239614 0.804191 0.290614 -0.155376
C38   C     C_R   0.760324 0.196051 0.709675 -0.155401
C39   C     C_R   0.929961 0.572900 0.444355 -0.037674
C40   C     C_R   0.070043 0.427087 0.555635 -0.037719
Cu1   Cu    Cu3+1 0.509250 0.507730 0.615930 0.941530
Cu2   Cu    Cu3+1 0.490750 0.492270 0.384070 0.941518
H1    H     H_    0.284298 0.864054 0.253551 0.137057
H2    H     H_    0.715606 0.136254 0.746805 0.137016
H3    H     H_    0.396321 0.394491 0.787658 0.136717
H4    H     H_    0.603678 0.605509 0.212342 0.136724
H5    H     H_    0.650854 0.646263 0.815899 0.121836
H6    H     H_    0.349147 0.353736 0.184101 0.121805
H7    H     H_    0.333169 0.334516 0.969040 0.160282
H8    H     H_    0.666833 0.665482 0.030960 0.160339
H9    H     H_    0.235912 0.899100 0.460691 0.151162
H10   H     H_    0.763971 0.101012 0.539675 0.151153
H11   H     H_    0.136487 0.762904 0.547037 0.128571
H12   H     H_    0.863446 0.237067 0.453167 0.128540
H13   H     H_    0.230988 0.694280 0.130900 0.161636
H14   H     H_    0.769032 0.306068 0.869300 0.161648
H15   H     H_    0.539574 0.813625 0.354515 0.152279
H16   H     H_    0.460431 0.186375 0.645486 0.152294
H17   H     H_    0.464583 0.840905 0.717169 0.159829
H18   H     H_    0.535423 0.159095 0.282832 0.159826
H19   H     H_    0.546950 0.969121 0.265562 0.140501
H20   H     H_    0.453057 0.030878 0.734440 0.140500
N1    N     N_R   0.523180 0.519350 0.790130 -0.191053
N2    N     N_R   0.476820 0.480650 0.209870 -0.191046
O1    O     O_R   0.506570 0.354460 0.582000 -0.589235
O2    O     O_R   0.493430 0.645540 0.418000 -0.589250
O3    O     O_R   0.490940 0.341410 0.386200 -0.595390
O4    O     O_R   0.509060 0.658590 0.613800 -0.595389
O5    O     O_R   0.327460 0.506540 0.597900 -0.575866
O6    O     O_R   0.672540 0.493460 0.402100 -0.575864
O7    O     O_R   0.311830 0.493480 0.402100 -0.596777
O8    O     O_R   0.688170 0.506520 0.597900 -0.596755
C41   C     C_2   0.114005 0.528354 0.192120 0.414566
H21   H     H_    0.072446 0.466028 0.227951 0.071565
O9    O     O_2   0.129778 0.513642 0.087973 -0.527278
C42   C     C_2   0.886117 0.471846 0.807897 0.414351
H22   H     H_    0.927725 0.534099 0.771998 0.071604
O10   O     O_2   0.870358 0.486655 0.912045 -0.527273
C43   C     C_2   0.854458 0.653303 0.393892 0.371235
H23   H     H_    0.770732 0.682998 0.433365 0.051423
O11   O     O_2   0.882475 0.685170 0.306620 -0.548502
C44   C     C_2   0.145546 0.346654 0.606059 0.371156
H24   H     H_    0.229289 0.316995 0.566582 0.051424
O12   O     O_2   0.117508 0.314713 0.693300 -0.548477

loop_
_geom_bond_atom_site_label_1
_geom_bond_atom_site_label_2
_ccdc_geom_bond_type
C8    C13   A    
C27   C29   A    
C1    C8    S    
Cu1   Cu2   S    
C23   O5    A    
C2    C7    S    
C24   O6    A    
C30   H12   S    
C24   O8    A    
C9    H19   S    
C17   C26   A    
C35   C37   A    
C9    C16   A    
C42   O10   D    
C2    O4    A    
C10   C15   A    
C15   C16   A    
Cu2   O6    S    
C41   H21   S    
C21   N2    A    
C33   C35   A    
C22   N1    A    
C12   H17   S    
C7    C14   A    
C4    C40   A    
C1    O1    A    
C31   C33   A    
C34   C36   A    
C5    C32   S    
C6    C31   S    
C3    C39   A    
C41   O9    D    
C3    C24   S    
C10   H20   S    
C18   C25   A    
C27   H9    S    
Cu1   O4    S    
C7    C12   A    
C35   H13   S    
C40   C44   S    
C42   H22   S    
C4    C6    A    
C17   H7    S    
C43   O11   D    
C4    C23   S    
C19   H6    S    
Cu1   O1    S    
C13   H16   S    
C3    C5    A    
C25   C26   A    
C39   C43   S    
C37   H1    S    
C38   H2    S    
C36   H14   S    
C23   O7    A    
C28   C38   A    
C19   N2    A    
C9    C11   A    
C10   C12   A    
Cu1   O8    S    
C33   C41   S    
C44   O12   D    
C13   C15   A    
Cu2   O3    S    
C14   C16   A    
Cu1   N1    S    
C11   H18   S    
Cu2   N2    S    
C18   H8    S    
Cu1   O5    S    
C21   H4    S    
C14   H15   S    
C21   C25   A    
C2    O2    A    
C1    O3    A    
C20   N1    A    
C28   C30   A    
C29   C31   A    
C30   C32   A    
C28   H10   S    
C29   H11   S    
C27   C37   A    
C8    C11   A    
C36   C38   A    
Cu2   O7    S    
C17   C19   A    
C18   C20   A    
C20   H5    S    
C43   H23   S    
C22   H3    S    
C44   H24   S    
C22   C26   A    
C5    C40   A    
C34   C42   S    
Cu2   O2    S    
C6    C39   A    
C32   C34   A    
