data_mof_unit_62002.cif
_audit_creation_date              2012-12-10T16:50:29-0500
_audit_creation_method            fapswitch 2.2
_symmetry_space_group_name_H-M    P1
_symmetry_Int_Tables_number       1
_space_group_crystal_system       triclinic
_cell_length_a                    18.839037
_cell_length_b                    18.764383
_cell_length_c                    18.810525
_cell_angle_alpha                 109.269976
_cell_angle_beta                  109.388929
_cell_angle_gamma                 109.31711
_cell_volume                      5146.30314988

loop_
_atom_site_label
_atom_site_type_symbol
_atom_type_description
_atom_site_fract_x
_atom_site_fract_y
_atom_site_fract_z
_atom_type_partial_charge
C1    C     C_R   0.383186 0.380682 0.502118 0.924417
C2    C     C_R   0.599191 0.339250 0.614299 -0.142401
C3    C     C_2   0.257313 0.253053 0.578164 -0.153664
C4    C     C_R   0.619299 0.499985 0.619310 0.874263
C5    C     C_2   0.181531 0.193728 0.505839 -0.331060
C6    C     C_2   0.318685 0.325404 0.578191 -0.152459
C7    C     C_2   0.323699 0.312672 0.506212 -0.343115
C8    C     C_2   0.173371 0.422535 0.180173 -0.152802
C9    C     C_2   0.184866 0.494686 0.175313 -0.330432
C10   C     C_2   0.246216 0.422508 0.241161 -0.151966
C11   C     C_2   0.306336 0.494820 0.316906 -0.327055
C12   C     C_R   0.758400 0.580503 0.753690 0.076848
C13   C     C_2   0.747266 0.735913 0.416749 0.000837
C14   C     C_2   0.818386 0.803435 0.491111 -0.424859
C15   C     C_2   0.686601 0.667480 0.422100 -0.175394
C16   C     C_R   0.616856 0.619282 0.497731 0.946041
C17   C     C_2   0.674608 0.686244 0.490782 -0.367181
C18   C     C_R   0.995493 0.381222 0.876077 0.923757
C19   C     C_R   0.877794 0.500284 0.877587 0.875336
C20   C     C_R   0.998228 0.618804 0.117583 0.925022
C21   C     C_R   0.116748 0.498083 0.114677 0.934690
C22   C     C_R   0.997180 0.116664 0.618514 0.924956
C23   C     C_R   0.812612 0.500405 0.811570 -0.204112
C24   C     C_R   0.118508 0.121294 0.501837 0.922761
C25   C     C_R   0.002674 0.883268 0.381450 0.979614
C26   C     C_R   0.881578 0.877449 0.496777 0.987831
C27   C     C_2   0.920250 0.180401 0.673054 -0.150862
C28   C     C_R   0.378106 0.498153 0.380445 0.939415
C29   C     C_2   0.992494 0.175876 0.686180 -0.331002
C30   C     C_2   0.919727 0.241746 0.744908 -0.164525
C31   C     C_2   0.991709 0.317926 0.804120 -0.328222
C32   C     C_2   0.077286 0.817237 0.324851 -0.169379
C33   C     C_2   0.006090 0.823397 0.313222 -0.314929
C34   C     C_R   0.743995 0.420129 0.738248 0.078197
C35   C     C_2   0.076245 0.756323 0.251304 -0.156044
C36   C     C_2   0.002922 0.681866 0.190391 -0.332285
C37   C     C_R   0.773073 0.660976 0.756646 -0.142373
C38   C     C_R   0.839901 0.739436 0.830199 -0.145080
C39   C     C_R   0.893247 0.739542 0.901887 -0.141907
C40   C     C_R   0.882970 0.661192 0.898218 -0.144027
C41   C     C_R   0.818441 0.580623 0.821864 0.073756
C42   C     C_2   0.730726 0.722517 0.329124 0.939939
C43   C     C_R   0.675426 0.419927 0.678725 0.072798
C44   C     C_R   0.685223 0.500157 0.684921 -0.204649
C45   C     C_R   0.741576 0.339789 0.723034 -0.140534
C46   C     C_R   0.668185 0.261252 0.656180 -0.147161
C47   C     C_R   0.596077 0.260964 0.603452 -0.139074
H1    H     H_    0.537996 0.199964 0.553142 0.136777
H2    H     H_    0.650396 0.601352 0.368288 0.187585
H3    H     H_    0.733979 0.664624 0.702458 0.149505
H4    H     H_    0.704060 0.752982 0.541049 0.157078
H5    H     H_    0.860948 0.137089 0.610910 0.166176
H6    H     H_    0.048526 0.211974 0.750775 0.158050
H7    H     H_    0.859952 0.225841 0.747354 0.156858
H8    H     H_    0.048257 0.337877 0.795947 0.160619
H9    H     H_    0.136945 0.859279 0.386779 0.166242
H10   H     H_    0.949872 0.788735 0.248949 0.158776
H11   H     H_    0.135958 0.771021 0.248901 0.165596
H12   H     H_    0.161811 0.202118 0.449278 0.158324
H13   H     H_    0.946101 0.662370 0.198162 0.165584
H14   H     H_    0.849438 0.800281 0.831981 0.135729
H15   H     H_    0.943605 0.800469 0.960063 0.137377
H16   H     H_    0.925795 0.665022 0.956058 0.151517
H17   H     H_    0.796083 0.336393 0.761809 0.142861
H18   H     H_    0.666848 0.200501 0.646211 0.132255
H19   H     H_    0.541045 0.335321 0.572017 0.149570
H20   H     H_    0.272939 0.250276 0.637877 0.167918
H21   H     H_    0.779420 0.736461 0.250814 0.336483
H22   H     H_    0.361751 0.387512 0.637721 0.169219
H23   H     H_    0.287871 0.248080 0.450002 0.156597
H24   H     H_    0.111842 0.362502 0.136672 0.165353
H25   H     H_    0.248871 0.551602 0.211590 0.160785
H26   H     H_    0.248347 0.362372 0.225508 0.164285
H27   H     H_    0.298743 0.551919 0.336827 0.157501
H28   H     H_    0.834191 0.802442 0.551715 0.154430
O1    O     O_R   0.409870 0.358470 0.449260 -0.635743
O2    O     O_R   0.948030 0.090450 0.538510 -0.617833
O3    O     O_R   0.141850 0.090470 0.551380 -0.622022
O4    O     O_R   0.409230 0.460600 0.550770 -0.611474
O5    O     O_R   0.039050 0.090460 0.448590 -0.626092
O6    O     O_R   0.051970 0.909550 0.461490 -0.620571
O7    O     O_R   0.949170 0.909540 0.358700 -0.606121
O8    O     O_R   0.960950 0.909540 0.551410 -0.624135
O9    O     O_R   0.858150 0.909530 0.448620 -0.595515
O10   O     O_R   0.591360 0.448940 0.540280 -0.622933
O11   O     O_R   0.590720 0.551070 0.641790 -0.627026
O12   O     O_R   0.048480 0.460610 0.906920 -0.618014
O13   O     O_R   0.590770 0.539400 0.449230 -0.612304
O14   O     O_R   0.590130 0.641530 0.550740 -0.633092
O15   O     O_R   0.409280 0.448930 0.358210 -0.615389
O16   O     O_R   0.408640 0.551060 0.459720 -0.621890
O17   O     O_R   0.946350 0.358500 0.906960 -0.626440
O18   O     O_2   0.656187 0.683183 0.269569 -0.631399
O19   O     O_R   0.799524 0.750738 0.313347 -0.806509
O20   O     O_R   0.854760 0.448970 0.905840 -0.624934
O21   O     O_R   0.956890 0.551080 0.905790 -0.623629
O22   O     O_R   0.945260 0.539450 0.086770 -0.615883
O23   O     O_R   0.047380 0.641560 0.086730 -0.626056
O24   O     O_R   0.036850 0.448980 0.087900 -0.614625
O25   O     O_R   0.138970 0.551100 0.087860 -0.622906
O26   O     O_R   0.050830 0.090460 0.641300 -0.627976
Zn1   Zn    Zn3+2 0.500430 0.431810 0.432220 0.957399
Zn2   Zn    Zn3+2 0.499570 0.568190 0.567780 0.955927
Zn3   Zn    Zn3+2 0.928680 0.431850 0.996880 0.957381
Zn4   Zn    Zn3+2 0.065060 0.568210 0.996820 0.958542
Zn5   Zn    Zn3+2 0.068640 0.000010 0.568630 0.960488
Zn6   Zn    Zn3+2 0.931360 0.999990 0.431370 0.979798

loop_
_geom_bond_atom_site_label_1
_geom_bond_atom_site_label_2
_ccdc_geom_bond_type
C6    H22   S    
O21   Zn4   S    
C26   O8    A    
C22   C29   S    
C27   C29   D    
C42   O18   D    
C35   C36   D    
C9    H25   S    
C3    C6    S    
C17   H4    S    
C7    H23   S    
C45   C46   A    
C27   H5    S    
C30   H7    S    
O5    Zn6   S    
O25   Zn4   S    
C37   C38   A    
O23   Zn4   S    
C35   H11   S    
C30   C31   D    
C21   O24   A    
C10   H26   S    
C4    O11   A    
O9    Zn6   S    
C12   C37   A    
O15   Zn1   S    
O6    Zn5   S    
C24   O5    A    
C20   O22   A    
C8    C9    D    
C33   H10   S    
C38   H14   S    
O24   Zn3   S    
C16   O14   A    
C42   O19   S    
C13   C14   D    
O14   Zn2   S    
C27   C30   S    
C25   O6    A    
O4    Zn2   S    
O11   Zn2   S    
C13   C42   S    
O1    Zn1   S    
C5    H12   S    
C32   C35   S    
O2    Zn6   S    
C46   H18   S    
C39   C40   A    
C21   O25   A    
C16   C17   S    
C4    O10   A    
C4    C44   S    
C3    C5    D    
H21   O19   S    
C19   C23   S    
C43   C44   A    
C12   C41   A    
C47   H1    S    
O12   Zn4   S    
C2    C43   A    
C23   C34   A    
C34   C45   A    
O7    Zn6   S    
C14   C26   S    
C40   H16   S    
C24   O3    A    
C40   C41   A    
C22   O26   A    
C13   C15   S    
C25   O7    A    
C1    O4    A    
C19   O20   A    
O20   Zn3   S    
C19   O21   A    
O26   Zn5   S    
C15   C17   D    
C39   H15   S    
C46   C47   A    
C8    H24   S    
C26   O9    A    
C1    C7    S    
C1    O1    A    
C3    H20   S    
C34   C43   A    
C22   O2    A    
O16   Zn2   S    
C2    H19   S    
C11   H27   S    
O13   Zn1   S    
C6    C7    D    
C2    C47   A    
C45   H17   S    
C18   O12   A    
C23   C41   A    
O8    Zn5   S    
O3    Zn5   S    
C18   O17   A    
C32   C33   D    
C12   C44   A    
C14   H28   S    
C37   H3    S    
C9    C21   S    
C38   C39   A    
C5    C24   S    
C29   H6    S    
C11   C28   S    
C28   O16   A    
C15   H2    S    
O22   Zn3   S    
C10   C11   D    
O17   Zn3   S    
C20   C36   S    
C20   O23   A    
C8    C10   S    
C16   O13   A    
C36   H13   S    
C28   O15   A    
C18   C31   S    
C31   H8    S    
C32   H9    S    
O10   Zn1   S    
C25   C33   S    
