data_mof_unit_40408.cif
_audit_creation_date              2012-10-26T19:46:08-0400
_audit_creation_method            fapswitch 2.2
_symmetry_space_group_name_H-M    P1
_symmetry_Int_Tables_number       1
_space_group_crystal_system       triclinic
_cell_length_a                    10.764907
_cell_length_b                    9.549452
_cell_length_c                    15.865192
_cell_angle_alpha                 90.452589
_cell_angle_beta                  90.815269
_cell_angle_gamma                 89.532183
_cell_volume                      1630.65641684

loop_
_atom_site_label
_atom_site_type_symbol
_atom_type_description
_atom_site_fract_x
_atom_site_fract_y
_atom_site_fract_z
_atom_type_partial_charge
C1    C     C_R   0.262319 0.500464 0.499461 0.573023
C2    C     C_R   0.934968 0.598160 0.548634 -0.142477
C3    C     C_R   0.871039 0.500080 0.499217 -0.080743
C4    C     C_R   0.128218 0.501294 0.498868 0.023136
C5    C     C_R   0.420455 0.074239 0.448920 -0.046222
C6    C     C_R   0.422001 0.925865 0.447824 -0.042513
C7    C     C_R   0.499378 0.499471 0.340234 0.531103
C8    C     C_R   0.575616 0.924731 0.554879 0.372812
C9    C     C_R   0.582811 0.074822 0.549922 0.368484
C10   C     C_R   0.737548 0.499736 0.499718 0.550156
C11   C     C_R   0.499717 0.500420 0.659774 0.539077
C12   C     C_3   0.602380 0.394374 0.949896 -0.154709
C13   C     C_3   0.525740 0.645166 0.050409 -0.235062
C14   C     C_3   0.372148 0.451460 0.047062 -0.264208
C15   C     C_3   0.372268 0.452682 0.949434 -0.241753
C16   C     C_3   0.529813 0.645586 0.952918 -0.236294
C17   C     C_1   0.499469 0.500967 0.749416 -0.053089
C18   C     C_3   0.501432 0.494482 0.082755 0.120572
C19   C     C_3   0.500904 0.497846 0.917132 0.022499
C20   C     C_3   0.619744 0.878243 0.694203 -0.004472
C21   C     C_3   0.712055 0.803723 0.752174 -0.384315
C22   C     C_3   0.789652 0.119843 0.574266 0.005025
C23   C     C_3   0.606882 0.393109 0.049759 0.545281
C24   C     C_3   0.879484 0.198154 0.632250 -0.372149
C25   C     C_3   0.823121 0.358636 0.072615 0.022912
C26   C     C_3   0.944053 0.439924 0.072779 -0.411143
C27   C     C_3   0.523615 0.154734 0.050627 -0.034714
C28   C     C_3   0.606388 0.036802 0.017799 -0.401413
C29   C     C_3   0.128536 0.371328 0.312682 -0.006982
C30   C     C_3   0.200925 0.273865 0.254781 -0.378672
C31   C     C_3   0.141805 0.634508 0.682321 -0.002144
C32   C     C_3   0.214068 0.736392 0.738048 -0.365194
C33   C     C_1   0.499853 0.500191 0.824971 -0.084765
C34   C     C_1   0.499499 0.496373 0.175034 -0.008762
C35   C     C_1   0.499094 0.498001 0.250586 -0.027522
C36   C     C_R   0.063444 0.406085 0.446621 0.207274
C37   C     C_R   0.063901 0.596986 0.550571 0.201745
C38   C     C_R   0.934542 0.403697 0.448898 -0.148780
Cu1   Cu    Cu3+1 0.500020 0.640660 0.500000 0.999962
Cu2   Cu    Cu3+1 0.500020 0.359340 0.500000 0.999911
H1    H     H_    0.461248 0.723212 0.927881 0.111819
H2    H     H_    0.590370 0.290215 0.920066 0.083159
H3    H     H_    0.884221 0.329489 0.409577 0.133880
H4    H     H_    0.885048 0.672964 0.587512 0.165308
H5    H     H_    0.356133 0.129926 0.408094 0.158093
H6    H     H_    0.359468 0.870200 0.405683 0.129867
H7    H     H_    0.524699 0.840264 0.707350 0.135321
H8    H     H_    0.623261 0.991315 0.710463 0.155785
H9    H     H_    0.807438 0.842025 0.740619 0.145358
H10   H     H_    0.688430 0.825517 0.818869 0.081826
H11   H     H_    0.709799 0.689022 0.740490 0.159618
H12   H     H_    0.299396 0.526935 0.926338 0.119873
H13   H     H_    0.803705 0.153707 0.508252 0.144470
H14   H     H_    0.814306 0.007090 0.578270 0.162821
H15   H     H_    0.874939 0.155338 0.697017 0.133810
H16   H     H_    0.975804 0.185875 0.608967 0.116330
H17   H     H_    0.855095 0.311190 0.634602 0.163945
H18   H     H_    0.819998 0.291279 0.015036 0.117866
H19   H     H_    0.823319 0.290682 0.129229 0.178524
H20   H     H_    0.951871 0.505041 0.130909 0.152509
H21   H     H_    0.024158 0.366002 0.070697 0.085950
H22   H     H_    0.946757 0.508931 0.016817 0.145387
H23   H     H_    0.450858 0.717678 0.071865 0.096502
H24   H     H_    0.460687 0.191504 0.999958 0.104207
H25   H     H_    0.462522 0.110274 0.099298 0.143404
H26   H     H_    0.659322 0.988594 0.070860 0.156346
H27   H     H_    0.548236 0.955424 0.986799 0.092908
H28   H     H_    0.673011 0.077104 0.971287 0.132138
H29   H     H_    0.175215 0.475166 0.313469 0.119671
H30   H     H_    0.032678 0.383247 0.286102 0.125845
H31   H     H_    0.157924 0.168536 0.253376 0.149968
H32   H     H_    0.199950 0.316633 0.189938 0.080642
H33   H     H_    0.298742 0.264336 0.277220 0.162992
H34   H     H_    0.300056 0.526516 0.069757 0.106811
H35   H     H_    0.195090 0.533997 0.679644 0.120370
H36   H     H_    0.050002 0.616149 0.711723 0.110696
H37   H     H_    0.228779 0.690926 0.801648 0.078199
H38   H     H_    0.305849 0.757521 0.710048 0.168553
H39   H     H_    0.161621 0.836499 0.744222 0.146111
H40   H     H_    0.344060 0.347663 0.070690 0.108725
H41   H     H_    0.614338 0.687002 0.076887 0.156884
H42   H     H_    0.347448 0.347743 0.923857 0.106497
H43   H     H_    0.623517 0.678803 0.932737 0.121945
H44   H     H_    0.693250 0.430260 0.925702 0.108222
N1    N     N_R   0.500030 0.852070 0.500020 -0.235451
N2    N     N_R   0.500030 0.147930 0.500020 -0.241849
O1    O     O_R   0.319660 0.618740 0.500000 -0.477085
O2    O     O_3   0.666510 0.148915 0.599739 -0.544990
O3    O     O_3   0.721876 0.454298 0.076072 -0.566214
O4    O     O_3   0.597542 0.258953 0.090041 -0.563043
O5    O     O_3   0.126093 0.313746 0.394383 -0.550784
O6    O     O_3   0.126617 0.692337 0.601155 -0.538301
O7    O     O_R   0.319660 0.381260 0.500000 -0.479845
O8    O     O_R   0.500020 0.618840 0.379440 -0.512529
O9    O     O_R   0.500020 0.381160 0.379440 -0.503328
O10   O     O_R   0.680370 0.618830 0.500010 -0.457627
O11   O     O_R   0.680370 0.381170 0.500010 -0.477611
O12   O     O_R   0.500010 0.618730 0.620560 -0.477392
O13   O     O_R   0.500010 0.381270 0.620560 -0.459551
O14   O     O_3   0.651906 0.849876 0.609546 -0.548433

loop_
_geom_bond_atom_site_label_1
_geom_bond_atom_site_label_2
_ccdc_geom_bond_type
C1    O1    A    
C4    C36   A    
C14   C18   S    
Cu1   O1    S    
Cu2   O7    S    
Cu2   O13   S    
C21   H9    S    
C30   H31   S    
C22   H14   S    
C24   H15   S    
C15   C19   S    
C12   C23   S    
C6    N1    A    
C13   C18   S    
C11   O12   A    
C14   H34   S    
C28   H28   S    
C26   H21   S    
C8    N1    A    
C9    O2    S    
C5    C6    A    
C13   H41   S    
C12   H44   S    
C27   O4    S    
C11   O13   A    
C34   C35   T    
Cu2   N2    S    
C12   H2    S    
C32   H37   S    
C3    C38   A    
C2    H4    S    
C24   H17   S    
C13   H23   S    
C23   O3    S    
C22   O2    S    
C22   H13   S    
C17   C33   T    
C21   H10   S    
C15   H42   S    
C29   H29   S    
C18   C23   S    
C28   H27   S    
C19   C33   S    
Cu2   O11   S    
C30   H33   S    
C8    C9    A    
Cu1   O12   S    
C25   C26   S    
C5    H5    S    
C16   H43   S    
C10   O11   A    
C28   H26   S    
Cu1   O8    S    
C29   C30   S    
C27   H25   S    
C9    N2    A    
C31   H35   S    
C31   C32   S    
C20   O14   S    
C10   O10   A    
C23   O4    S    
C15   H12   S    
C4    C37   A    
C18   C34   S    
C20   H8    S    
C5    N2    A    
C36   O5    S    
C14   H40   S    
C22   C24   S    
C25   H18   S    
Cu1   N1    S    
Cu2   O9    S    
C21   H11   S    
C29   H30   S    
C7    O8    A    
C11   C17   S    
C6    H6    S    
C37   O6    S    
C7    C35   S    
C30   H32   S    
C24   H16   S    
C7    O9    A    
C25   O3    S    
C1    C4    S    
C36   C38   A    
C2    C3    A    
C8    O14   S    
C38   H3    S    
C3    C10   S    
C32   H39   S    
C2    C37   A    
C31   H36   S    
C16   C19   S    
C12   C19   S    
C26   H22   S    
Cu1   O10   S    
C20   H7    S    
C27   H24   S    
C32   H38   S    
Cu1   Cu2   S    
C20   C21   S    
C1    O7    A    
C31   O6    S    
C13   C16   S    
C27   C28   S    
C14   C15   S    
C25   H19   S    
C26   H20   S    
C16   H1    S    
C29   O5    S    
