data_mof_unit_12998.cif
_audit_creation_date              2012-12-11T14:24:55-0500
_audit_creation_method            fapswitch 2.2
_symmetry_space_group_name_H-M    P1
_symmetry_Int_Tables_number       1
_space_group_crystal_system       triclinic
_cell_length_a                    19.225
_cell_length_b                    11.131489
_cell_length_c                    18.614152
_cell_angle_alpha                 90.117325
_cell_angle_beta                  90.156969
_cell_angle_gamma                 90.062288
_cell_volume                      3983.4563838

loop_
_atom_site_label
_atom_site_type_symbol
_atom_type_description
_atom_site_fract_x
_atom_site_fract_y
_atom_site_fract_z
_atom_type_partial_charge
C1    C     C_R   0.728654 0.371037 0.143924 0.547112
C2    C     C_R   0.240903 0.892888 0.066524 -0.026777
C3    C     C_R   0.637334 0.528833 0.448792 -0.064722
C4    C     C_R   0.917073 0.067990 0.509036 -0.107020
C5    C     C_R   0.083166 0.068294 0.490981 -0.105477
C6    C     C_R   0.417069 0.568002 0.509038 -0.106965
C7    C     C_R   0.583168 0.568301 0.490979 -0.105431
C8    C     C_R   0.927280 0.022122 0.440279 -0.123490
C9    C     C_R   0.072796 0.022419 0.559611 -0.123073
C10   C     C_R   0.427277 0.522131 0.440283 -0.123486
C11   C     C_R   0.572796 0.522424 0.559608 -0.123069
C12   C     C_R   0.881221 0.938396 0.413288 -0.066168
C13   C     C_R   0.260052 0.392100 0.934411 -0.047352
C14   C     C_R   0.118684 0.938645 0.586478 -0.066182
C15   C     C_R   0.381220 0.438403 0.413292 -0.066176
C16   C     C_R   0.618684 0.438650 0.586475 -0.066186
C17   C     C_R   0.758487 0.888788 0.415396 -0.058131
C18   C     C_R   0.241317 0.888600 0.584488 -0.056860
C19   C     C_R   0.258486 0.388791 0.415398 -0.058121
C20   C     C_R   0.741317 0.388602 0.584487 -0.056848
C21   C     C_R   0.728276 0.373806 0.357391 0.573619
C22   C     C_R   0.271778 0.373591 0.642559 0.571554
C23   C     C_R   0.228275 0.873803 0.357392 0.573609
C24   C     C_R   0.740903 0.392888 0.066523 -0.026775
C25   C     C_R   0.771779 0.873587 0.642557 0.571547
C26   C     C_R   0.531377 0.157526 0.352556 0.582262
C27   C     C_R   0.468621 0.157508 0.647458 0.575434
C28   C     C_R   0.031377 0.657526 0.352556 0.582261
C29   C     C_R   0.968621 0.657508 0.647458 0.575431
C30   C     C_R   0.743881 0.963020 0.352181 0.528193
C31   C     C_R   0.256069 0.962958 0.647801 0.527051
C32   C     C_R   0.243880 0.463021 0.352182 0.528193
C33   C     C_R   0.756069 0.462959 0.647800 0.527051
C34   C     C_3   0.563897 0.220941 0.954665 -0.136237
C35   C     C_R   0.703660 0.842140 0.973887 -0.042490
C36   C     C_3   0.521881 0.272452 0.018837 -0.092497
C37   C     C_3   0.063896 0.720944 0.954665 -0.136244
C38   C     C_3   0.021878 0.772451 0.018838 -0.092503
C39   C     C_3   0.581224 0.107174 0.999119 -0.146313
C40   C     C_3   0.455470 0.209526 0.990615 -0.100832
C41   C     C_3   0.081225 0.607178 0.999118 -0.146312
C42   C     C_3   0.955469 0.709522 0.990615 -0.100833
C43   C     C_3   0.538642 0.158304 0.061817 0.044791
C44   C     C_3   0.497808 0.159145 0.927762 0.046747
C45   C     C_3   0.038642 0.658304 0.061817 0.044792
C46   C     C_R   0.295316 0.838197 0.026128 -0.042326
C47   C     C_3   0.997807 0.659145 0.927762 0.046748
C48   C     C_R   0.203660 0.342141 0.973887 -0.042490
C49   C     C_R   0.795316 0.338196 0.026128 -0.042326
C50   C     C_R   0.709530 0.831648 0.049690 -0.052247
C51   C     C_R   0.289008 0.831368 0.950237 -0.062780
C52   C     C_R   0.209530 0.331649 0.049690 -0.052248
C53   C     C_R   0.271606 0.370906 0.856453 0.547326
C54   C     C_R   0.789008 0.331367 0.950237 -0.062780
C55   C     C_R   0.820873 0.932629 0.046983 0.202407
C56   C     C_R   0.181966 0.946386 0.955196 0.196155
C57   C     C_R   0.320873 0.432631 0.046982 0.202406
C58   C     C_R   0.681966 0.446384 0.955195 0.196155
C59   C     C_R   0.818393 0.933620 0.973005 -0.093686
C60   C     C_R   0.184142 0.942074 0.029243 -0.143102
C61   C     C_R   0.318392 0.433622 0.973004 -0.093686
C62   C     C_R   0.684142 0.442073 0.029242 -0.143104
C63   C     C_R   0.641566 0.803241 0.941398 -0.126711
C64   C     C_R   0.228654 0.871038 0.143924 0.547115
C65   C     C_R   0.355339 0.789450 0.057884 -0.136148
C66   C     C_R   0.141566 0.303239 0.941398 -0.126708
C67   C     C_R   0.855339 0.289449 0.057884 -0.136149
C68   C     C_R   0.091363 0.243189 0.981450 -0.111342
C69   C     C_R   0.902335 0.223741 0.017082 -0.082301
C70   C     C_R   0.591363 0.743190 0.981450 -0.111353
C71   C     C_R   0.402335 0.723742 0.017082 -0.082301
C72   C     C_R   0.602516 0.714803 0.053555 0.277102
C73   C     C_R   0.391882 0.703656 0.944046 0.278901
C74   C     C_R   0.102516 0.214802 0.053555 0.277105
C75   C     C_R   0.771607 0.870906 0.856453 0.547330
C76   C     C_R   0.891882 0.203655 0.944046 0.278902
C77   C     C_R   0.662759 0.756830 0.088071 0.278744
C78   C     C_R   0.333395 0.753788 0.910309 0.264700
C79   C     C_R   0.162758 0.256830 0.088071 0.278742
C80   C     C_R   0.833395 0.253787 0.910309 0.264700
C81   C     C_R   0.561196 0.151273 0.137253 0.550899
C82   C     C_R   0.467644 0.154812 0.855203 0.547175
C83   C     C_R   0.061196 0.651273 0.137253 0.550899
C84   C     C_R   0.967644 0.654812 0.855203 0.547175
C85   C     C_R   0.761485 0.897779 0.085355 -0.035942
C86   C     C_3   0.472633 0.095854 0.034260 -0.107109
C87   C     C_R   0.239162 0.904129 0.916176 0.016977
C88   C     C_R   0.261485 0.397780 0.085355 -0.035942
C89   C     C_R   0.739162 0.404127 0.916176 0.016978
C90   C     C_R   0.499426 0.165688 0.575402 0.016665
C91   C     C_R   0.500612 0.165615 0.424658 0.015076
C92   C     C_R   0.999426 0.665686 0.575402 0.016663
C93   C     C_R   0.000613 0.665613 0.424658 0.015075
C94   C     C_R   0.509711 0.059138 0.536318 0.021180
C95   C     C_R   0.490462 0.058994 0.463584 0.020725
C96   C     C_R   0.009711 0.559136 0.536319 0.021180
C97   C     C_3   0.514730 0.045014 0.970849 -0.105322
C98   C     C_R   0.990463 0.558992 0.463584 0.020726
C99   C     C_R   0.505193 0.273429 0.463079 -0.159682
C100  C     C_R   0.494755 0.273439 0.537172 -0.158984
C101  C     C_R   0.005194 0.773427 0.463080 -0.159679
C102  C     C_R   0.994755 0.773437 0.537172 -0.158982
C103  C     C_R   0.531206 0.951421 0.568466 0.304739
C104  C     C_R   0.468983 0.951011 0.431339 0.304563
C105  C     C_R   0.031205 0.451418 0.568466 0.304741
C106  C     C_R   0.968983 0.451009 0.431339 0.304560
C107  C     C_R   0.016146 0.343881 0.533607 -0.043341
C108  C     C_3   0.972634 0.595850 0.034260 -0.107108
C109  C     C_R   0.983921 0.343661 0.466187 -0.043852
C110  C     C_R   0.516148 0.843883 0.533606 -0.043333
C111  C     C_R   0.483923 0.843663 0.466186 -0.043839
C112  C     C_R   0.760367 0.896169 0.565401 -0.016826
C113  C     C_R   0.239777 0.896649 0.434543 -0.016372
C114  C     C_R   0.260364 0.396179 0.565404 -0.016808
C115  C     C_R   0.739779 0.396658 0.434541 -0.016350
C116  C     C_R   0.814971 0.945260 0.524159 -0.037057
C117  C     C_R   0.185211 0.945742 0.475824 -0.037805
C118  C     C_R   0.314968 0.445272 0.524162 -0.037058
C119  C     C_3   0.014732 0.545014 0.970848 -0.105322
C120  C     C_R   0.685214 0.445750 0.475823 -0.037808
C121  C     C_R   0.820101 0.913914 0.451519 -0.024770
C122  C     C_R   0.179834 0.914089 0.548311 -0.025164
C123  C     C_R   0.320099 0.413922 0.451522 -0.024767
C124  C     C_R   0.679836 0.414096 0.548309 -0.025161
C125  C     C_R   0.702703 0.838452 0.454008 0.241050
C126  C     C_R   0.297032 0.838148 0.545841 0.239843
C127  C     C_R   0.202703 0.338454 0.454010 0.241015
C128  C     C_R   0.797032 0.338147 0.545839 0.239801
C129  C     C_R   0.744062 0.964577 0.151427 0.524898
C130  C     C_R   0.760053 0.892099 0.934411 -0.047353
C131  C     C_R   0.256127 0.965884 0.848901 0.558838
C132  C     C_R   0.244062 0.464577 0.151427 0.524901
C133  C     C_R   0.756127 0.465883 0.848901 0.558840
C134  C     C_R   0.706200 0.835999 0.528664 0.262880
C135  C     C_R   0.293745 0.836175 0.471168 0.263179
C136  C     C_R   0.206199 0.336007 0.528667 0.262883
C137  C     C_R   0.793745 0.336180 0.471165 0.263179
C138  C     C_R   0.863042 0.028290 0.551311 -0.065167
C139  C     C_R   0.137332 0.028825 0.448794 -0.064747
C140  C     C_R   0.363038 0.528302 0.551313 -0.065139
Cr1   Cr    Cr6+3 0.772820 0.169820 0.252640 1.032453
Cr2   Cr    Cr6+3 0.383280 0.011130 0.749340 1.067084
Cr3   Cr    Cr6+3 0.116720 0.511130 0.250660 1.067588
Cr4   Cr    Cr6+3 0.883280 0.511130 0.749340 1.067084
Cr5   Cr    Cr6+3 0.227180 0.169820 0.747360 1.052733
Cr6   Cr    Cr6+3 0.272820 0.669820 0.252640 1.032432
Cr7   Cr    Cr6+3 0.727180 0.669820 0.747360 1.052716
Cr8   Cr    Cr6+3 0.615040 0.323610 0.249150 1.020482
Cr9   Cr    Cr6+3 0.384960 0.323610 0.750850 1.032829
Cr10  Cr    Cr6+3 0.115040 0.823610 0.249150 1.020483
Cr11  Cr    Cr6+3 0.884960 0.823610 0.750850 1.032828
Cr12  Cr    Cr6+3 0.616720 0.011130 0.250660 1.067586
H1    H     H_    0.517073 0.356041 0.435825 0.154616
H2    H     H_    0.143858 0.071478 0.397429 0.163932
H3    H     H_    0.356733 0.570936 0.602808 0.164435
H4    H     H_    0.643860 0.571484 0.397427 0.163921
H5    H     H_    0.948811 0.137268 0.530290 0.133950
H6    H     H_    0.051436 0.137368 0.469752 0.134487
H7    H     H_    0.448808 0.637278 0.530292 0.133949
H8    H     H_    0.551436 0.637373 0.469750 0.134480
H9    H     H_    0.044664 0.213895 0.954973 0.193785
H10   H     H_    0.945856 0.183560 0.043428 0.231601
H11   H     H_    0.544664 0.713897 0.954973 0.193782
H12   H     H_    0.482833 0.356045 0.564578 0.154713
H13   H     H_    0.445856 0.683561 0.043428 0.231601
H14   H     H_    0.633522 0.066072 0.004417 0.120125
H15   H     H_    0.402729 0.247721 0.985475 0.128914
H16   H     H_    0.133524 0.566078 0.004416 0.120123
H17   H     H_    0.902727 0.747714 0.985475 0.128911
H18   H     H_    0.572595 0.871069 0.651205 0.349057
H19   H     H_    0.427653 0.870092 0.348523 0.349295
H20   H     H_    0.072593 0.371066 0.651207 0.349059
H21   H     H_    0.927650 0.370089 0.348524 0.349299
H22   H     H_    0.655546 0.770011 0.371731 0.324690
H23   H     H_    0.017076 0.856039 0.435826 0.154623
H24   H     H_    0.343830 0.769527 0.628055 0.325271
H25   H     H_    0.155548 0.270009 0.371734 0.324696
H26   H     H_    0.843826 0.269522 0.628054 0.325278
H27   H     H_    0.677797 0.688918 0.566956 0.352250
H28   H     H_    0.322721 0.688498 0.433984 0.352509
H29   H     H_    0.177786 0.188907 0.566927 0.352233
H30   H     H_    0.822732 0.188482 0.434024 0.352495
H31   H     H_    0.968549 0.053651 0.405971 0.099855
H32   H     H_    0.031521 0.053946 0.593935 0.100849
H33   H     H_    0.468547 0.553658 0.405975 0.099845
H34   H     H_    0.982834 0.856042 0.564578 0.154719
H35   H     H_    0.531521 0.553949 0.593931 0.100840
H36   H     H_    0.887927 0.906681 0.358622 0.129718
H37   H     H_    0.111811 0.906865 0.641037 0.134325
H38   H     H_    0.387927 0.406684 0.358627 0.129721
H39   H     H_    0.611811 0.406868 0.641033 0.134328
H40   H     H_    0.600395 0.265666 0.917570 0.156323
H41   H     H_    0.524169 0.365561 0.040107 0.171190
H42   H     H_    0.100392 0.765672 0.917571 0.156318
H43   H     H_    0.024165 0.865560 0.040108 0.171192
H44   H     H_    0.435073 0.044694 0.067569 0.131635
H45   H     H_    0.028662 0.261635 0.560541 0.127007
H46   H     H_    0.511068 0.951715 0.950149 0.135464
H47   H     H_    0.935075 0.544687 0.067568 0.131636
H48   H     H_    0.011073 0.451716 0.950148 0.135462
H49   H     H_    0.884315 0.926468 0.127743 0.337671
H50   H     H_    0.085388 0.001135 0.954206 0.341933
H51   H     H_    0.384315 0.426469 0.127743 0.337672
H52   H     H_    0.585390 0.501146 0.954207 0.341936
H53   H     H_    0.629831 0.821716 0.885753 0.159230
H54   H     H_    0.368227 0.803494 0.113695 0.163338
H55   H     H_    0.129831 0.321715 0.885753 0.159229
H56   H     H_    0.971330 0.261192 0.439270 0.126611
H57   H     H_    0.868227 0.303493 0.113694 0.163337
H58   H     H_    0.865715 0.959119 0.946103 0.220413
H59   H     H_    0.139178 0.975076 0.057417 0.183773
H60   H     H_    0.365713 0.459122 0.946103 0.220414
H61   H     H_    0.639177 0.475075 0.057416 0.183769
H62   H     H_    0.067330 0.132808 0.139032 0.374005
H63   H     H_    0.927353 0.129324 0.856234 0.373293
H64   H     H_    0.567330 0.632805 0.139031 0.374005
H65   H     H_    0.427353 0.629325 0.856234 0.373293
H66   H     H_    0.727045 0.724550 0.166866 0.314394
H67   H     H_    0.528663 0.761637 0.560541 0.127012
H68   H     H_    0.267916 0.728676 0.831749 0.312794
H69   H     H_    0.227045 0.224551 0.166866 0.314395
H70   H     H_    0.767917 0.228676 0.831749 0.312795
H71   H     H_    0.471332 0.761195 0.439269 0.126613
H72   H     H_    0.856737 0.070926 0.602805 0.164450
O1    O     O_R   0.788190 0.043000 0.172520 -0.498080
O2    O     O_R   0.454170 0.051610 0.669840 -0.458511
O3    O     O_R   0.045830 0.551610 0.330160 -0.455033
O4    O     O_R   0.954170 0.551610 0.669840 -0.458512
O5    O     O_R   0.681920 0.959720 0.327070 -0.482038
O6    O     O_R   0.318080 0.959720 0.672930 -0.483060
O7    O     O_R   0.181920 0.459720 0.327070 -0.482035
O8    O     O_R   0.818080 0.459720 0.672930 -0.483057
O9    O     O_3   0.668190 0.168190 0.250820 -0.293422
O10   O     O_3   0.331810 0.168190 0.749180 -0.284147
O11   O     O_3   0.168190 0.668190 0.250820 -0.293420
O12   O     O_R   0.211810 0.043000 0.827480 -0.447813
O13   O     O_3   0.831810 0.668190 0.749180 -0.284145
O14   O     O_R   0.766240 0.292300 0.176860 -0.505257
O15   O     O_R   0.233760 0.292300 0.823140 -0.501319
O16   O     O_R   0.266240 0.792300 0.176860 -0.505252
O17   O     O_R   0.733760 0.792300 0.823140 -0.501317
O18   O     O_R   0.670310 0.409160 0.168720 -0.506691
O19   O     O_R   0.329690 0.409160 0.831280 -0.499525
O20   O     O_R   0.170310 0.909160 0.168720 -0.506689
O21   O     O_R   0.829690 0.909160 0.831280 -0.499523
O22   O     O_R   0.556160 0.251900 0.173380 -0.505003
O23   O     O_R   0.288190 0.543000 0.172520 -0.498076
O24   O     O_R   0.443840 0.251900 0.826620 -0.496813
O25   O     O_R   0.056160 0.751900 0.173380 -0.505003
O26   O     O_R   0.943840 0.751900 0.826620 -0.496815
O27   O     O_R   0.545410 0.050140 0.168240 -0.504292
O28   O     O_R   0.454590 0.050140 0.831760 -0.516641
O29   O     O_R   0.045410 0.550140 0.168240 -0.504293
O30   O     O_R   0.954590 0.550140 0.831760 -0.516641
O31   O     O_R   0.681530 0.958350 0.176970 -0.486464
O32   O     O_R   0.318470 0.958350 0.823030 -0.486213
O33   O     O_R   0.181530 0.458350 0.176970 -0.486463
O34   O     O_R   0.711810 0.543000 0.827480 -0.447812
O35   O     O_R   0.818470 0.458350 0.823030 -0.486212
O36   O     O_R   0.788610 0.044480 0.334450 -0.532146
O37   O     O_R   0.211390 0.044480 0.665550 -0.532978
O38   O     O_R   0.288610 0.544480 0.334450 -0.532182
O39   O     O_R   0.711390 0.544480 0.665550 -0.533004
O40   O     O_R   0.766630 0.293670 0.326970 -0.456472
O41   O     O_R   0.233370 0.293670 0.673030 -0.461504
O42   O     O_R   0.266630 0.793670 0.326970 -0.456524
O43   O     O_R   0.733370 0.793670 0.673030 -0.461546
O44   O     O_R   0.670730 0.410640 0.330640 -0.539139
O45   O     O_R   0.556550 0.253260 0.323480 -0.520845
O46   O     O_R   0.329270 0.410640 0.669360 -0.539476
O47   O     O_R   0.170730 0.910640 0.330640 -0.539128
O48   O     O_R   0.829270 0.910640 0.669360 -0.539466
O49   O     O_3   0.567649 0.954062 0.632678 -0.665512
O50   O     O_3   0.432567 0.953197 0.367115 -0.662939
O51   O     O_3   0.067647 0.454059 0.632679 -0.665509
O52   O     O_3   0.932568 0.453195 0.367115 -0.662939
O53   O     O_3   0.643352 0.795808 0.421087 -0.695769
O54   O     O_3   0.356182 0.795119 0.578758 -0.696197
O55   O     O_3   0.143353 0.295803 0.421089 -0.695787
O56   O     O_R   0.443450 0.253260 0.676520 -0.524049
O57   O     O_3   0.856179 0.295111 0.578756 -0.696222
O58   O     O_3   0.657763 0.770635 0.564963 -0.677415
O59   O     O_3   0.342099 0.770816 0.434693 -0.676530
O60   O     O_3   0.157764 0.270639 0.564969 -0.677393
O61   O     O_3   0.842094 0.270814 0.434687 -0.676517
O62   O     O_3   0.882441 0.965422 0.079910 -0.688069
O63   O     O_3   0.124124 0.990967 0.919746 -0.675595
O64   O     O_3   0.382441 0.465424 0.079909 -0.688068
O65   O     O_3   0.624123 0.490961 0.919745 -0.675595
O66   O     O_3   0.055075 0.141477 0.087637 -0.744147
O67   O     O_R   0.056550 0.753260 0.323480 -0.520847
O68   O     O_3   0.938589 0.131060 0.908146 -0.725501
O69   O     O_3   0.555075 0.641477 0.087637 -0.744148
O70   O     O_3   0.438590 0.631062 0.908146 -0.725500
O71   O     O_3   0.676483 0.717915 0.157240 -0.707689
O72   O     O_3   0.318449 0.719062 0.840550 -0.707405
O73   O     O_3   0.176483 0.217915 0.157240 -0.707688
O74   O     O_3   0.818449 0.219062 0.840550 -0.707404
O75   O     O_R   0.943450 0.753260 0.676520 -0.524049
O76   O     O_R   0.545830 0.051610 0.330160 -0.455036

loop_
_geom_bond_atom_site_label_1
_geom_bond_atom_site_label_2
_ccdc_geom_bond_type
C55   C59   A    
C126  O54   S    
C102  H34   S    
C10   H33   S    
C38   H43   S    
C27   C90   S    
Cr9   O56   S    
C40   C86   S    
C110  C111  A    
C38   C45   S    
C25   C112  S    
C85   C129  S    
C14   H37   S    
C33   O8    A    
C45   C108  S    
C92   C102  A    
Cr5   O10   S    
C83   O25   A    
C17   C30   S    
C53   O15   A    
C117  C139  A    
C81   O27   A    
C118  C140  A    
C19   C32   S    
C25   O43   A    
C57   O64   S    
C116  C121  A    
C119  H48   S    
Cr11  O75   S    
C127  C136  A    
C46   C65   A    
C93   C101  A    
C71   C73   A    
C139  H2    S    
Cr6   O23   S    
C55   O62   S    
C109  H56   S    
Cr11  O21   S    
C37   C38   S    
C75   O17   A    
C23   C113  S    
C26   O45   A    
C138  H72   S    
Cr9   O19   S    
H28   O59   S    
C18   C122  A    
C20   C33   S    
C133  O34   A    
Cr6   O16   S    
C74   C79   A    
Cr7   O39   S    
C50   C77   A    
C104  O50   S    
H20   O51   S    
Cr3   O3    S    
C132  O23   A    
C57   C61   A    
C22   C114  S    
C3    C7    A    
C98   C106  A    
C82   O24   A    
C31   O37   A    
Cr7   O34   S    
C34   H40   S    
C16   C124  A    
C51   C78   A    
C9    H32   S    
C127  O55   S    
C29   O75   A    
C66   H55   S    
C3    H4    S    
Cr1   O36   S    
C67   H57   S    
C136  O60   S    
C58   C89   A    
C64   O16   A    
C48   C52   A    
Cr1   O9    S    
C5    H6    S    
C113  C135  A    
Cr5   O12   S    
C114  C136  A    
C35   C63   A    
C18   C31   S    
H27   O58   S    
C105  C107  A    
C19   C123  A    
C103  C110  A    
C30   O36   A    
C82   O28   A    
Cr9   O46   S    
Cr2   O6    S    
Cr7   O17   S    
C68   C74   A    
C135  O59   S    
C92   C96   A    
Cr2   O32   S    
C69   C76   A    
Cr8   O9    S    
C87   C131  S    
C86   C97   S    
C86   H44   S    
C58   O65   S    
C12   C121  A    
C115  C137  A    
C96   C98   A    
C37   C47   S    
C52   C79   A    
C50   C85   A    
H63   O68   S    
Cr8   O18   S    
C45   C83   S    
C5    C139  A    
Cr11  O26   S    
C89   C133  S    
C34   C39   S    
C52   C88   A    
C69   H10   S    
Cr4   O30   S    
C46   C51   A    
C73   O70   S    
C61   H60   S    
C117  C122  A    
C5    C9    A    
C16   H39   S    
H24   O54   S    
H68   O72   S    
C4    H5    S    
C8    C12   A    
C110  H67   S    
C35   C130  A    
C113  C117  A    
C8    H31   S    
Cr9   O24   S    
Cr5   O37   S    
C43   C81   S    
C101  H23   S    
C112  C116  A    
Cr6   O11   S    
C24   C62   A    
C81   O22   A    
C76   C80   A    
C59   H58   S    
C27   O56   A    
H62   O66   S    
C108  H47   S    
C91   C99   A    
C18   C126  A    
H30   O61   S    
C84   O30   A    
C34   C36   S    
C37   C41   S    
H65   O70   S    
C76   O68   S    
C1    O18   A    
C91   C95   A    
C40   C44   S    
H22   O53   S    
C1    C24   S    
H64   O69   S    
Cr3   O29   S    
C129  O1    A    
Cr5   O41   S    
C29   O4    A    
Cr3   O7    S    
H18   O49   S    
C106  C109  A    
C125  C134  A    
C58   C62   A    
C96   C105  A    
C101  C102  A    
C14   C122  A    
Cr3   O33   S    
C21   C115  S    
C70   H11   S    
C79   O73   S    
C68   H9    S    
C23   O47   A    
C134  O58   S    
C30   O5    A    
C44   C82   S    
C2    C60   A    
Cr11  O48   S    
C39   C97   S    
Cr10  O11   S    
C41   H16   S    
Cr4   O35   S    
C40   H15   S    
C21   O44   A    
C129  O31   A    
Cr2   O2    S    
C72   O69   S    
C13   C53   S    
C75   C130  S    
Cr10  O20   S    
C107  C109  A    
C108  C119  S    
H52   O65   S    
Cr8   O45   S    
C28   O3    A    
C90   C94   A    
C54   C80   A    
Cr7   O13   S    
Cr2   O28   S    
C84   O26   A    
C105  O51   S    
C53   O19   A    
C106  O52   S    
C103  O49   S    
H29   O60   S    
C107  H45   S    
C131  O32   A    
C7    H8    S    
C26   C91   S    
C56   C60   A    
C28   C93   S    
C104  C111  A    
C55   C85   A    
C9    C14   A    
C42   H17   S    
C77   O71   S    
H21   O52   S    
C11   C16   A    
C21   O40   A    
C78   O72   S    
Cr1   O14   S    
Cr8   O22   S    
C26   O76   A    
C100  H12   S    
C111  H71   S    
C47   C84   S    
C41   C119  S    
C17   C121  A    
C126  C135  A    
C62   H61   S    
C43   C86   S    
Cr4   O8    S    
C28   O67   A    
Cr10  O47   S    
C6    C10   A    
Cr12  O31   S    
C20   C128  A    
C132  O33   A    
C64   O20   A    
C131  O12   A    
C33   O39   A    
C37   H42   S    
Cr8   O44   S    
C39   H14   S    
C41   C45   S    
C22   O41   A    
C125  O53   S    
C99   H1    S    
C112  C134  A    
Cr4   O13   S    
Cr6   O38   S    
C118  C123  A    
C6    C140  A    
C94   C95   A    
Cr12  O76   S    
C60   H59   S    
C140  H3    S    
C4    C138  A    
C133  O35   A    
C63   H53   S    
C36   C43   S    
H49   O62   S    
C29   C92   S    
H51   O64   S    
C66   C68   A    
C59   C130  A    
C4    C8    A    
C6    H7    S    
C2    C46   A    
C7    C11   A    
H69   O73   S    
C15   C123  A    
C83   O29   A    
C11   H35   S    
C38   C42   S    
C10   C15   A    
H26   O57   S    
C49   C54   A    
C12   H36   S    
C31   O6    A    
C74   O66   S    
Cr3   O11   S    
Cr6   O42   S    
C36   H41   S    
C73   C78   A    
C75   O21   A    
C80   O74   S    
C22   O46   A    
C47   C119  S    
C32   O7    A    
H70   O74   S    
Cr10  O67   S    
C128  O57   S    
C90   C100  A    
C2    C64   S    
C116  C138  A    
Cr1   O1    S    
Cr11  O13   S    
C20   C124  A    
C36   C40   S    
C34   C44   S    
C54   C89   A    
Cr7   O43   S    
C51   C87   A    
C56   C87   A    
C39   C43   S    
C65   H54   S    
C65   C71   A    
C67   C69   A    
C128  C137  A    
C72   C77   A    
H66   O71   S    
C44   C97   S    
C99   C100  A    
C63   C70   A    
C137  O61   S    
C35   C50   A    
C32   O38   A    
C114  C118  A    
H50   O63   S    
C15   H38   S    
C71   H13   S    
Cr1   O40   S    
C88   C132  S    
Cr12  O9    S    
C95   C104  A    
Cr10  O25   S    
Cr12  O5    S    
C24   C49   A    
C49   C67   A    
C97   H46   S    
C94   C103  A    
C13   C48   A    
C27   O2    A    
C1    O14   A    
C23   O42   A    
Cr9   O10   S    
C57   C88   A    
C48   C66   A    
H19   O50   S    
C17   C125  A    
Cr5   O15   S    
C19   C127  A    
C56   O63   S    
C42   C47   S    
C25   O48   A    
C3    C120  A    
H25   O55   S    
Cr2   O10   S    
C13   C61   A    
C115  C120  A    
Cr4   O4    S    
C70   C72   A    
C42   C108  S    
C93   C98   A    
Cr12  O27   S    
C120  C124  A    
