data_mof_unit_50666.cif
_audit_creation_date              2013-03-05T16:10:40-0500
_audit_creation_method            fapswitch 2.2
_symmetry_space_group_name_H-M    P1
_symmetry_Int_Tables_number       1
_space_group_crystal_system       triclinic
_cell_length_a                    9.893233
_cell_length_b                    10.70985
_cell_length_c                    15.517175
_cell_angle_alpha                 90.71895
_cell_angle_beta                  67.943682
_cell_angle_gamma                 90.359097
_cell_volume                      1523.67599328

loop_
_atom_site_label
_atom_site_type_symbol
_atom_site_description
_atom_site_fract_x
_atom_site_fract_y
_atom_site_fract_z
_atom_type_partial_charge
O1    O     O_R   0.385370 0.683250 0.500010 -0.635649
O2    O     O_R   0.614630 0.316750 0.499990 -0.633071
O3    O     O_R   0.614700 0.683220 0.500000 -0.580908
O4    O     O_R   0.385300 0.316780 0.500000 -0.580874
C1    C     C_R   0.500127 0.739962 0.500297 0.881875
C2    C     C_R   0.499850 0.260035 0.499743 0.885656
O5    O     O_R   0.319830 0.500020 0.632250 -0.612398
O6    O     O_R   0.680170 0.499980 0.367750 -0.618335
O7    O     O_R   0.549160 0.499990 0.632240 -0.578909
O8    O     O_R   0.450840 0.500010 0.367760 -0.580544
C3    C     C_R   0.408828 0.501451 0.675768 0.881985
C4    C     C_R   0.591275 0.501565 0.324209 0.888133
Zn1   Zn    Zn3+2 0.346870 0.500020 0.500000 0.998910
Zn2   Zn    Zn3+2 0.653130 0.499980 0.500000 0.996621
C5    C     C_R   0.353953 0.520452 0.776062 -0.072250
C6    C     C_R   0.648734 0.509295 0.223129 -0.069694
C7    C     C_R   0.187022 0.618502 0.916323 -0.127637
C8    C     C_R   0.839336 0.476982 0.072342 -0.113369
C9    C     C_R   0.221133 0.580197 0.824315 -0.117104
C10   C     C_R   0.793583 0.479544 0.168877 -0.157891
C11   C     C_R   0.449845 0.497036 0.820228 -0.168808
C12   C     C_R   0.553254 0.544272 0.180869 -0.179513
C13   C     C_R   0.425920 0.546966 0.908073 0.060866
C14   C     C_R   0.596601 0.544033 0.084335 0.054861
C15   C     C_R   0.289168 0.603320 0.958550 -0.000904
C16   C     C_R   0.740644 0.504981 0.029658 0.016922
C17   C     C_R   0.534392 0.540680 0.946795 -0.013472
C18   C     C_R   0.496309 0.571639 0.041721 -0.019474
C19   C     C_R   0.359196 0.628280 0.090817 -0.264865
C20   C     C_R   0.680422 0.506976 0.893054 -0.252367
C21   C     C_R   0.258105 0.645141 0.049443 0.599950
C22   C     C_R   0.782146 0.490781 0.933761 0.577975
H1    H     H_    0.442057 0.564385 0.225018 0.169955
H2    H     H_    0.545306 0.441703 0.783253 0.157916
H3    H     H_    0.869417 0.453712 0.200936 0.172669
H4    H     H_    0.146537 0.600834 0.790172 0.193431
H5    H     H_    0.083296 0.663848 0.953027 0.200272
H6    H     H_    0.950209 0.448770 0.031523 0.194582
H7    H     H_    0.329029 0.665065 0.160533 0.176524
H8    H     H_    0.720383 0.495406 0.818501 0.190328
C23   C     C_R   0.631695 0.936465 0.480147 -0.135614
C24   C     C_R   0.368243 0.063520 0.519991 -0.139310
H9    H     H_    0.734329 0.888073 0.463923 0.184184
H10   H     H_    0.265612 0.111914 0.536208 0.182687
C25   C     C_R   0.631578 0.064369 0.479598 -0.176178
C26   C     C_R   0.368358 0.935614 0.520548 -0.178960
H11   H     H_    0.734254 0.113414 0.463048 0.168783
H12   H     H_    0.265684 0.886561 0.537105 0.167834
C27   C     C_R   0.499824 0.127500 0.499583 -0.028642
C28   C     C_R   0.500121 0.872488 0.500529 -0.027346
C29   C     C_R   0.959711 0.420138 0.443733 -0.168242
C30   C     C_R   0.040263 0.579807 0.556321 -0.159444
H13   H     H_    0.930596 0.356405 0.398817 0.169950
H14   H     H_    0.069352 0.643478 0.601288 0.169326
C31   C     C_R   0.102929 0.419660 0.443497 0.331180
C32   C     C_R   0.897044 0.580298 0.556555 0.328798
N1    N     N_R   0.142780 0.500030 0.500020 -0.119897
N2    N     N_R   0.857220 0.499970 0.499980 -0.118656
F1    F     F_    0.128860 0.701080 0.099139 -0.668622
F2    F     F_    0.919263 0.454206 0.879552 -0.689766
Br1   Br    Br    0.236708 0.302592 0.361594 -0.499814
Br2   Br    Br    0.763275 0.697333 0.638542 -0.513645

loop_
_geom_bond_atom_site_label_1
_geom_bond_atom_site_label_2
_geom_bond_distance
_ccdc_geom_bond_type
C15   C21   1.394494 A    
O5    Zn1   1.967376 S    
C20   C22   1.387173 A    
O7    Zn2   1.919240 S    
C16   C22   1.393646 A    
C13   C17   1.415415 A    
C23   H9    1.083666 S    
C26   C28   1.398041 A    
C8    C10   1.392619 A    
C8    C16   1.405789 A    
C25   C27   1.398058 A    
O6    C4    1.294964 A    
C7    C15   1.406792 A    
C19   H7    1.078358 S    
C11   C13   1.393190 A    
C8    H6    1.083155 S    
O2    Zn2   1.996653 S    
C20   H8    1.078654 S    
C19   C21   1.390120 A    
C29   N2    1.359552 A    
C7    H5    1.083346 S    
C17   C20   1.416704 A    
O5    C3    1.295210 A    
O7    C3    1.296024 A    
O2    C2    1.285683 A    
O3    Zn2   2.001300 S    
C24   H10   1.083660 S    
O1    C1    1.285676 A    
C31   Br1   1.912167 S    
C12   C14   1.394705 A    
C18   C19   1.418102 A    
C7    C9    1.394889 A    
C32   N2    1.379340 A    
C30   H14   1.082175 S    
C29   C31   1.415560 A    
C9    H4    1.082962 S    
C31   N1    1.379162 A    
C2    C27   1.419396 S    
O8    C4    1.296966 A    
C32   Br2   1.912414 S    
C1    C28   1.419286 S    
O1    Zn1   1.996653 S    
C30   N1    1.359616 A    
C22   F2    1.357413 S    
C24   C27   1.396083 A    
C6    C10   1.398833 A    
C26   H12   1.083741 S    
C4    C6    1.457111 S    
C23   C28   1.396052 A    
C5    C11   1.388584 A    
C13   C15   1.417973 A    
Zn1   N1    2.018995 S    
C14   C18   1.417913 A    
O4    C2    1.287959 A    
C24   C26   1.370006 A    
C25   H11   1.083734 S    
C21   F1    1.358677 S    
C17   C18   1.412121 A    
C12   H1    1.076651 S    
C23   C25   1.369971 A    
C6    C12   1.392274 A    
C11   H2    1.078812 S    
O6    Zn2   1.967377 S    
O3    C1    1.287936 A    
C5    C9    1.398674 A    
C10   H3    1.083174 S    
C3    C5    1.455008 S    
C30   C32   1.415579 A    
O4    Zn1   2.001300 S    
C14   C16   1.419875 A    
C29   H13   1.082130 S    
O8    Zn1   1.919243 S    
Zn2   N2    2.018994 S    
