data_mof_unit_59699.cif
_audit_creation_date              2013-03-05T15:44:36-0500
_audit_creation_method            fapswitch 2.2
_symmetry_space_group_name_H-M    P1
_symmetry_Int_Tables_number       1
_space_group_crystal_system       triclinic
_cell_length_a                    27.80435
_cell_length_b                    10.947676
_cell_length_c                    9.675167
_cell_angle_alpha                 89.302773
_cell_angle_beta                  89.993369
_cell_angle_gamma                 89.68623
_cell_volume                      2944.79104182

loop_
_atom_site_label
_atom_site_type_symbol
_atom_site_description
_atom_site_fract_x
_atom_site_fract_y
_atom_site_fract_z
_atom_type_partial_charge
O1    O     O_R   0.500010 0.321960 0.617040 -0.501813
O2    O     O_R   0.499990 0.321920 0.382900 -0.602351
C1    C     C_R   0.497227 0.265522 0.501213 0.817741
O3    O     O_R   0.430270 0.500040 0.617060 -0.553487
O4    O     O_R   0.430260 0.500000 0.382910 -0.535585
C2    C     C_R   0.407629 0.497386 0.499908 0.912944
Cu1   Cu    Cu3+1 0.500010 0.500020 0.638630 1.092922
Cu2   Cu    Cu3+1 0.499990 0.499980 0.361370 1.018354
O5    O     O_R   0.500010 0.678080 0.617100 -0.547317
O6    O     O_R   0.499990 0.678040 0.382960 -0.589304
O7    O     O_R   0.569740 0.500000 0.617090 -0.542205
O8    O     O_R   0.569730 0.499960 0.382940 -0.580471
C3    C     C_R   0.502105 0.734290 0.499191 0.877663
C4    C     C_R   0.592374 0.497592 0.500140 0.854073
C5    C     C_R   0.178388 0.492029 0.385104 0.567392
O9    O     O_2   0.203679 0.492633 0.266007 -0.501359
N1    N     N_R   0.202038 0.488167 0.509099 -0.447306
C6    C     C_R   0.177527 0.490492 0.631612 0.615812
C7    C     C_R   0.278052 0.592502 0.541510 -0.146969
C8    C     C_R   0.328037 0.597978 0.535773 0.371619
C9    C     C_R   0.330447 0.382930 0.468018 -0.173610
C10   C     C_R   0.279451 0.379272 0.473506 -0.037937
C11   C     C_R   0.253710 0.485311 0.510586 0.201398
C12   C     C_R   0.101875 0.497909 0.506045 -0.042149
C13   C     C_R   0.127936 0.495677 0.381261 -0.024069
C14   C     C_R   0.103245 0.498164 0.255585 -0.128911
C15   C     C_R   0.127056 0.495863 0.632399 -0.031517
C16   C     C_R   0.354703 0.493029 0.499621 -0.231549
H1    H     H_    0.122464 0.498402 0.158130 0.189193
C17   C     C_R   0.645110 0.496654 0.500223 -0.155791
C18   C     C_R   0.974804 0.496849 0.375209 0.045649
C19   C     C_R   0.974116 0.519366 0.629042 0.045192
C20   C     C_R   0.949203 0.509403 0.501438 0.070442
C21   C     C_R   0.948156 0.480513 0.252153 -0.200458
C22   C     C_R   0.898200 0.479927 0.252728 -0.137458
C23   C     C_R   0.872724 0.495946 0.375658 -0.025287
C24   C     C_R   0.898061 0.511491 0.500151 -0.043416
C25   C     C_R   0.872131 0.528533 0.623474 -0.023108
C26   C     C_R   0.821644 0.529826 0.620064 0.551225
N2    N     N_R   0.797685 0.511493 0.498426 -0.457036
C27   C     C_R   0.822214 0.494729 0.377287 0.553957
C28   C     C_R   0.719071 0.589504 0.418557 -0.068395
C29   C     C_R   0.669040 0.583875 0.418492 -0.266875
C30   C     C_R   0.672062 0.411754 0.580624 0.392014
C31   C     C_R   0.722331 0.417842 0.578657 -0.147105
C32   C     C_R   0.745988 0.506655 0.498742 0.257834
O10   O     O_2   0.797843 0.475133 0.259028 -0.513562
C33   C     C_R   0.025914 0.499579 0.376153 0.045177
C34   C     C_R   0.050759 0.502368 0.504462 0.071054
C35   C     C_R   0.025107 0.509453 0.631199 0.045336
C36   C     C_R   0.053304 0.500108 0.252761 -0.197816
H2    H     H_    0.648850 0.649340 0.356432 0.172400
H3    H     H_    0.736959 0.658718 0.356704 0.169677
H4    H     H_    0.879595 0.466538 0.155708 0.188585
H5    H     H_    0.964747 0.464759 0.153343 0.134532
H6    H     H_    0.037328 0.504518 0.151435 0.130794
O11   O     O_2   0.201960 0.487141 0.752145 -0.492047
C37   C     C_R   0.101461 0.498368 0.756517 -0.130227
H7    H     H_    0.257271 0.672871 0.567595 0.202993
H8    H     H_    0.119936 0.495165 0.855128 0.186434
C38   C     C_R   0.946919 0.539548 0.750445 -0.201247
C39   C     C_R   0.896997 0.544088 0.747387 -0.135603
O12   O     O_2   0.796674 0.549621 0.737422 -0.514955
C40   C     C_R   0.051554 0.504965 0.756253 -0.195119
H9    H     H_    0.963086 0.554642 0.849882 0.134668
H10   H     H_    0.877929 0.559198 0.843424 0.188778
H11   H     H_    0.743506 0.353065 0.638631 0.204348
H12   H     H_    0.034779 0.503580 0.856576 0.130222
C41   C     C_2   0.493226 0.934202 0.392085 -0.061768
C42   C     C_2   0.508356 0.865057 0.498042 -0.196634
H13   H     H_    0.479158 0.893254 0.298812 0.190555
H14   H     H_    0.525194 0.905408 0.587405 0.193385
C43   C     C_2   0.497941 0.066866 0.395647 -0.313912
C44   C     C_2   0.487448 0.135241 0.506841 0.286982
H15   H     H_    0.511451 0.109878 0.301700 0.173416
C45   C     C_2   0.469834 0.436918 0.923024 0.014771
N3    N     N_2   0.499480 0.498660 0.846910 -0.266273
H16   H     H_    0.442032 0.384751 0.872643 0.185637
H17   H     H_    0.527470 0.542855 0.893500 0.207885
C46   C     C_2   0.471969 0.430797 0.078651 -0.022779
N4    N     N_2   0.499460 0.498630 0.153040 -0.279023
H18   H     H_    0.448275 0.366843 0.130589 0.194911
H19   H     H_    0.519956 0.564179 0.104950 0.201334
C47   C     C_2   0.358160 0.270769 0.434379 0.930644
O13   O     O_2   0.350530 0.175723 0.498125 -0.526579
O14   O     O_R   0.391654 0.272757 0.326908 -0.762371
H20   H     H_    0.406833 0.189772 0.310780 0.333494
S1    S     S_3+6 0.644604 0.293784 0.679040 0.027699
O15   O     O_2   0.621319 0.347767 0.804683 -0.258336
O16   O     O_2   0.607037 0.232083 0.593214 -0.315343
O17   O     O_3   0.685888 0.189672 0.729765 -0.524733
H21   H     H_    0.667677 0.128455 0.784542 0.387584
C48   C     C_2   0.252444 0.266901 0.437862 0.939687
O18   O     O_2   0.264220 0.206751 0.337556 -0.534226
O19   O     O_R   0.212989 0.231054 0.517957 -0.741338
H22   H     H_    0.197295 0.154107 0.482665 0.345907
S2    S     S_3+6 0.456365 0.080818 0.656859 0.043867
O20   O     O_2   0.425216 0.973659 0.623590 -0.206865
O21   O     O_2   0.492274 0.044726 0.766265 -0.281178
O22   O     O_3   0.421207 0.192846 0.719143 -0.541969
H23   H     H_    0.405842 0.157101 0.802560 0.384228
S3    S     S_3+6 0.355946 0.739386 0.568720 0.062697
O23   O     O_2   0.386072 0.727970 0.697213 -0.225709
O24   O     O_2   0.387564 0.772684 0.448153 -0.290321
O25   O     O_3   0.314270 0.849533 0.590724 -0.499694
H24   H     H_    0.332016 0.927453 0.582846 0.427361

loop_
_geom_bond_atom_site_label_1
_geom_bond_atom_site_label_2
_geom_bond_distance
_ccdc_geom_bond_type
C48   O18   1.223023 D    
O19   H22   1.013750 S    
C35   C40   1.416136 A    
C43   C44   1.349067 D    
C7    C8    1.392476 A    
C12   C15   1.408746 A    
S2    O20   1.500114 D    
Cu1   Cu2   2.682542 S    
C31   C32   1.401586 A    
N2    C32   1.438679 S    
N1    C11   1.436959 S    
C40   H12   1.076823 S    
C23   C24   1.408025 A    
C47   O14   1.395858 S    
C19   C38   1.415844 A    
C21   C22   1.389057 A    
C28   H3    1.082905 S    
O4    C2    1.295133 A    
O7    C4    1.295152 A    
C29   H2    1.083742 S    
C5    C13   1.403619 A    
C8    S3    1.767926 S    
C3    C42   1.442961 S    
C37   H8    1.083722 S    
C5    O9    1.349812 S    
S3    O25   1.683152 S    
Cu1   O5    1.957920 S    
C36   H6    1.076768 S    
C28   C32   1.400079 A    
C41   H13   1.086369 S    
C1    C44   1.453778 S    
O5    C3    1.291032 A    
N4    H19   1.025911 S    
C47   O13   1.222638 D    
C33   C36   1.415961 A    
C2    C16   1.472622 S    
C22   C23   1.396651 A    
C31   H11   1.082477 S    
C18   C20   1.421254 A    
C41   C43   1.459809 S    
C38   C39   1.388950 A    
Cu1   N3    2.015069 S    
C21   H5    1.076798 S    
C48   O19   1.398246 S    
C9    C10   1.419664 A    
C22   H4    1.083752 S    
C43   H15   1.086488 S    
C17   C30   1.416148 A    
C23   C27   1.404618 A    
S3    O23   1.502703 D    
C4    C17   1.466290 S    
O3    Cu1   1.950299 S    
S2    O21   1.503074 D    
Cu1   O7    1.949938 S    
C44   S2    1.786876 S    
N3    H17   1.025908 S    
C37   C40   1.389118 A    
C39   H10   1.083737 S    
Cu2   N4    2.015918 S    
C12   C13   1.408386 A    
C46   H18   1.083129 S    
C26   N2    1.369838 A    
O14   H20   1.013441 S    
C8    C16   1.411569 A    
C7    H7    1.082372 S    
C13   C14   1.396311 A    
O6    C3    1.290181 A    
C20   C24   1.422091 A    
O1    C1    1.288795 A    
C7    C11   1.393543 A    
C24   C25   1.407827 A    
C6    O11   1.349702 S    
C9    C47   1.485493 S    
Cu2   O8    1.950293 S    
N1    C6    1.367654 A    
C27   O10   1.349851 S    
C18   C21   1.416086 A    
C45   N3    1.293245 D    
S3    O24   1.503133 D    
C19   C35   1.421454 A    
O3    C2    1.297322 A    
N2    C27   1.369743 A    
C9    C16   1.420942 A    
S1    O16   1.502803 D    
C18   C33   1.421577 A    
C10   C48   1.488862 S    
C17   C29   1.402937 A    
C28   C29   1.392782 A    
O17   H21   0.990665 S    
S2    O22   1.681554 S    
C30   C31   1.399749 A    
C12   C34   1.421901 A    
C5    N1    1.368228 A    
C33   C34   1.421469 A    
O1    Cu1   1.963029 S    
O2    Cu2   1.957920 S    
C6    C15   1.404233 A    
C45   C46   1.507554 S    
C45   H16   1.083054 S    
C46   N4    1.293467 D    
C15   C37   1.396300 A    
O4    Cu2   1.949941 S    
C26   O12   1.349961 S    
O25   H24   0.989933 S    
C19   C20   1.421340 A    
O2    C1    1.296439 A    
O8    C4    1.296972 A    
C14   C36   1.388891 A    
C25   C26   1.404148 A    
S1    O17   1.682192 S    
O22   H23   0.990493 S    
C41   C42   1.333662 D    
C38   H9    1.076909 S    
S1    O15   1.503085 D    
C14   H1    1.083714 S    
Cu2   O6    1.963029 S    
C34   C35   1.421202 A    
C10   C11   1.410516 A    
C42   H14   1.083279 S    
C30   S1    1.771508 S    
C25   C39   1.396704 A    
