data_mof_unit_14091.cif
_audit_creation_date              2012-12-10T19:11:26-0500
_audit_creation_method            fapswitch 2.2
_symmetry_space_group_name_H-M    P1
_symmetry_Int_Tables_number       1
_space_group_crystal_system       triclinic
_cell_length_a                    10.625882
_cell_length_b                    9.710061
_cell_length_c                    10.495062
_cell_angle_alpha                 89.632289
_cell_angle_beta                  89.959295
_cell_angle_gamma                 89.99299
_cell_volume                      1082.83653145

loop_
_atom_site_label
_atom_site_type_symbol
_atom_type_description
_atom_site_fract_x
_atom_site_fract_y
_atom_site_fract_z
_atom_type_partial_charge
C1    C     C_R   0.257650 0.500287 0.499906 0.833924
C2    C     C_3   0.500148 0.501602 0.122186 0.039269
C3    C     C_3   0.071529 0.651814 0.498786 -0.402288
C4    C     C_3   0.072244 0.426686 0.620909 -0.407508
C5    C     C_3   0.928666 0.651811 0.498464 -0.400079
C6    C     C_3   0.927791 0.426872 0.620968 -0.407740
C7    C     C_3   0.072478 0.426536 0.379535 -0.409064
C8    C     C_3   0.121340 0.501281 0.499770 0.202147
C9    C     C_3   0.878895 0.501270 0.499700 0.201870
C10   C     C_3   0.928004 0.426356 0.379585 -0.408818
C11   C     C_3   0.376881 0.081517 0.454942 -0.232399
C12   C     C_3   0.376874 0.919117 0.454988 -0.235090
C13   C     C_3   0.597379 0.081827 0.410454 -0.234953
C14   C     C_3   0.597357 0.919314 0.410443 -0.235608
C15   C     C_3   0.525122 0.080277 0.626004 -0.234374
C16   C     C_3   0.525146 0.918061 0.626006 -0.228063
C17   C     C_R   0.500099 0.500523 0.257115 0.864580
C18   C     C_R   0.742581 0.500277 0.499808 0.832789
C19   C     C_R   0.500197 0.499471 0.742774 0.866195
C20   C     C_3   0.500081 0.631588 0.039183 -0.146653
C21   C     C_3   0.396610 0.434997 0.042860 -0.185154
C22   C     C_3   0.396540 0.564807 0.957131 -0.186926
C23   C     C_3   0.500218 0.498365 0.877707 0.039492
C24   C     C_3   0.603761 0.564964 0.957032 -0.186742
C25   C     C_3   0.500296 0.368375 0.960710 -0.145199
C26   C     C_3   0.603834 0.435155 0.042770 -0.186548
H1    H     H_    0.312325 0.617223 0.917213 0.115989
H2    H     H_    0.892662 0.478622 0.291896 0.148010
H3    H     H_    0.893521 0.318100 0.377931 0.165741
H4    H     H_    0.354227 0.120916 0.357851 0.139782
H5    H     H_    0.354113 0.880970 0.357960 0.139032
H6    H     H_    0.300529 0.118567 0.518659 0.141541
H7    H     H_    0.300604 0.881347 0.518842 0.141301
H8    H     H_    0.581537 0.120750 0.311863 0.145938
H9    H     H_    0.581489 0.881694 0.311876 0.141119
H10   H     H_    0.617298 0.118664 0.661333 0.139454
H11   H     H_    0.617351 0.879228 0.661330 0.139447
H12   H     H_    0.452828 0.117545 0.694314 0.141156
H13   H     H_    0.452858 0.879979 0.694378 0.145958
H14   H     H_    0.691906 0.119567 0.439302 0.140395
H15   H     H_    0.691869 0.881180 0.439317 0.140837
H16   H     H_    0.499996 0.738818 0.075333 0.123587
H17   H     H_    0.312446 0.382467 0.082869 0.116767
H18   H     H_    0.687913 0.617510 0.917024 0.115734
H19   H     H_    0.500422 0.261139 0.924587 0.122440
H20   H     H_    0.688042 0.382738 0.082716 0.116409
H21   H     H_    0.106190 0.708083 0.412809 0.165146
H22   H     H_    0.106760 0.318438 0.624056 0.167391
H23   H     H_    0.105617 0.707953 0.584346 0.163577
H24   H     H_    0.107566 0.479183 0.707864 0.148218
H25   H     H_    0.894515 0.707649 0.412093 0.164024
H26   H     H_    0.893069 0.318720 0.624425 0.168474
H27   H     H_    0.107765 0.479121 0.291940 0.148254
H28   H     H_    0.107209 0.318366 0.377614 0.166096
N1    N     N_3   0.499750 0.138610 0.497240 -0.027369
N2    N     N_3   0.499750 0.861390 0.497240 -0.028014
O1    O     O_R   0.314910 0.616040 0.499970 -0.636411
O2    O     O_R   0.314910 0.383960 0.499970 -0.635012
O3    O     O_R   0.500080 0.616020 0.313900 -0.632247
O4    O     O_R   0.500080 0.383980 0.313900 -0.627672
O5    O     O_R   0.685320 0.616040 0.499930 -0.635908
O6    O     O_R   0.685320 0.383960 0.499930 -0.634164
O7    O     O_R   0.500150 0.616060 0.686000 -0.630571
O8    O     O_R   0.500150 0.383940 0.686000 -0.633936
Zn1   Zn    Zn3+2 0.500150 0.654960 0.499940 0.894025
Zn2   Zn    Zn3+2 0.500150 0.345040 0.499940 0.895252
H29   H     H_    0.894038 0.708383 0.583619 0.165131
H30   H     H_    0.892518 0.479719 0.707817 0.148020

loop_
_geom_bond_atom_site_label_1
_geom_bond_atom_site_label_2
_ccdc_geom_bond_type
C7    C10   S    
C14   N2    S    
C23   C24   S    
O7    Zn1   S    
C18   O5    A    
C5    C9    S    
C1    O1    A    
C1    C8    S    
C9    C10   S    
C19   O8    A    
C20   H16   S    
C7    H28   S    
C5    H29   S    
C16   H11   S    
C11   C12   S    
C6    H26   S    
C9    C18   S    
N1    Zn2   S    
C2    C21   S    
C6    H30   S    
C3    H23   S    
O4    Zn2   S    
C7    C8    S    
C2    C26   S    
C19   O7    A    
C21   H17   S    
C21   C22   S    
O3    Zn1   S    
C2    C17   S    
C12   H7    S    
C10   H3    S    
C12   N2    S    
C15   H12   S    
C21   C25   S    
C16   N2    S    
C17   O3    A    
C14   H15   S    
C3    H21   S    
C20   C24   S    
C24   C26   S    
C11   H6    S    
C22   H1    S    
C23   C25   S    
C12   H5    S    
C24   H18   S    
C10   H2    S    
C13   N1    S    
C20   C22   S    
C16   H13   S    
C2    C20   S    
C15   C16   S    
O5    Zn1   S    
C15   H10   S    
C13   H8    S    
C6    C9    S    
C11   N1    S    
C4    C6    S    
C3    C8    S    
C4    H22   S    
C15   N1    S    
O1    Zn1   S    
C14   H9    S    
O6    Zn2   S    
C7    H27   S    
C19   C23   S    
C5    H25   S    
C13   H14   S    
C25   H19   S    
C17   O4    A    
C13   C14   S    
C4    C8    S    
C25   C26   S    
C1    O2    A    
C26   H20   S    
O2    Zn2   S    
C22   C23   S    
C18   O6    A    
N2    Zn1   S    
C11   H4    S    
C4    H24   S    
C3    C5    S    
O8    Zn2   S    
