data_mof_unit_41553.cif
_audit_creation_date              2012-12-11T15:12:49-0500
_audit_creation_method            fapswitch 2.2
_symmetry_space_group_name_H-M    P1
_symmetry_Int_Tables_number       1
_space_group_crystal_system       triclinic
_cell_length_a                    22.3357
_cell_length_b                    6.999055
_cell_length_c                    19.333277
_cell_angle_alpha                 89.999935
_cell_angle_beta                  99.240439
_cell_angle_gamma                 90.0
_cell_volume                      2983.12737765

loop_
_atom_site_label
_atom_site_type_symbol
_atom_type_description
_atom_site_fract_x
_atom_site_fract_y
_atom_site_fract_z
_atom_type_partial_charge
O1    O     O_R   0.448420 0.506120 0.415750 -0.538643
O2    O     O_R   0.551580 0.006120 0.584250 -0.538645
O3    O     O_R   0.436490 0.174470 0.555610 -0.534314
O4    O     O_R   0.563510 0.674470 0.444390 -0.534313
C1    C     C_R   0.421218 0.344258 0.575685 0.713477
C2    C     C_R   0.578782 0.844258 0.424315 0.713477
O5    O     O_R   0.441310 0.176330 0.414520 -0.532901
O6    O     O_R   0.558690 0.676330 0.585480 -0.532901
O7    O     O_R   0.556430 0.007110 0.442150 -0.521269
O8    O     O_R   0.443570 0.507110 0.557850 -0.521268
C3    C     C_R   0.427438 0.345072 0.388062 0.772249
C4    C     C_R   0.572562 0.845072 0.611938 0.772249
O9    O     O_3   0.537770 0.339560 0.509230 -0.370286
O10   O     O_3   0.462230 0.839560 0.490770 -0.370286
V1    V     V_3+5 0.492990 0.064280 0.498290 1.516777
V2    V     V_3+5 0.507010 0.564280 0.501710 1.516780
C5    C     C_R   0.863898 0.004448 0.697395 -0.091192
C6    C     C_R   0.136102 0.504447 0.302605 -0.091192
H1    H     H_    0.947990 0.065345 0.763547 0.141535
H2    H     H_    0.052009 0.565343 0.236452 0.141535
H3    H     H_    0.881823 0.056226 0.652237 0.181816
H4    H     H_    0.118176 0.556224 0.347763 0.181816
C7    C     C_R   0.883196 0.942533 0.822013 -0.095889
C8    C     C_R   0.116804 0.442532 0.177987 -0.095889
C9    C     C_R   0.587089 0.856019 0.743215 -0.034433
C10   C     C_R   0.412911 0.356020 0.256785 -0.034433
C11   C     C_R   0.624830 0.885385 0.807276 -0.183900
C12   C     C_R   0.375170 0.385386 0.192724 -0.183900
C13   C     C_R   0.687236 0.904269 0.811242 -0.055554
C14   C     C_R   0.312764 0.404269 0.188758 -0.055554
C15   C     C_R   0.715467 0.885674 0.751494 0.092900
C16   C     C_R   0.284533 0.385674 0.248506 0.092900
C17   C     C_R   0.677175 0.873397 0.685034 0.031261
C18   C     C_R   0.322825 0.373397 0.314966 0.031260
C19   C     C_R   0.780071 0.900163 0.755360 -0.010946
C20   C     C_R   0.219929 0.400163 0.244640 -0.010946
C21   C     C_R   0.803425 0.941115 0.692489 0.066754
C22   C     C_R   0.196575 0.441114 0.307511 0.066754
C23   C     C_R   0.765250 0.923737 0.626577 0.002394
C24   C     C_R   0.234750 0.423736 0.373423 0.002395
C25   C     C_R   0.703453 0.886980 0.623969 -0.258966
C26   C     C_R   0.296547 0.386979 0.376030 -0.258966
C27   C     C_R   0.822772 0.878509 0.818937 0.297293
C28   C     C_R   0.177228 0.378509 0.181063 0.297293
C29   C     C_R   0.902210 0.011782 0.761549 -0.235642
C30   C     C_R   0.097790 0.511780 0.238451 -0.235642
C31   C     C_R   0.612936 0.854384 0.680770 -0.104598
C32   C     C_R   0.387064 0.354385 0.319230 -0.104599
H5    H     H_    0.712171 0.945455 0.861403 0.188429
H6    H     H_    0.287829 0.445456 0.138597 0.188429
H7    H     H_    0.605661 0.897686 0.855159 0.154643
H8    H     H_    0.394339 0.397686 0.144841 0.154643
H9    H     H_    0.675490 0.873719 0.572932 0.082620
H10   H     H_    0.324510 0.373719 0.427068 0.082620
C33   C     C_3   0.805797 0.752911 0.257515 -0.257281
C34   C     C_3   0.194203 0.252912 0.742485 -0.257281
C35   C     C_3   0.786734 0.110305 0.252090 -0.073001
C36   C     C_3   0.213266 0.610306 0.747910 -0.073001
C37   C     C_3   0.740890 0.075926 0.305326 -0.355021
C38   C     C_3   0.259110 0.575927 0.694674 -0.355020
H11   H     H_    0.779962 0.730219 0.361868 0.157987
H12   H     H_    0.220037 0.230220 0.638131 0.157987
H13   H     H_    0.851017 0.774008 0.289981 0.144435
H14   H     H_    0.148983 0.274010 0.710019 0.144435
H15   H     H_    0.765000 0.078384 0.360465 0.129074
H16   H     H_    0.235000 0.578385 0.639535 0.129074
H17   H     H_    0.706465 0.190877 0.304293 0.197727
H18   H     H_    0.293536 0.690877 0.695707 0.197727
C39   C     C_1   0.624532 0.852244 0.378856 -0.134868
C40   C     C_1   0.375468 0.352244 0.621144 -0.134869
C41   C     C_3   0.789424 0.923796 0.205788 0.003337
C42   C     C_3   0.210576 0.423796 0.794212 0.003337
C43   C     C_3   0.757428 0.724705 0.306201 -0.326665
C44   C     C_3   0.242572 0.224705 0.693798 -0.326665
C45   C     C_3   0.708203 0.881124 0.292351 0.136801
C46   C     C_3   0.291797 0.381124 0.707649 0.136801
C47   C     C_3   0.677051 0.868128 0.214344 -0.261224
C48   C     C_3   0.322949 0.368127 0.785655 -0.261224
C49   C     C_3   0.724188 0.882235 0.161873 0.265223
C50   C     C_3   0.275811 0.382235 0.838127 0.265224
C51   C     C_1   0.662374 0.861492 0.340237 -0.041202
C52   C     C_1   0.337626 0.361492 0.659763 -0.041202
C53   C     C_1   0.836810 0.936525 0.159055 -0.048256
C54   C     C_1   0.163190 0.436525 0.840945 -0.048256
C55   C     C_1   0.875177 0.942887 0.121035 -0.100174
C56   C     C_1   0.124823 0.442888 0.878965 -0.100174
H19   H     H_    0.651290 0.731783 0.206075 0.209050
H20   H     H_    0.348710 0.231782 0.793924 0.209050
H21   H     H_    0.810813 0.620535 0.228123 0.216325
H22   H     H_    0.189187 0.120535 0.771877 0.216325
H23   H     H_    0.736245 0.581623 0.298075 0.203635
H24   H     H_    0.263754 0.081623 0.701925 0.203634
H25   H     H_    0.642774 0.984451 0.205162 0.180781
H26   H     H_    0.357226 0.484451 0.794838 0.180781
O11   O     O_R   0.056480 0.288780 0.942210 -0.529947
O12   O     O_R   0.943520 0.788780 0.057790 -0.529947
O13   O     O_R   0.058700 0.616820 0.085490 -0.545412
O14   O     O_R   0.941300 0.116820 0.914510 -0.545412
C57   C     C_R   0.073305 0.448470 0.111556 0.763637
C58   C     C_R   0.926695 0.948470 0.888444 0.763637
O15   O     O_R   0.063520 0.618570 0.944410 -0.541906
O16   O     O_R   0.936480 0.118570 0.055590 -0.541906
O17   O     O_R   0.948420 0.787670 0.915740 -0.520284
O18   O     O_R   0.051580 0.287670 0.084260 -0.520284
C59   C     C_R   0.078852 0.450251 0.924158 0.738961
C60   C     C_R   0.921148 0.950251 0.075842 0.738961
O19   O     O_3   0.962260 0.453430 0.990800 -0.362343
O20   O     O_3   0.037740 0.953430 0.009200 -0.362343
V3    V     V_3+5 0.007000 0.728750 0.001710 1.550504
V4    V     V_3+5 0.993000 0.228750 0.998290 1.550504
C61   C     C_2   0.766517 0.278206 0.204596 0.378986
H27   H     H_    0.796227 0.331116 0.169612 0.115450
O21   O     O_2   0.715959 0.347478 0.201251 -0.506297
C62   C     C_2   0.233483 0.778206 0.795404 0.378984
H28   H     H_    0.203773 0.831116 0.830387 0.115451
O22   O     O_2   0.284042 0.847478 0.798748 -0.506298
C63   C     C_2   0.849105 0.156397 0.294049 0.325683
H29   H     H_    0.867409 0.068674 0.338741 0.091315
O23   O     O_2   0.879500 0.291074 0.279184 -0.541832
C64   C     C_2   0.150895 0.656398 0.705951 0.325683
H30   H     H_    0.132592 0.568676 0.661259 0.091315
O24   O     O_2   0.120500 0.791074 0.720816 -0.541832
Cl1   Cl    Cl    0.724601 0.665845 0.112503 -0.588139
Cl2   Cl    Cl    0.275398 0.165844 0.887496 -0.588139
C65   C     C_2   0.704703 0.026142 0.103671 0.553544
H31   H     H_    0.738145 0.086526 0.074948 0.045971
O25   O     O_2   0.651434 0.068327 0.085373 -0.486522
C66   C     C_2   0.295297 0.526141 0.896328 0.553545
H32   H     H_    0.261855 0.586527 0.925051 0.045971
O26   O     O_2   0.348566 0.568323 0.914627 -0.486523
C67   C     C_2   0.787342 0.935297 0.558131 0.358886
H33   H     H_    0.756837 0.983646 0.511972 0.038053
O27   O     O_2   0.837892 0.880035 0.551292 -0.523215
C68   C     C_2   0.212658 0.435295 0.441869 0.358887
H34   H     H_    0.243163 0.483645 0.488028 0.038053
O28   O     O_2   0.162108 0.380033 0.448708 -0.523215
Cl3   Cl    Cl    0.806285 0.742622 0.890971 -0.648682
Cl4   Cl    Cl    0.193715 0.242623 0.109029 -0.648682
C69   C     C_2   0.520915 0.835563 0.745061 0.352743
H35   H     H_    0.504252 0.852049 0.794488 0.089726
O29   O     O_2   0.484309 0.798285 0.692882 -0.529179
C70   C     C_2   0.479085 0.335564 0.254939 0.352743
H36   H     H_    0.495748 0.352045 0.205511 0.089727
O30   O     O_2   0.515692 0.298294 0.307118 -0.529179

loop_
_geom_bond_atom_site_label_1
_geom_bond_atom_site_label_2
_ccdc_geom_bond_type
C2    C39   S    
O18   V4    S    
C7    C29   A    
C11   C13   A    
C8    C57   S    
C43   C45   S    
C33   H21   S    
C61   H27   S    
O1    C3    A    
O2    C4    A    
C66   H32   S    
C2    O7    A    
C41   C49   S    
C62   H28   S    
C23   C25   A    
C13   H5    S    
O5    C3    A    
C44   C46   S    
O14   V4    S    
C16   C20   A    
C9    C69   S    
C46   C48   S    
C63   O23   D    
C48   C50   S    
C23   C67   S    
C36   C38   S    
C7    C27   A    
O20   V3    S    
C44   H24   S    
O11   C59   A    
C37   H17   S    
C64   O24   D    
C18   C26   A    
C34   C42   S    
C33   H13   S    
C28   Cl4   S    
C34   H14   S    
C27   Cl3   S    
O10   V2    S    
C19   C27   A    
C9    C31   A    
C10   C32   A    
O3    C1    A    
O5    V1    S    
C7    C58   S    
C49   C65   S    
C38   H16   S    
O6    V2    S    
C22   C24   A    
C13   C15   A    
O19   V3    S    
C3    C32   S    
C4    C31   S    
C6    C30   A    
C36   C64   S    
O13   C57   A    
C11   H7    S    
C37   H15   S    
C41   C53   S    
C47   C49   S    
O15   C59   A    
C35   C37   S    
C34   C44   S    
C43   H23   S    
O4    C2    A    
C46   C52   S    
C45   C51   S    
C68   O28   D    
C50   C66   S    
H11   C43   S    
C49   Cl1   S    
C38   C46   S    
C58   O17   A    
C5    H3    S    
C5    C29   A    
C16   C18   A    
O4    V2    S    
C1    C40   S    
O13   V3    S    
O10   V1    S    
O6    C4    A    
C15   C17   A    
C61   O21   D    
O1    V2    S    
C5    C21   A    
C35   C41   S    
C65   O25   D    
O2    V1    S    
C45   C47   S    
C25   H9    S    
C42   C54   S    
C53   C55   T    
O14   C58   A    
O9    V1    S    
C65   H31   S    
C17   C31   A    
O19   V4    S    
C70   O30   D    
C20   C28   A    
C56   C59   S    
C18   C32   A    
C67   H33   S    
C37   C45   S    
O3    V1    S    
C64   H30   S    
C47   H25   S    
C35   C63   S    
C50   Cl2   S    
C48   H20   S    
O12   C60   A    
C57   O18   A    
C19   C21   A    
C6    H4    S    
C54   C56   T    
C24   C26   A    
C67   O27   D    
O11   V4    S    
C66   O26   D    
C62   O22   D    
C69   H35   S    
H1    C29   S    
C68   H34   S    
C12   H8    S    
C9    C11   A    
O12   V3    S    
C10   C12   A    
O17   V3    S    
C38   H18   S    
C8    C30   A    
C12   C14   A    
C6    C22   A    
C17   C25   A    
C1    O8    A    
C21   C23   A    
O8    V2    S    
C63   H29   S    
C26   H10   S    
C20   C22   A    
C14   C16   A    
C69   O29   D    
C36   C42   S    
C35   C61   S    
C24   C68   S    
C48   H26   S    
O16   V4    S    
C8    C28   A    
C34   H22   S    
O20   V4    S    
O16   C60   A    
C15   C19   A    
C14   H6    S    
C40   C52   T    
H2    C30   S    
C39   C51   T    
C33   C43   S    
C47   H19   S    
C42   C50   S    
O9    V2    S    
C36   C62   S    
C70   H36   S    
H12   C44   S    
C10   C70   S    
O15   V3    S    
C33   C41   S    
C55   C60   S    
O7    V1    S    
