data_mof_unit_5604.cif
_audit_creation_date              2012-10-26T19:59:38-0400
_audit_creation_method            fapswitch 2.2
_symmetry_space_group_name_H-M    P1
_symmetry_Int_Tables_number       1
_space_group_crystal_system       triclinic
_cell_length_a                    10.744042
_cell_length_b                    8.682814
_cell_length_c                    7.458152
_cell_angle_alpha                 102.947568
_cell_angle_beta                  94.301049
_cell_angle_gamma                 92.433584
_cell_volume                      674.902536572

loop_
_atom_site_label
_atom_site_type_symbol
_atom_type_description
_atom_site_fract_x
_atom_site_fract_y
_atom_site_fract_z
_atom_type_partial_charge
C1    C     C_R   0.496153 0.199758 0.453285 0.558266
C2    C     C_R   0.503743 0.800236 0.546729 0.527540
C3    C     C_R   0.737380 0.506401 0.498839 0.533116
C4    C     C_R   0.150767 0.773799 0.731083 -0.067010
C5    C     C_R   0.095406 0.901469 0.837554 0.388948
C6    C     C_R   0.965796 0.903605 0.832527 -0.087271
C7    C     C_R   0.890861 0.778191 0.721100 -0.167975
C8    C     C_R   0.944979 0.646295 0.614166 0.009748
C9    C     C_R   0.076595 0.644037 0.619295 -0.031065
C10   C     C_R   0.129610 0.514141 0.506992 0.010504
C11   C     C_R   0.054470 0.393570 0.386946 -0.128608
C12   C     C_R   0.926153 0.395746 0.382089 -0.141440
C13   C     C_R   0.871348 0.518514 0.497332 0.019550
C14   C     C_2   0.494216 0.031810 0.427068 -0.140134
C15   C     C_2   0.505407 0.968145 0.573001 -0.151674
C16   C     C_R   0.262893 0.504312 0.502736 0.541659
Cu1   Cu    Cu3+1 0.513920 0.517380 0.684380 0.965943
Cu2   Cu    Cu3+1 0.486080 0.482620 0.315620 0.996722
F1    F     F_    0.167922 0.024811 0.944001 -0.645892
H1    H     H_    0.095616 0.295713 0.298619 0.170137
H2    H     H_    0.597760 0.622181 0.051346 0.239026
H3    H     H_    0.251601 0.779600 0.735343 0.159681
H4    H     H_    0.922996 0.003734 0.913511 0.132524
H5    H     H_    0.790717 0.787518 0.717119 0.139296
H6    H     H_    0.869271 0.298795 0.291861 0.128343
H7    H     H_    0.483652 0.960214 0.286446 0.147053
H8    H     H_    0.515908 0.039713 0.713632 0.144675
H9    H     H_    0.402231 0.377838 0.948644 0.261891
N1    N     N_2   0.465100 0.456430 0.038520 -0.247225
N2    N     N_2   0.534900 0.543570 0.961480 -0.259418
O1    O     O_R   0.509050 0.286130 0.619770 -0.503030
O2    O     O_R   0.485540 0.256780 0.308360 -0.481665
O3    O     O_R   0.331410 0.514680 0.655740 -0.508266
O4    O     O_R   0.307900 0.485330 0.344330 -0.481505
O5    O     O_R   0.514460 0.743220 0.691640 -0.512614
O6    O     O_R   0.490950 0.713870 0.380230 -0.506198
O7    O     O_R   0.692100 0.514670 0.655670 -0.502453
O8    O     O_R   0.668590 0.485320 0.344260 -0.511177

loop_
_geom_bond_atom_site_label_1
_geom_bond_atom_site_label_2
_ccdc_geom_bond_type
C2    O5    A    
C11   C12   A    
C6    C7    A    
C5    F1    S    
C16   O3    A    
C4    H3    S    
C9    C10   A    
C15   H8    S    
C3    C13   S    
C12   H6    S    
Cu1   N2    S    
Cu2   O8    S    
C7    C8    A    
Cu2   N1    S    
Cu1   O7    S    
C14   H7    S    
C2    C15   S    
Cu2   O4    S    
N1    N2    D    
Cu1   O3    S    
C6    H4    S    
H9    N1    S    
Cu1   Cu2   S    
C5    C6    A    
Cu1   O1    S    
C11   H1    S    
Cu2   O2    S    
C10   C11   A    
C7    H5    S    
C8    C13   A    
C1    O1    A    
C12   C13   A    
C3    O7    A    
H2    N2    S    
C2    O6    A    
C14   C15   D    
C8    C9    A    
C10   C16   S    
C1    C14   S    
Cu1   O5    S    
C16   O4    A    
C4    C9    A    
Cu2   O6    S    
C1    O2    A    
C3    O8    A    
C4    C5    A    
