data_mof_unit_66494.cif
_audit_creation_date              2013-03-05T16:26:40-0500
_audit_creation_method            fapswitch 2.2
_symmetry_space_group_name_H-M    P1
_symmetry_Int_Tables_number       1
_space_group_crystal_system       triclinic
_cell_length_a                    39.093894
_cell_length_b                    32.244999
_cell_length_c                    21.93118
_cell_angle_alpha                 90.403147
_cell_angle_beta                  124.465443
_cell_angle_gamma                 89.914187
_cell_volume                      22792.6173565

loop_
_atom_site_label
_atom_site_type_symbol
_atom_site_description
_atom_site_fract_x
_atom_site_fract_y
_atom_site_fract_z
_atom_type_partial_charge
O1    O     O_R   0.440150 0.534640 0.440170 -0.590179
O2    O     O_R   0.559850 0.534640 0.559830 -0.581972
O3    O     O_R   0.940150 0.034640 0.440170 -0.589646
O4    O     O_R   0.059850 0.034640 0.559830 -0.582114
O5    O     O_R   0.440150 0.465360 0.440130 -0.575771
O6    O     O_R   0.559850 0.465360 0.559870 -0.578711
O7    O     O_R   0.940150 0.965360 0.440130 -0.575827
O8    O     O_R   0.059850 0.965360 0.559870 -0.578709
C1    C     C_R   0.420403 0.499950 0.420345 0.813652
C2    C     C_R   0.579592 0.500059 0.579129 0.800383
C3    C     C_R   0.920404 0.999951 0.420379 0.813653
C4    C     C_R   0.079592 0.000059 0.579130 0.800066
O9    O     O_R   0.500010 0.534640 0.589030 -0.600345
O10   O     O_R   0.499990 0.534640 0.410970 -0.539171
O11   O     O_R   0.000010 0.034640 0.589030 -0.600381
O12   O     O_R   0.999990 0.034640 0.410970 -0.539531
O13   O     O_R   0.500010 0.465360 0.588990 -0.526529
O14   O     O_R   0.499990 0.465360 0.411010 -0.591499
O15   O     O_R   0.000010 0.965360 0.588990 -0.526431
O16   O     O_R   0.999990 0.965360 0.411010 -0.591605
C5    C     C_R   0.501869 0.500232 0.619616 0.875336
C6    C     C_R   0.498562 0.499720 0.380902 0.875802
C7    C     C_R   0.001870 0.000232 0.619617 0.875315
C8    C     C_R   0.998590 0.999718 0.380938 0.876603
Cu1   Cu    Cu3+1 0.500000 0.541020 0.500000 0.977031
Cu2   Cu    Cu3+1 1.000000 0.041020 0.500000 0.977826
Cu3   Cu    Cu3+1 0.500000 0.458980 0.500000 1.009907
Cu4   Cu    Cu3+1 0.000000 0.958980 0.500000 1.010221
C9    C     C_2   0.529206 0.477817 0.813377 -0.238253
C10   C     C_2   0.470117 0.520447 0.186313 -0.238078
C11   C     C_2   0.029203 0.977813 0.813375 -0.237803
C12   C     C_2   0.969843 0.019989 0.186055 -0.238304
C13   C     C_2   0.498265 0.495119 0.814210 -0.360790
C14   C     C_2   0.501707 0.504799 0.185663 -0.352926
C15   C     C_2   0.998265 0.995119 0.814209 -0.360382
C16   C     C_2   0.001680 0.004856 0.185638 -0.353499
H1    H     H_    0.555620 0.465473 0.864399 0.167853
H2    H     H_    0.442958 0.532307 0.135581 0.166266
H3    H     H_    0.055616 0.965466 0.864396 0.167684
H4    H     H_    0.942510 0.031427 0.135130 0.166760
H5    H     H_    0.469543 0.503910 0.762931 0.156045
H6    H     H_    0.530844 0.496962 0.236924 0.157756
H7    H     H_    0.969544 0.003913 0.762932 0.156114
H8    H     H_    0.030931 0.997421 0.236988 0.157856
C17   C     C_2   0.526378 0.472829 0.743152 0.499293
C18   C     C_2   0.472468 0.524659 0.255920 0.471649
C19   C     C_2   0.026376 0.972826 0.743150 0.499536
C20   C     C_2   0.972038 0.024137 0.255535 0.471765
C21   C     C_2   0.506397 0.501930 0.690455 -0.409201
C22   C     C_2   0.495514 0.497960 0.311642 -0.399903
C23   C     C_2   0.006398 0.001929 0.690457 -0.409177
C24   C     C_2   0.995705 0.997968 0.311846 -0.398777
H9    H     H_    0.496515 0.530521 0.702540 0.120150
H10   H     H_    0.509178 0.470982 0.303460 0.131745
H11   H     H_    0.996520 0.030522 0.702545 0.120128
H12   H     H_    0.010021 0.971335 0.304326 0.131016
H13   H     H_    0.287652 0.469479 0.200162 0.137112
H14   H     H_    0.711723 0.440425 0.755001 0.142938
H15   H     H_    0.787697 0.962664 0.206150 0.138283
H16   H     H_    0.211723 0.940428 0.755011 0.142937
C25   C     C_R   0.227933 0.482922 0.178935 -0.161728
C26   C     C_R   0.771723 0.466499 0.795975 -0.166109
C27   C     C_R   0.727956 0.979102 0.182272 -0.162252
C28   C     C_R   0.271723 0.966501 0.795981 -0.166107
H17   H     H_    0.211184 0.469648 0.123736 0.141975
H18   H     H_    0.788205 0.440331 0.831506 0.140806
H19   H     H_    0.711221 0.962772 0.129689 0.141789
H20   H     H_    0.288205 0.940335 0.831517 0.140790
C29   C     C_R   0.206362 0.500027 0.206791 0.147906
C30   C     C_R   0.793636 0.500033 0.793348 0.149537
C31   C     C_R   0.706369 0.000113 0.206756 0.148291
C32   C     C_R   0.293636 0.000033 0.793347 0.149543
C33   C     C_R   0.228530 0.517097 0.278320 -0.168485
C34   C     C_R   0.771810 0.533653 0.747099 -0.166208
C35   C     C_R   0.728522 0.021121 0.274910 -0.168365
C36   C     C_R   0.271810 0.033651 0.747092 -0.166152
H21   H     H_    0.212247 0.530422 0.300520 0.142649
H22   H     H_    0.788358 0.559773 0.744573 0.142897
H23   H     H_    0.712227 0.037505 0.294462 0.142554
H24   H     H_    0.288358 0.059769 0.744561 0.142900
C37   C     C_R   0.271978 0.517041 0.321713 -0.165377
C38   C     C_R   0.728367 0.533720 0.703698 -0.167113
C39   C     C_R   0.771970 0.021065 0.318338 -0.166082
C40   C     C_R   0.228367 0.033718 0.703690 -0.167093
H25   H     H_    0.288732 0.530334 0.376899 0.140249
H26   H     H_    0.711882 0.559885 0.668155 0.142790
H27   H     H_    0.788713 0.037415 0.370901 0.140356
H28   H     H_    0.211883 0.059881 0.668143 0.142777
C41   C     C_R   0.293541 0.499889 0.293887 0.151197
C42   C     C_R   0.706459 0.500165 0.706242 0.146301
C43   C     C_R   0.793547 0.999981 0.293919 0.150493
C44   C     C_R   0.206459 0.000165 0.706241 0.146307
C45   C     C_R   0.271374 0.482832 0.222351 -0.176266
C46   C     C_R   0.728276 0.466559 0.752541 -0.175990
C47   C     C_R   0.771399 0.979031 0.225714 -0.176322
C48   C     C_R   0.228276 0.966561 0.752546 -0.175956
C49   C     C_1   0.161579 0.500039 0.162062 -0.059124
C50   C     C_1   0.838420 0.499971 0.838040 -0.058618
C51   C     C_1   0.661583 0.000094 0.162035 -0.059147
C52   C     C_1   0.338420 0.999971 0.838040 -0.058592
C53   C     C_1   0.338314 0.499831 0.338606 -0.066082
C54   C     C_1   0.661690 0.500185 0.661298 -0.056401
C55   C     C_1   0.838319 0.999883 0.338690 -0.065375
C56   C     C_1   0.161691 0.000185 0.661298 -0.056376
C57   C     C_1   0.375786 0.499851 0.375905 -0.162230
C58   C     C_1   0.624220 0.500177 0.623694 -0.161545
C59   C     C_1   0.875789 0.999866 0.375982 -0.162879
C60   C     C_1   0.124220 0.000177 0.623694 -0.161457
C61   C     C_1   0.124097 0.500026 0.124506 -0.157473
C62   C     C_1   0.875901 0.499958 0.875533 -0.157057
C63   C     C_1   0.624100 0.000056 0.124498 -0.157485
C64   C     C_1   0.375901 0.999958 0.875533 -0.157049
O17   O     O_R   0.534640 0.440150 0.034560 -0.570057
O18   O     O_R   0.465360 0.440150 0.965440 -0.578861
O19   O     O_R   0.034640 0.940150 0.034560 -0.570229
O20   O     O_R   0.965360 0.940150 0.965440 -0.579151
C65   C     C_R   0.499966 0.420430 0.999968 0.827734
C66   C     C_R   0.999966 0.920430 0.999967 0.828173
O21   O     O_R   0.534630 0.500000 0.945560 -0.581579
O22   O     O_R   0.465370 0.500000 0.054440 -0.581134
O23   O     O_R   0.034630 0.000000 0.945560 -0.581756
O24   O     O_R   0.965370 0.000000 0.054440 -0.581549
O25   O     O_R   0.465350 0.500000 0.876310 -0.586045
O26   O     O_R   0.534650 0.500000 0.123690 -0.585108
O27   O     O_R   0.965350 0.000000 0.876310 -0.585838
O28   O     O_R   0.034650 1.000000 0.123690 -0.584993
C67   C     C_R   0.499745 0.498708 0.881941 0.880680
C68   C     C_R   0.500240 0.501400 0.118004 0.886655
C69   C     C_R   0.999745 0.998708 0.881941 0.880925
C70   C     C_R   0.000237 0.001415 0.118001 0.886928
Cu5   Cu    Cu3+1 0.541020 0.500000 0.040980 0.987161
Cu6   Cu    Cu3+1 0.458980 0.500000 0.959020 0.978691
Cu7   Cu    Cu3+1 0.041020 0.000000 0.040980 0.986926
Cu8   Cu    Cu3+1 0.958980 0.000000 0.959020 0.978514
O29   O     O_R   0.534640 0.559850 0.034640 -0.580903
O30   O     O_R   0.465360 0.559850 0.965360 -0.584704
O31   O     O_R   0.034640 0.059850 0.034640 -0.580995
O32   O     O_R   0.965360 0.059850 0.965360 -0.584633
C71   C     C_R   0.500053 0.579610 0.000055 0.820575
C72   C     C_R   0.000053 0.079610 0.000055 0.820634
O33   O     O_R   0.000000 0.440190 0.051560 -0.577839
O34   O     O_R   0.000000 0.440190 0.948440 -0.578283
O35   O     O_R   0.500000 0.940190 0.051560 -0.577833
O36   O     O_R   0.500000 0.940190 0.948440 -0.578352
C73   C     C_R   0.000000 0.420579 0.999816 0.817933
C74   C     C_R   0.500000 0.920579 0.999816 0.817920
O37   O     O_R   0.059850 0.500040 0.111340 -0.577776
O38   O     O_R   0.940150 0.500040 0.888660 -0.577132
O39   O     O_R   0.559850 0.000040 0.111340 -0.577658
O40   O     O_R   0.440150 0.000040 0.888660 -0.577134
O41   O     O_R   0.059840 0.499970 0.008270 -0.577016
O42   O     O_R   0.940160 0.499970 0.991730 -0.576352
O43   O     O_R   0.559840 0.999970 0.008270 -0.576940
O44   O     O_R   0.440160 0.999970 0.991730 -0.576361
C75   C     C_R   0.079460 0.500009 0.079570 0.820039
C76   C     C_R   0.920539 0.499971 0.920434 0.819218
C77   C     C_R   0.579461 0.000014 0.079570 0.819892
C78   C     C_R   0.420540 0.999971 0.920434 0.819241
Cu9   Cu    Cu3+1 0.000010 0.500040 0.061000 0.980028
Cu10  Cu    Cu3+1 0.999990 0.500040 0.939000 0.980118
Cu11  Cu    Cu3+1 0.500010 0.000040 0.061000 0.980044
Cu12  Cu    Cu3+1 0.499990 0.000040 0.939000 0.980110
O45   O     O_R   0.000010 0.559880 0.051460 -0.575759
O46   O     O_R   0.999990 0.559880 0.948540 -0.575191
O47   O     O_R   0.500010 0.059880 0.051460 -0.575791
O48   O     O_R   0.499990 0.059880 0.948540 -0.575147
C79   C     C_R   0.999954 0.579479 0.000138 0.818343
C80   C     C_R   0.499955 0.079480 0.000139 0.818272
C81   C     C_R   0.990489 0.728157 0.044400 -0.221203
C82   C     C_R   0.011642 0.727669 0.960041 -0.221164
C83   C     C_R   0.489012 0.228144 0.042321 -0.221272
C84   C     C_R   0.513108 0.227683 0.962300 -0.221164
H29   H     H_    0.982293 0.711183 0.076898 0.190585
H30   H     H_    0.019764 0.710317 0.927467 0.190423
H31   H     H_    0.479681 0.211160 0.073140 0.190541
H32   H     H_    0.522364 0.210342 0.931394 0.190375
C85   C     C_R   0.000526 0.706232 0.001464 0.018063
C86   C     C_R   0.500527 0.206232 0.001524 0.018096
C87   C     C_R   0.514571 0.271248 0.963510 0.303882
C88   C     C_R   0.490080 0.271721 0.044855 0.303893
C89   C     C_R   0.013099 0.771233 0.961145 0.303732
C90   C     C_R   0.991599 0.771733 0.046899 0.303914
C91   C     C_R   0.502586 0.293563 0.004557 -0.114563
C92   C     C_R   0.002614 0.793562 0.004380 -0.114516
C93   C     C_1   0.000119 0.661493 0.000886 0.007255
C94   C     C_1   0.500121 0.161493 0.000910 0.007212
C95   C     C_1   0.500935 0.338446 0.002003 0.136572
C96   C     C_1   0.000946 0.838445 0.001905 0.136558
C97   C     C_1   0.500090 0.375880 0.000551 -0.076080
C98   C     C_1   0.000092 0.875880 0.000506 -0.076130
C99   C     C_1   0.999980 0.624053 0.000551 -0.158069
C100  C     C_1   0.499982 0.124053 0.000557 -0.158133
H33   H     H_    0.466461 0.711233 0.880918 0.139510
H34   H     H_    0.534000 0.712499 0.118712 0.142206
H35   H     H_    0.964665 0.211236 0.880701 0.139575
H36   H     H_    0.035797 0.212496 0.118918 0.142188
C101  C     C_R   0.980212 0.271458 0.932647 -0.169297
C102  C     C_R   0.020204 0.272163 0.066573 -0.168546
C103  C     C_R   0.481221 0.771456 0.932772 -0.169316
C104  C     C_R   0.519193 0.772165 0.066460 -0.168648
H37   H     H_    0.964621 0.287691 0.880447 0.141157
H38   H     H_    0.035756 0.288945 0.118665 0.142143
H39   H     H_    0.466415 0.787687 0.880664 0.141202
H40   H     H_    0.533958 0.788948 0.118459 0.142190
C105  C     C_R   0.000191 0.293682 0.999538 0.149010
C106  C     C_R   0.500190 0.793682 0.999544 0.148948
C107  C     C_R   0.519216 0.728729 0.066606 -0.167642
C108  C     C_R   0.481245 0.728018 0.932917 -0.170466
C109  C     C_R   0.020227 0.228727 0.066718 -0.167538
C110  C     C_R   0.980236 0.228020 0.932792 -0.170413
C111  C     C_R   0.500237 0.706503 0.999835 0.150142
C112  C     C_R   0.000237 0.206503 0.999829 0.150099
C113  C     C_1   0.000110 0.338465 0.999425 -0.060551
C114  C     C_1   0.500109 0.838465 0.999427 -0.060657
C115  C     C_1   0.500213 0.661721 0.999978 -0.060725
C116  C     C_1   0.000214 0.161720 0.999974 -0.060682
C117  C     C_1   0.500164 0.624244 0.000057 -0.159933
C118  C     C_1   0.000164 0.124244 0.000055 -0.159890
C119  C     C_1   0.000051 0.375942 0.999489 -0.159732
C120  C     C_1   0.500050 0.875942 0.999489 -0.159830
O49   O     O_3   0.541767 0.437698 0.729254 -0.572983
C121  C     C_3   0.585089 0.433344 0.781608 0.089205
H41   H     H_    0.594016 0.403083 0.770026 0.187104
H42   H     H_    0.593848 0.431261 0.839219 0.132727
C122  C     C_3   0.609782 0.467577 0.774173 -0.401504
H43   H     H_    0.599574 0.469220 0.715710 0.230866
H44   H     H_    0.603790 0.498054 0.790329 0.207609
C123  C     C_3   0.656306 0.459099 0.822876 -0.881045
H45   H     H_    0.667254 0.457403 0.881859 0.260378
H46   H     H_    0.673176 0.484582 0.816686 0.262882
H47   H     H_    0.663437 0.429469 0.806210 0.252971
O50   O     O_3   0.450494 0.555913 0.262941 -0.582347
C124  C     C_3   0.408434 0.543855 0.224810 0.047710
H48   H     H_    0.405363 0.512608 0.242878 0.126843
H49   H     H_    0.393800 0.543335 0.164073 0.141222
C125  C     C_3   0.385346 0.575143 0.241542 -0.306895
H50   H     H_    0.398753 0.574963 0.301745 0.234901
H51   H     H_    0.389187 0.606773 0.226343 0.229019
C126  C     C_3   0.339171 0.564832 0.198596 -0.910803
H52   H     H_    0.324641 0.567418 0.138203 0.258299
H53   H     H_    0.323606 0.586858 0.214535 0.265125
H54   H     H_    0.334581 0.532851 0.211111 0.255979
O51   O     O_3   0.041760 0.937693 0.729247 -0.572605
C127  C     C_3   0.085081 0.933334 0.781599 0.089352
H55   H     H_    0.094004 0.903070 0.770018 0.187059
H56   H     H_    0.093842 0.931254 0.839211 0.132471
C128  C     C_3   0.109777 0.967562 0.774159 -0.401601
H57   H     H_    0.099570 0.969200 0.715697 0.230900
H58   H     H_    0.103786 0.998042 0.790309 0.207592
C129  C     C_3   0.156300 0.959082 0.822866 -0.881273
H59   H     H_    0.167248 0.957390 0.881849 0.260272
H60   H     H_    0.173172 0.984561 0.816673 0.262947
H61   H     H_    0.163430 0.929448 0.806206 0.252946
O52   O     O_3   0.949155 0.054684 0.261759 -0.582778
C130  C     C_3   0.907377 0.041564 0.223309 0.046628
H62   H     H_    0.904985 0.010164 0.241754 0.127436
H63   H     H_    0.892992 0.040865 0.162659 0.141750
C131  C     C_3   0.883271 0.072086 0.238986 -0.307939
H64   H     H_    0.896365 0.072004 0.299062 0.234056
H65   H     H_    0.886474 0.103893 0.223530 0.229547
C132  C     C_3   0.837328 0.060642 0.195457 -0.908968
H66   H     H_    0.823025 0.063263 0.135144 0.258352
H67   H     H_    0.821044 0.082029 0.210832 0.265006
H68   H     H_    0.833375 0.028411 0.207974 0.256483
N1    N     N_R   0.478274 0.293022 0.088269 0.135040
O53   O     O_R   0.496382 0.327499 0.122730 -0.355591
O54   O     O_R   0.452525 0.275694 0.100154 -0.343778
N2    N     N_R   0.528117 0.292056 0.922676 0.134271
O55   O     O_R   0.549227 0.326462 0.947257 -0.356492
O56   O     O_R   0.523331 0.274328 0.864801 -0.342382
N3    N     N_R   0.981354 0.793049 0.092552 0.134921
O57   O     O_R   0.999906 0.827520 0.126346 -0.355621
O58   O     O_R   0.956685 0.775737 0.107054 -0.343873
N4    N     N_R   0.025110 0.792026 0.917987 0.134417
O59   O     O_R   0.046297 0.826426 0.941358 -0.356574
O60   O     O_R   0.018844 0.774290 0.858955 -0.341972

loop_
_geom_bond_atom_site_label_1
_geom_bond_atom_site_label_2
_geom_bond_distance
_ccdc_geom_bond_type
O27   Cu8   1.965608 S    
C8    C24   1.455110 S    
O35   C74   1.295208 A    
C111  C115  1.444034 S    
C130  H63   1.113105 S    
Cu7   O31   1.941387 S    
C50   C62   1.208125 T    
C27   C47   1.400273 A    
O25   Cu6   1.965608 S    
O44   Cu11  1.938895 S    
C101  C105  1.402032 A    
C126  H52   1.110742 S    
C14   H6    1.085821 S    
C13   C67   1.457255 S    
C32   C36   1.401872 A    
C28   C32   1.402094 A    
O37   Cu9   1.941233 S    
C36   C40   1.400275 A    
C123  H46   1.110442 S    
C88   N1    1.441731 S    
C113  C119  1.208447 T    
O17   Cu5   1.940175 S    
C127  H55   1.110986 S    
O7    C3    1.285834 A    
H34   C107  1.083411 S    
O38   C76   1.295394 A    
C26   C30   1.402094 A    
O52   C130  1.412733 S    
C64   C78   1.438758 S    
Cu11  O47   1.942310 S    
Cu10  O46   1.939384 S    
O42   Cu9   1.938895 S    
O24   C70   1.285288 A    
C116  C118  1.208433 T    
O44   C78   1.294507 A    
Cu5   O29   1.941387 S    
C115  C117  1.208436 T    
O43   C77   1.294573 A    
C79   C99   1.437226 S    
C132  H66   1.110748 S    
C93   C99   1.207231 T    
C25   C45   1.400241 A    
C128  C129  1.525613 S    
O20   Cu8   1.941402 S    
O28   C70   1.279661 A    
C1    C57   1.438141 S    
N3    O57   1.301257 A    
C125  H51   1.111632 S    
C9    C13   1.340715 D    
C16   C70   1.455610 S    
C44   C48   1.401876 A    
C122  C123  1.525610 S    
C85   C93   1.442618 S    
C125  H50   1.111236 S    
C10   H2    1.085899 S    
C96   C98   1.207616 T    
N4    O59   1.301278 A    
O38   Cu10  1.941233 S    
C65   C97   1.436644 S    
C81   C85   1.395866 A    
C84   C86   1.395884 A    
C107  C111  1.402000 A    
C102  C109  1.400602 A    
C30   C34   1.401872 A    
O24   Cu8   1.962145 S    
C101  C110  1.400682 A    
C122  H44   1.111100 S    
O5    Cu3   1.940646 S    
O25   C67   1.279450 A    
O33   Cu9   1.939468 S    
O42   C76   1.294507 A    
O16   C8    1.278508 A    
O28   Cu7   1.965610 S    
C127  H56   1.108864 S    
O51   C127  1.416687 S    
C102  H38   1.083414 S    
O21   Cu5   1.962141 S    
C36   H24   1.083410 S    
C124  H49   1.113157 S    
C83   C86   1.395864 A    
C101  H37   1.083403 S    
O41   C75   1.294591 A    
O4    C4    1.285487 A    
C15   H7    1.086367 S    
N1    O53   1.301254 A    
C15   C69   1.457255 S    
C23   H11   1.086661 S    
O6    Cu3   1.939427 S    
Cu6   O30   1.940185 S    
O26   C68   1.279537 A    
C74   C120  1.439304 S    
C87   N2    1.441819 S    
C106  C114  1.444047 S    
C129  H61   1.110766 S    
O11   C7    1.281112 A    
C90   N3    1.441735 S    
C130  C131  1.527774 S    
C105  C113  1.444050 S    
O12   C8    1.285985 A    
H33   C108  1.083410 S    
C11   C19   1.487926 S    
C62   C76   1.438758 S    
O39   C77   1.295320 A    
C102  C105  1.402074 A    
O48   C80   1.292930 A    
C12   C20   1.482022 S    
O34   C73   1.295915 A    
O9    Cu1   1.964560 S    
C121  H41   1.110989 S    
H15   C47   1.083440 S    
C34   C38   1.400275 A    
O30   C71   1.285377 A    
O46   C79   1.292925 A    
C33   C37   1.400417 A    
C89   N4    1.441818 S    
C42   C46   1.401875 A    
C87   C91   1.419476 A    
C128  H58   1.111096 S    
N2    O56   1.301594 A    
C53   C57   1.207813 T    
O40   Cu12  1.941233 S    
O31   C72   1.285681 A    
C27   H19   1.083402 S    
C18   O50   1.386456 S    
C10   C14   1.340867 D    
C82   C85   1.395889 A    
C24   H12   1.085789 S    
O13   Cu3   1.960811 S    
C112  C116  1.444034 S    
O1    C1    1.285329 A    
C28   C48   1.400409 A    
H35   C110  1.083410 S    
O36   C74   1.295915 A    
O34   Cu10  1.942363 S    
C4    C60   1.438466 S    
C26   H18   1.083389 S    
O11   Cu2   1.964560 S    
C19   C23   1.348193 D    
O19   Cu7   1.940175 S    
C121  C122  1.536495 S    
C129  H59   1.110754 S    
C38   H26   1.083410 S    
C83   H31   1.083828 S    
C103  C106  1.402031 A    
O13   C5    1.286535 A    
O7    Cu4   1.940646 S    
C92   C96   1.448652 S    
O26   Cu5   1.965610 S    
C9    C17   1.487927 S    
C41   C45   1.401900 A    
C114  C120  1.208447 T    
O15   C7    1.286533 A    
O5    C1    1.285820 A    
O49   C121  1.416689 S    
C43   C55   1.443098 S    
C25   H17   1.083437 S    
C104  H40   1.083415 S    
C88   C91   1.419495 A    
C49   C61   1.208109 T    
C71   C117  1.439262 S    
C7    C23   1.461352 S    
Cu9   Cu10  2.675159 S    
C73   C119  1.439301 S    
C17   C21   1.348190 D    
O45   C79   1.293642 A    
O8    C4    1.285667 A    
O19   C66   1.284210 A    
C51   C63   1.208151 T    
O22   C68   1.285364 A    
C122  H43   1.108046 S    
O36   Cu12  1.942363 S    
O9    C5    1.281109 A    
C126  H53   1.110336 S    
C22   H10   1.085899 S    
C29   C33   1.401946 A    
O15   Cu4   1.960811 S    
N1    O54   1.301587 A    
O32   C72   1.285377 A    
O17   C65   1.284220 A    
C5    C21   1.461346 S    
H16   C48   1.083331 S    
C84   C87   1.405456 A    
C72   C118  1.439265 S    
C27   C31   1.401989 A    
C52   C64   1.208125 T    
O47   C80   1.293640 A    
C110  C112  1.402100 A    
C26   C46   1.400412 A    
C82   C89   1.405460 A    
C3    C59   1.438085 S    
Cu7   Cu8   2.644346 S    
O8    Cu4   1.939427 S    
Cu9   O45   1.942310 S    
C83   C88   1.405580 A    
C16   H8    1.085732 S    
C131  C132  1.526404 S    
O39   Cu11  1.941233 S    
H36   C109  1.083411 S    
C20   O52   1.386653 S    
C130  H62   1.116426 S    
O2    C2    1.285488 A    
C28   H20   1.083388 S    
C12   C16   1.340991 D    
C131  H65   1.111629 S    
C56   C60   1.207740 T    
O37   C75   1.295271 A    
C132  H67   1.110360 S    
C82   H30   1.083849 S    
C89   C92   1.419473 A    
C25   C29   1.401954 A    
H13   C45   1.083449 S    
N3    O58   1.301598 A    
C121  H42   1.108869 S    
C104  C106  1.402075 A    
O40   C78   1.295394 A    
C41   C53   1.443151 S    
O22   Cu6   1.962145 S    
O18   Cu6   1.941402 S    
C10   C18   1.481752 S    
O3    Cu2   1.939433 S    
O14   Cu3   1.963686 S    
C40   H28   1.083407 S    
C63   C77   1.438797 S    
O23   C69   1.286102 A    
O12   Cu2   1.961683 S    
C80   C100  1.437226 S    
C39   H27   1.083400 S    
O6    C2    1.285667 A    
C132  H68   1.109877 S    
O4    Cu2   1.940647 S    
C128  H57   1.108048 S    
O1    Cu1   1.939433 S    
C129  H60   1.110446 S    
C103  H39   1.083401 S    
O33   C73   1.295208 A    
Cu8   O32   1.940185 S    
C104  C107  1.400602 A    
O16   Cu4   1.963686 S    
C18   C22   1.346321 D    
Cu2   Cu4   2.645383 S    
C38   C42   1.401795 A    
C127  C128  1.536496 S    
C6    C22   1.455554 S    
O43   Cu12  1.938913 S    
O29   C71   1.285681 A    
C13   H5    1.086367 S    
O41   Cu10  1.938913 S    
O10   C6    1.286039 A    
C42   C54   1.442982 S    
O14   C6    1.278677 A    
C131  H64   1.111155 S    
H14   C46   1.083330 S    
C37   C41   1.401824 A    
C32   C52   1.443502 S    
Cu11  Cu12  2.675159 S    
C31   C35   1.401951 A    
C66   C98   1.436644 S    
C81   H29   1.083832 S    
C35   C39   1.400429 A    
C103  C108  1.400685 A    
C31   C51   1.443537 S    
C17   O49   1.392387 S    
C108  C111  1.402100 A    
C21   H9    1.086662 S    
C39   C43   1.401803 A    
C11   C15   1.340710 D    
O50   C124  1.412545 S    
C19   O51   1.392387 S    
O20   C66   1.285598 A    
Cu12  O48   1.939384 S    
O2    Cu1   1.940647 S    
N4    O60   1.301610 A    
C12   H4    1.085851 S    
O10   Cu1   1.961683 S    
C94   C100  1.207233 T    
Cu5   Cu6   2.644346 S    
C61   C75   1.438727 S    
C124  C125  1.527771 S    
C90   C92   1.419502 A    
C81   C90   1.405572 A    
C95   C97   1.207619 T    
O18   C65   1.285591 A    
O3    C3    1.285283 A    
C44   C56   1.442986 S    
C123  H45   1.110756 S    
C86   C94   1.442614 S    
C126  H54   1.109639 S    
O27   C69   1.279446 A    
C20   C24   1.346220 D    
N2    O55   1.301273 A    
C125  C126  1.526202 S    
C43   C47   1.401835 A    
C14   C68   1.455506 S    
C34   H22   1.083412 S    
C54   C58   1.207740 T    
C9    H1    1.083565 S    
C11   H3    1.083565 S    
C2    C58   1.438466 S    
C33   H21   1.083452 S    
C55   C59   1.207773 T    
C40   C44   1.401793 A    
O23   Cu7   1.962141 S    
C35   H23   1.083413 S    
C109  C112  1.402001 A    
O35   Cu11  1.939468 S    
C123  H47   1.110768 S    
C37   H25   1.083439 S    
C91   C95   1.448659 S    
C30   C50   1.443502 S    
C124  H48   1.116449 S    
O21   C67   1.286100 A    
C84   H32   1.083839 S    
Cu1   Cu3   2.645383 S    
C29   C49   1.443474 S    
