data_mof_unit_63321.cif
_audit_creation_date              2013-03-05T16:32:03-0500
_audit_creation_method            fapswitch 2.2
_symmetry_space_group_name_H-M    P1
_symmetry_Int_Tables_number       1
_space_group_crystal_system       triclinic
_cell_length_a                    15.020298
_cell_length_b                    14.251817
_cell_length_c                    14.145692
_cell_angle_alpha                 89.998769
_cell_angle_beta                  91.31683
_cell_angle_gamma                 90.004289
_cell_volume                      3027.31959024

loop_
_atom_site_label
_atom_site_type_symbol
_atom_site_description
_atom_site_fract_x
_atom_site_fract_y
_atom_site_fract_z
_atom_type_partial_charge
O1    O     O_R   0.369060 0.579480 0.500010 -0.593359
O2    O     O_R   0.630940 0.420520 0.499990 -0.595476
O3    O     O_R   0.630940 0.579480 0.499990 -0.593309
O4    O     O_R   0.369060 0.420520 0.500010 -0.595107
C1    C     C_R   0.327854 0.500015 0.500220 0.876514
C2    C     C_R   0.672146 0.500020 0.499777 0.876337
O5    O     O_R   0.500000 0.579500 0.373720 -0.575188
O6    O     O_R   0.500000 0.420500 0.626280 -0.567460
O7    O     O_R   0.500000 0.579500 0.626280 -0.575260
O8    O     O_R   0.500000 0.420500 0.373720 -0.567489
C3    C     C_R   0.499843 0.499986 0.329186 0.906606
C4    C     C_R   0.500158 0.499984 0.670813 0.906460
Zn1   Zn    Zn3+2 0.500000 0.606140 0.500000 1.047757
Zn2   Zn    Zn3+2 0.500000 0.393860 0.500000 1.053291
C5    C     C_R   0.467360 0.104160 0.422185 -0.300334
C6    C     C_R   0.569666 0.895660 0.542709 -0.296427
C7    C     C_R   0.532680 0.104216 0.577905 -0.300380
C8    C     C_R   0.430328 0.895674 0.457412 -0.296510
H1    H     H_    0.441970 0.067679 0.360056 0.194049
H2    H     H_    0.625332 0.932125 0.575994 0.192966
H3    H     H_    0.558068 0.067790 0.640068 0.193762
H4    H     H_    0.374660 0.932149 0.424153 0.192989
C9    C     C_R   0.466641 0.203168 0.423252 0.383187
C10   C     C_R   0.568596 0.796642 0.543228 0.383299
C11   C     C_R   0.533365 0.203224 0.576768 0.383584
C12   C     C_R   0.431398 0.796658 0.456818 0.383277
N1    N     N_R   0.500000 0.252470 0.500000 -0.196215
N2    N     N_R   0.500000 0.747530 0.500000 -0.200416
C13   C     C_1   0.499808 0.499915 0.227737 -0.106852
C14   C     C_1   0.500193 0.499910 0.772263 -0.106473
C15   C     C_1   0.499837 0.499815 0.142490 0.042408
C16   C     C_1   0.500163 0.499810 0.857510 0.042545
C17   C     C_1   0.499944 0.499738 0.042624 0.049899
C18   C     C_1   0.500056 0.499737 0.957376 0.049889
C19   C     C_R   0.500019 0.052898 0.500060 0.065447
C20   C     C_R   0.500001 0.946950 0.500073 0.065093
C21   C     C_R   0.094959 0.579534 0.533329 -0.144811
C22   C     C_R   0.906767 0.421869 0.532525 -0.165959
C23   C     C_R   0.905041 0.579531 0.466561 -0.144875
C24   C     C_R   0.093228 0.421866 0.467383 -0.166002
H5    H     H_    0.060481 0.640396 0.560162 0.155490
H6    H     H_    0.942570 0.361157 0.559478 0.150887
H7    H     H_    0.939521 0.640390 0.439709 0.155491
H8    H     H_    0.057423 0.361153 0.440426 0.150868
C25   C     C_R   0.186931 0.579257 0.533388 -0.122748
C26   C     C_R   0.814889 0.421190 0.531472 -0.146502
C27   C     C_R   0.813068 0.579262 0.466546 -0.122733
C28   C     C_R   0.185107 0.421179 0.468480 -0.146425
H9    H     H_    0.222656 0.640091 0.560108 0.186042
H10   H     H_    0.780852 0.359577 0.556884 0.205754
H11   H     H_    0.777344 0.640095 0.439833 0.186045
H12   H     H_    0.219143 0.359562 0.443090 0.205667
C29   C     C_R   0.232033 0.500126 0.500752 -0.043960
C30   C     C_R   0.767966 0.500138 0.499215 -0.043905
C31   C     C_R   0.048092 0.500928 0.500008 0.099217
C32   C     C_R   0.951905 0.500925 0.499871 0.099205
N3    N     N_R   0.429738 0.250769 0.342610 0.226188
O9    O     O_R   0.456648 0.229110 0.258607 -0.377637
O10   O     O_R   0.356698 0.298659 0.350542 -0.392565
N4    N     N_R   0.640545 0.748809 0.590230 0.226654
O11   O     O_R   0.625945 0.703300 0.667944 -0.361121
O12   O     O_R   0.722041 0.771211 0.570653 -0.406367
N5    N     N_R   0.570183 0.250912 0.657379 0.226323
O13   O     O_R   0.542471 0.230060 0.741303 -0.377551
O14   O     O_R   0.643680 0.298116 0.649670 -0.393002
N6    N     N_R   0.359445 0.748844 0.409789 0.226629
O15   O     O_R   0.374060 0.703287 0.332111 -0.361037
O16   O     O_R   0.277948 0.771280 0.429314 -0.406363

loop_
_geom_bond_atom_site_label_1
_geom_bond_atom_site_label_2
_geom_bond_distance
_ccdc_geom_bond_type
C6    C10   1.411296 A    
O1    Zn1   2.003100 S    
N6    O16   1.300982 A    
C31   C32   1.444714 S    
N5    O14   1.299454 A    
Zn1   N2    2.015064 S    
C9    N1    1.377830 A    
Zn2   N1    2.015064 S    
C7    H3    1.082939 S    
C22   C32   1.398837 A    
C26   H10   1.081665 S    
C24   H8    1.083446 S    
C12   N2    1.377057 A    
C19   C20   1.509954 S    
O3    Zn1   2.003152 S    
C6    H2    1.082919 S    
O6    C4    1.296163 A    
C24   C31   1.398848 A    
C7    C11   1.411176 A    
C26   C30   1.398656 A    
C5    C9    1.411160 A    
C17   C18   1.205935 T    
C25   C29   1.399422 A    
N4    O11   1.299333 A    
C13   C15   1.205887 T    
O4    Zn2   2.003155 S    
C8    H4    1.082915 S    
C6    C20   1.401461 A    
N4    O12   1.300979 A    
C14   C16   1.205887 T    
N3    O9    1.301068 A    
O2    C2    1.291051 A    
C2    C30   1.439453 S    
C27   C30   1.399415 A    
O1    C1    1.290606 A    
C5    C19   1.401093 A    
C25   H9    1.083104 S    
C22   H6    1.083444 S    
C28   H12   1.081676 S    
C21   H5    1.083401 S    
C28   C29   1.398663 A    
O2    Zn2   2.003097 S    
O7    C4    1.296530 A    
O6    Zn2   1.826228 S    
C21   C31   1.399069 A    
C22   C26   1.379799 A    
N3    O10   1.299155 A    
C15   C17   1.412712 S    
C21   C25   1.381435 A    
N5    O13   1.301380 A    
C12   N6    1.428921 S    
O5    Zn1   1.826229 S    
N6    O15   1.299330 A    
C3    C13   1.435063 S    
C23   C27   1.381450 A    
O8    C3    1.296162 A    
O3    C2    1.290618 A    
C1    C29   1.439454 S    
C9    N3    1.428182 S    
C23   C32   1.399075 A    
O7    Zn1   1.826212 S    
C24   C28   1.379814 A    
C11   N5    1.427952 S    
O5    C3    1.296531 A    
C23   H7    1.083398 S    
C10   N4    1.428904 S    
C7    C19   1.401179 A    
C4    C14   1.435062 S    
C16   C18   1.412712 S    
C5    H1    1.082931 S    
C8    C20   1.401519 A    
C27   H11   1.083102 S    
C10   N2    1.377090 A    
O8    Zn2   1.826214 S    
O4    C1    1.291064 A    
C11   N1    1.377678 A    
C8    C12   1.411282 A    
