data_mof_unit_7302.cif
_audit_creation_date              2012-12-10T17:58:18-0500
_audit_creation_method            fapswitch 2.2
_symmetry_space_group_name_H-M    P1
_symmetry_Int_Tables_number       1
_space_group_crystal_system       triclinic
_cell_length_a                    9.513612
_cell_length_b                    10.864673
_cell_length_c                    15.496002
_cell_angle_alpha                 89.966104
_cell_angle_beta                  74.518646
_cell_angle_gamma                 89.406985
_cell_volume                      1543.5015914

loop_
_atom_site_label
_atom_site_type_symbol
_atom_type_description
_atom_site_fract_x
_atom_site_fract_y
_atom_site_fract_z
_atom_type_partial_charge
C1    C     C_R   0.000830 0.262086 0.500232 0.849300
C2    C     C_R   0.999182 0.737915 0.499742 0.849451
C3    C     C_R   0.585706 0.518741 0.094859 -0.221350
C4    C     C_R   0.424952 0.424415 0.910671 -0.223222
C5    C     C_R   0.731315 0.533329 0.049667 -0.239010
C6    C     C_R   0.279817 0.407601 0.956199 -0.238478
C7    C     C_R   0.885083 0.066824 0.481996 -0.345840
C8    C     C_R   0.114973 0.933185 0.517909 -0.345901
C9    C     C_R   0.879579 0.939076 0.483494 0.510614
C10   C     C_R   0.120474 0.060929 0.516412 0.510544
C11   C     C_R   0.997266 0.871781 0.499943 -0.195762
C12   C     C_R   0.002772 0.128224 0.499986 -0.195198
C13   C     C_R   0.546722 0.567287 0.561650 -0.008634
C14   C     C_R   0.453284 0.432735 0.438333 -0.009009
C15   C     C_R   0.397923 0.567419 0.561583 -0.033794
C16   C     C_R   0.602082 0.432593 0.438407 -0.033537
C17   C     C_R   0.918282 0.500483 0.672164 0.793340
C18   C     C_R   0.081734 0.498192 0.327904 0.793868
C19   C     C_R   0.873426 0.502785 0.770390 -0.044328
C20   C     C_R   0.127328 0.485285 0.230209 -0.042309
C21   C     C_R   0.924890 0.539027 0.912627 -0.214271
C22   C     C_R   0.082891 0.417115 0.091630 -0.218680
C23   C     C_R   0.972848 0.529270 0.819829 -0.192043
C24   C     C_R   0.031595 0.442031 0.182817 -0.197082
C25   C     C_R   0.726995 0.482357 0.814709 -0.254325
C26   C     C_R   0.273323 0.506039 0.185414 -0.252931
C27   C     C_R   0.676340 0.488284 0.908524 0.091968
C28   C     C_R   0.329359 0.476939 0.094260 0.091705
C29   C     C_R   0.777705 0.519929 0.957166 0.166046
C30   C     C_R   0.230487 0.434211 0.047088 0.165645
C31   C     C_R   0.527482 0.467577 0.954892 0.066100
C32   C     C_R   0.480175 0.488934 0.048957 0.067791
Cu1   Cu    Cu3+1 0.140660 0.500020 0.500000 0.960907
Cu2   Cu    Cu3+1 0.859340 0.499980 0.500000 0.960695
H1    H     H_    0.807980 0.556847 0.087567 0.153300
H2    H     H_    0.205428 0.373580 0.919729 0.153231
H3    H     H_    0.340747 0.545415 0.223740 0.149634
H4    H     H_    0.653765 0.465538 0.773958 0.150077
H5    H     H_    0.918350 0.424561 0.216540 0.148440
H6    H     H_    0.086558 0.545799 0.786725 0.151520
H7    H     H_    0.002607 0.563412 0.949516 0.145721
H8    H     H_    0.007674 0.382121 0.056184 0.143749
H9    H     H_    0.560682 0.528765 0.166459 0.142411
H10   H     H_    0.453584 0.398930 0.841002 0.146303
H11   H     H_    0.796893 0.117779 0.465918 0.180224
H12   H     H_    0.203184 0.882236 0.533969 0.180328
H13   H     H_    0.580555 0.621309 0.611019 0.112911
H14   H     H_    0.419463 0.378746 0.388941 0.113387
H15   H     H_    0.319733 0.621611 0.610796 0.111398
H16   H     H_    0.680275 0.378412 0.389185 0.110364
N1    N     N_R   0.352080 0.500030 0.499980 -0.149671
N2    N     N_R   0.647920 0.499970 0.500020 -0.149555
O1    O     O_R   0.118740 0.319660 0.500000 -0.533229
O2    O     O_R   0.881260 0.680340 0.500000 -0.532994
O3    O     O_R   0.881170 0.319630 0.500010 -0.598576
O4    O     O_R   0.118830 0.680370 0.499990 -0.598214
O5    O     O_R   0.055570 0.500030 0.629830 -0.583900
O6    O     O_R   0.944430 0.499970 0.370170 -0.583362
O7    O     O_R   0.818000 0.500000 0.629840 -0.597189
O8    O     O_R   0.182000 0.500000 0.370160 -0.596169
O9    O     O_3   0.765257 0.880543 0.461466 -0.557747
C33   C     C_3   0.639194 0.891865 0.533898 -0.300515
H17   H     H_    0.601275 0.989155 0.544784 0.155189
H18   H     H_    0.550300 0.838771 0.517987 0.179730
H19   H     H_    0.657787 0.853043 0.596516 0.152136
O10   O     O_3   0.234833 0.119452 0.538403 -0.558362
C34   C     C_3   0.360803 0.108241 0.465897 -0.300697
H20   H     H_    0.449741 0.161298 0.481788 0.179409
H21   H     H_    0.398735 0.010964 0.454904 0.155540
H22   H     H_    0.342080 0.147172 0.403343 0.152905

loop_
_geom_bond_atom_site_label_1
_geom_bond_atom_site_label_2
_ccdc_geom_bond_type
C3    C32   A    
C19   C23   A    
C26   H3    S    
C33   H17   S    
C15   N1    A    
C25   H4    S    
Cu1   N1    S    
C13   N2    A    
C4    H10   S    
Cu1   O5    S    
Cu2   N2    S    
C31   C32   A    
C13   C15   A    
C34   H22   S    
C20   C24   A    
Cu1   O4    S    
C28   C30   A    
Cu1   Cu2   S    
C1    O3    A    
Cu2   O3    S    
C7    H11   S    
C22   H8    S    
C26   C28   A    
C15   H15   S    
C2    O2    A    
C9    C11   A    
C3    H9    S    
Cu2   O7    S    
C1    C12   S    
C20   C26   A    
C17   O7    A    
C8    C11   A    
C9    O9    S    
C2    C11   S    
C10   C12   A    
C8    C10   A    
C13   H13   S    
C6    C30   A    
C6    H2    S    
Cu2   O2    S    
Cu1   O8    S    
C22   C24   A    
C10   O10   S    
C21   C23   A    
Cu1   O1    S    
O9    C33   S    
C19   C25   A    
C14   C16   A    
C7    C12   A    
C14   N1    A    
C4    C31   A    
C27   C29   A    
C34   H21   S    
C27   C31   A    
C34   H20   S    
C5    C29   A    
C5    H1    S    
C28   C32   A    
C24   H5    S    
O10   C34   S    
C18   C20   S    
Cu2   O6    S    
C4    C6    A    
C21   H7    S    
C18   O8    A    
C16   N2    A    
C7    C9    A    
C14   H14   S    
C1    O1    A    
C33   H18   S    
C22   C30   A    
C33   H19   S    
C17   C19   S    
C17   O5    A    
C21   C29   A    
C18   O6    A    
C2    O4    A    
C8    H12   S    
C23   H6    S    
C16   H16   S    
C3    C5    A    
C25   C27   A    
