data_mof_unit_44416.cif
_audit_creation_date              2012-10-26T19:06:48-0400
_audit_creation_method            fapswitch 2.2
_symmetry_space_group_name_H-M    P1
_symmetry_Int_Tables_number       1
_space_group_crystal_system       triclinic
_cell_length_a                    12.377142
_cell_length_b                    13.157114
_cell_length_c                    27.784304
_cell_angle_alpha                 76.731157
_cell_angle_beta                  100.822054
_cell_angle_gamma                 116.458807
_cell_volume                      3923.5126002

loop_
_atom_site_label
_atom_site_type_symbol
_atom_type_description
_atom_site_fract_x
_atom_site_fract_y
_atom_site_fract_z
_atom_type_partial_charge
C1    C     C_R   0.855128 0.286092 0.507136 0.574291
C2    C     C_R   0.904548 0.427418 0.025012 0.018250
C3    C     C_R   0.107145 0.590843 0.024832 0.018399
C4    C     C_R   0.001800 0.503205 0.592141 0.562309
C5    C     C_R   0.005883 0.508145 0.050292 0.034065
C6    C     C_R   0.809134 0.343027 0.052806 -0.140000
C7    C     C_R   0.810996 0.341020 0.103119 -0.112080
C8    C     C_R   0.908045 0.422616 0.127854 0.024872
C9    C     C_R   0.005918 0.506169 0.101667 -0.027128
C10   C     C_R   0.103767 0.587790 0.126977 0.024710
C11   C     C_R   0.101514 0.584936 0.177598 0.397675
C12   C     C_R   0.079591 0.471934 0.731146 -0.055603
C13   C     C_R   0.909867 0.422125 0.178553 0.396521
C14   C     C_R   0.089321 0.476493 0.289252 -0.058948
C15   C     C_R   0.088266 0.475851 0.339400 -0.146025
C16   C     C_R   0.144603 0.713465 0.494344 0.537747
C17   C     C_R   0.916839 0.526191 0.319024 -0.141256
C18   C     C_R   0.918243 0.526951 0.268923 -0.059563
C19   C     C_R   0.004373 0.502069 0.253857 0.240437
C20   C     C_R   0.902199 0.432875 0.973178 0.018340
C21   C     C_R   0.005730 0.512012 0.948249 0.034253
C22   C     C_R   0.109278 0.589384 0.974032 0.018211
C23   C     C_R   0.007254 0.515160 0.745067 0.239505
C24   C     C_R   0.799143 0.362210 0.945060 -0.139450
C25   C     C_R   0.211635 0.661943 0.897973 -0.111104
C26   C     C_R   0.202775 0.672929 0.051245 -0.139900
C27   C     C_R   0.200952 0.671111 0.101255 -0.112288
C28   C     C_R   0.000642 0.500256 0.407651 0.540945
C29   C     C_R   0.212121 0.662276 0.947951 -0.139727
C30   C     C_R   0.288444 0.020157 0.435477 -0.150246
C31   C     C_R   0.227259 0.836122 0.489148 -0.000268
C32   C     C_R   0.804750 0.100834 0.564950 0.251065
C33   C     C_R   0.713905 0.004740 0.589349 -0.126701
C34   C     C_R   0.005763 0.513663 0.896914 -0.026987
C35   C     C_R   0.593324 0.970332 0.570406 -0.101012
C36   C     C_R   0.559212 0.021586 0.523034 0.040175
C37   C     C_R   0.650986 0.120983 0.498475 -0.030581
C38   C     C_R   0.436930 0.981197 0.500003 0.074571
C39   C     C_R   0.408063 0.051250 0.457062 0.006922
C40   C     C_R   0.904806 0.442432 0.819853 0.399689
C41   C     C_R   0.499516 0.148537 0.433966 -0.127991
C42   C     C_R   0.619414 0.178682 0.452637 -0.118718
C43   C     C_R   0.343729 0.871565 0.515840 0.213822
C44   C     C_R   0.198382 0.913420 0.451606 -0.164189
C45   C     C_R   0.902635 0.439998 0.870421 0.023728
C46   C     C_R   0.772295 0.163998 0.521033 0.048065
C47   C     C_R   0.304268 0.282787 0.548961 -0.139642
C48   C     C_R   0.769546 0.659671 0.438506 0.400203
C49   C     C_R   0.679926 0.701332 0.428895 -0.147157
C50   C     C_R   0.573281 0.641292 0.451704 -0.160324
C51   C     C_R   0.551112 0.535574 0.483236 -0.034639
C52   C     C_R   0.107425 0.588438 0.821359 0.396934
C53   C     C_R   0.645020 0.495273 0.493498 0.139580
C54   C     C_R   0.438141 0.467558 0.504708 -0.007017
C55   C     C_R   0.410680 0.351619 0.525846 0.014386
C56   C     C_R   0.799725 0.365690 0.894793 -0.110865
C57   C     C_R   0.493462 0.306849 0.527108 -0.128960
C58   C     C_R   0.614205 0.381677 0.521786 0.124279
C59   C     C_R   0.349557 0.507853 0.505569 0.063374
C60   C     C_R   0.224555 0.328931 0.550965 0.051213
C61   C     C_R   0.934424 0.556036 0.708794 -0.050675
C62   C     C_R   0.933204 0.552956 0.658890 -0.126633
C63   C     C_R   0.078380 0.468567 0.681284 -0.132337
C64   C     C_R   0.108994 0.588802 0.871962 0.024937
C65   C     C_R   0.004456 0.508291 0.644732 0.015832
C66   C     C_R   0.001905 0.500659 0.354747 0.002858
Cu1   Cu    Cu3+1 0.098270 0.475420 0.511360 0.987189
Cu2   Cu    Cu3+1 0.901730 0.524580 0.488640 1.026894
H1    H     H_    0.134262 0.433769 0.671467 0.143586
H2    H     H_    0.478715 0.198968 0.399881 0.119017
H3    H     H_    0.266038 0.075429 0.403780 0.124566
H4    H     H_    0.135810 0.439913 0.759088 0.134597
H5    H     H_    0.529636 0.907564 0.595517 0.193463
H6    H     H_    0.735644 0.960430 0.625126 0.114906
H7    H     H_    0.687280 0.249503 0.430987 0.135676
H8    H     H_    0.141502 0.275142 0.567969 0.186385
H9    H     H_    0.469970 0.217356 0.543839 0.140539
H10   H     H_    0.283606 0.194182 0.566026 0.110380
H11   H     H_    0.360078 0.592970 0.487513 0.139540
H12   H     H_    0.878659 0.589962 0.719359 0.134392
H13   H     H_    0.718578 0.309439 0.875065 0.167775
H14   H     H_    0.506682 0.676387 0.441915 0.119701
H15   H     H_    0.692195 0.780303 0.403155 0.101477
H16   H     H_    0.154894 0.455823 0.366061 0.133993
H17   H     H_    0.155926 0.456834 0.277848 0.132157
H18   H     H_    0.735468 0.274755 0.122597 0.166764
H19   H     H_    0.732101 0.275307 0.037110 0.111231
H20   H     H_    0.715047 0.304262 0.960470 0.111547
H21   H     H_    0.876332 0.585222 0.631460 0.148451
H22   H     H_    0.298455 0.750566 0.572782 0.329892
H23   H     H_    0.292760 0.719486 0.879793 0.167923
H24   H     H_    0.929939 0.087094 0.616879 0.318651
H25   H     H_    0.870441 0.785383 0.391327 0.289646
H26   H     H_    0.279964 0.741715 0.034223 0.110925
H27   H     H_    0.849378 0.545871 0.329690 0.147895
H28   H     H_    0.276541 0.735873 0.119701 0.165995
H29   H     H_    0.852610 0.547221 0.241706 0.134229
H30   H     H_    0.296055 0.719514 0.965223 0.111670
H31   H     H_    0.108918 0.887397 0.431523 0.164104
I1    I     I_    0.698505 0.329793 0.591250 -0.336107
N1    N     N_R   0.006348 0.515750 0.796494 -0.398960
N2    N     N_R   0.005470 0.502864 0.202257 -0.397222
N3    N     N_R   0.246290 0.438210 0.528570 -0.243431
N4    N     N_R   0.754320 0.561170 0.471730 -0.204106
O1    O     O_R   0.972510 0.318140 0.514280 -0.459848
O2    O     O_R   0.082990 0.479230 0.439860 -0.517535
O3    O     O_R   0.917010 0.520730 0.420680 -0.466193
O4    O     O_2   0.806756 0.371246 0.794319 -0.484943
O5    O     O_3   0.369446 0.794018 0.553179 -0.717988
O6    O     O_3   0.923337 0.140845 0.586153 -0.706457
O7    O     O_3   0.873138 0.716323 0.414162 -0.666037
O8    O     O_2   0.817195 0.341236 0.204068 -0.501259
O9    O     O_2   0.205774 0.660527 0.797091 -0.496754
O10   O     O_2   0.193982 0.664154 0.201898 -0.499121
O11   O     O_R   0.806530 0.359640 0.495100 -0.509813
O12   O     O_R   0.082990 0.479270 0.579320 -0.497865
O13   O     O_R   0.917010 0.520770 0.560140 -0.484693
O14   O     O_R   0.193470 0.640360 0.504900 -0.486389
O15   O     O_R   0.027490 0.681860 0.485720 -0.454584

loop_
_geom_bond_atom_site_label_1
_geom_bond_atom_site_label_2
_ccdc_geom_bond_type
C10   C27   A    
C26   H26   S    
C63   C65   A    
C8    C13   A    
C22   C29   A    
C41   C42   A    
C35   C36   A    
C30   H3    S    
Cu1   N3    S    
C7    C8    A    
C39   C41   A    
C23   N1    S    
C52   O9    S    
C16   C31   S    
C12   C23   A    
C17   C66   A    
C32   O6    S    
C29   H30   S    
C36   C37   A    
C13   O8    S    
Cu2   O15   S    
C4    C65   S    
C19   N2    S    
C1    C46   S    
C7    H18   S    
C53   N4    A    
C48   N4    A    
C62   H21   S    
C18   C19   A    
C37   C42   A    
C11   O10   S    
C20   C24   A    
C40   N1    A    
C63   H1    S    
C45   C56   A    
C28   O2    A    
C8    C9    A    
C17   H27   S    
Cu2   O3    S    
C60   N3    A    
C9    C10   A    
C40   O4    S    
C12   H4    S    
C21   C22   A    
C30   C44   A    
C27   H28   S    
C2    C6    A    
C50   C51   A    
C54   C59   A    
C25   C29   A    
C40   C45   A    
C52   N1    A    
C25   H23   S    
C31   C44   A    
C2    C20   A    
Cu1   Cu2   S    
C57   H9    S    
C56   H13   S    
C58   I1    S    
C52   C64   A    
C16   O15   A    
C59   H11   S    
C61   H12   S    
C12   C63   A    
Cu1   O1    S    
C43   O5    S    
C21   C34   A    
C15   C66   A    
C60   H8    S    
C6    H19   S    
C51   C53   A    
C25   C64   A    
C28   C66   S    
Cu1   O12   S    
C5    C9    A    
C16   O14   A    
Cu2   O13   S    
C34   C64   A    
C17   C18   A    
C42   H7    S    
C34   C45   A    
C24   H20   S    
C6    C7    A    
C31   C43   A    
H25   O7    S    
C48   C49   A    
C18   H29   S    
C55   C57   A    
C26   C27   A    
C4    O13   A    
C2    C5    A    
C47   C60   A    
C50   H14   S    
C47   C55   A    
C54   C55   A    
C35   H5    S    
C62   C65   A    
C32   C46   A    
C14   C19   A    
C4    O12   A    
C3    C26   A    
Cu2   N4    S    
C14   H17   S    
C3    C5    A    
C53   C58   A    
Cu1   O2    S    
C15   H16   S    
C24   C56   A    
C1    O11   A    
C47   H10   S    
C51   C54   A    
C59   N3    A    
C32   C33   A    
C49   H15   S    
C36   C38   A    
C13   N2    A    
C38   C43   A    
H24   O6    S    
C57   C58   A    
C38   C39   A    
C33   C35   A    
C30   C39   A    
C11   N2    A    
C61   C62   A    
Cu1   O14   S    
C44   H31   S    
C10   C11   A    
Cu2   O11   S    
C33   H6    S    
C23   C61   A    
C48   O7    S    
C20   C21   A    
C49   C50   A    
C14   C15   A    
C3    C22   A    
C28   O3    A    
H22   O5    S    
C37   C46   A    
C1    O1    A    
C41   H2    S    
