data_mof_unit_36729.cif
_audit_creation_date              2012-12-10T19:00:15-0500
_audit_creation_method            fapswitch 2.2
_symmetry_space_group_name_H-M    P1
_symmetry_Int_Tables_number       1
_space_group_crystal_system       triclinic
_cell_length_a                    9.711561
_cell_length_b                    10.987915
_cell_length_c                    13.511773
_cell_angle_alpha                 93.195394
_cell_angle_beta                  75.48163
_cell_angle_gamma                 89.721325
_cell_volume                      1393.36209117

loop_
_atom_site_label
_atom_site_type_symbol
_atom_type_description
_atom_site_fract_x
_atom_site_fract_y
_atom_site_fract_z
_atom_type_partial_charge
C1    C     C_R   0.500950 0.736625 0.497758 0.796227
C2    C     C_R   0.437566 0.557375 0.979143 -0.015275
C3    C     C_R   0.481187 0.554241 0.871423 -0.038053
C4    C     C_R   0.542037 0.534485 0.033666 0.013093
C5    C     C_R   0.684217 0.505920 0.977706 0.038440
C6    C     C_R   0.725401 0.524585 0.873051 0.371792
C7    C     C_R   0.624574 0.571591 0.826847 -0.073611
C8    C     C_R   0.509752 0.533643 0.140560 -0.225356
C9    C     C_R   0.749117 0.463087 0.133718 -0.185769
C10   C     C_R   0.380591 0.542985 0.811973 -0.147831
C11   C     C_R   0.389311 0.940458 0.552388 -0.018376
C12   C     C_R   0.424290 0.512271 0.699080 0.822223
C13   C     C_R   0.504056 0.869283 0.496096 -0.060109
C14   C     C_R   0.624309 0.929307 0.440345 -0.205304
C15   C     C_R   0.622866 0.057300 0.436813 -0.248337
C16   C     C_R   0.506824 0.128396 0.495104 -0.079544
C17   C     C_R   0.391558 0.066926 0.550408 0.001843
C18   C     C_3   0.241178 0.072552 0.544088 0.393585
C19   C     C_3   0.234052 0.935856 0.555708 -0.312492
C20   C     C_R   0.938082 0.398499 0.469563 0.033568
C21   C     C_R   0.910905 0.594665 0.543499 -0.160420
C22   C     C_R   0.057099 0.590012 0.552457 0.614226
C23   C     C_R   0.502373 0.262458 0.496031 0.777518
C24   C     C_R   0.085660 0.404172 0.459387 0.064531
C25   C     C_3   0.118260 0.345239 0.353501 0.270090
C26   C     C_3   0.959003 0.321824 0.371897 0.249420
C27   C     C_R   0.574607 0.498970 0.301686 0.771792
C28   C     C_R   0.784512 0.465771 0.027957 -0.093883
C29   C     C_R   0.612499 0.498960 0.190342 -0.053849
C30   C     C_R   0.235745 0.561886 0.861932 -0.259374
C31   C     C_R   0.193469 0.590905 0.968033 0.516155
C32   C     C_R   0.293091 0.583734 0.026158 -0.245551
Cu1   Cu    Cu3+1 0.359330 0.500020 0.500010 1.035878
Cu2   Cu    Cu3+1 0.640670 0.499980 0.499990 0.959929
H1    H     H_    0.828894 0.433693 0.171069 0.156548
H2    H     H_    0.707588 0.099748 0.383601 0.215541
H3    H     H_    0.174000 0.912455 0.632404 0.144480
H4    H     H_    0.845563 0.674405 0.571010 0.177451
H5    H     H_    0.187219 0.264732 0.343627 0.170693
H6    H     H_    0.908723 0.362199 0.315794 0.142757
H7    H     H_    0.891325 0.438400 0.985824 0.207679
H8    H     H_    0.405659 0.560230 0.186831 0.196909
H9    H     H_    0.155717 0.556509 0.818786 0.213166
H10   H     H_    0.254102 0.601082 0.107693 0.184506
H11   H     H_    0.715297 0.877176 0.394560 0.169819
N1    N     N_R   0.852320 0.499070 0.499340 -0.218800
N2    N     N_R   0.148230 0.499110 0.499340 -0.208933
O1    O     O_R   0.381190 0.680360 0.500000 -0.533210
O2    O     O_R   0.618780 0.680320 0.499990 -0.581069
O3    O     O_R   0.323230 0.500000 0.650990 -0.552365
O4    O     O_R   0.560820 0.499960 0.650980 -0.590093
O5    O     O_R   0.381220 0.319680 0.500010 -0.560404
O6    O     O_R   0.618810 0.319640 0.500000 -0.587958
O7    O     O_R   0.439180 0.500040 0.349020 -0.558198
O8    O     O_R   0.676770 0.500000 0.349010 -0.590249
C33   C     C_1   0.155148 0.140976 0.635232 0.173155
N3    N     N_1   0.088943 0.192533 0.708733 -0.343220
O9    O     O_3   0.217303 0.113109 0.450969 -0.600365
C34   C     C_3   0.317415 0.073417 0.357945 -0.297438
H12   H     H_    0.381160 0.990887 0.361264 0.170462
H13   H     H_    0.391528 0.148026 0.330897 0.157531
H14   H     H_    0.258575 0.052713 0.298642 0.187250
C35   C     C_1   0.193160 0.864566 0.471806 0.412888
N4    N     N_1   0.160844 0.809415 0.405899 -0.287997
O10   O     O_3   0.113816 0.675866 0.609922 -0.556506
C36   C     C_3   0.010899 0.738573 0.688481 -0.421687
H15   H     H_    0.064340 0.780246 0.745176 0.182610
H16   H     H_    0.931891 0.677438 0.730376 0.230611
H17   H     H_    0.958677 0.812392 0.657339 0.176613
O11   O     O_3   0.164700 0.428023 0.276539 -0.573086
C37   C     C_3   0.180649 0.366199 0.179141 -0.383701
H18   H     H_    0.145874 0.269446 0.180194 0.153716
H19   H     H_    0.293980 0.366133 0.136329 0.198101
H20   H     H_    0.116102 0.414883 0.136283 0.210950
O12   O     O_3   0.865753 0.507431 0.819903 -0.627812
C38   C     C_3   0.874787 0.409273 0.746930 -0.325869
H21   H     H_    0.804477 0.422454 0.694867 0.184090
H22   H     H_    0.848886 0.322415 0.785431 0.189868
H23   H     H_    0.985305 0.403081 0.698710 0.214136
O13   O     O_3   0.931525 0.194581 0.379629 -0.610472
C39   C     C_3   0.906657 0.152853 0.480133 -0.240598
H24   H     H_    0.983268 0.187618 0.521872 0.183898
H25   H     H_    0.914767 0.051838 0.475046 0.197550
H26   H     H_    0.799630 0.180604 0.526959 0.181291
O14   O     O_3   0.052833 0.614622 0.019114 -0.591516
C40   C     C_3   0.002241 0.719131 0.982324 -0.303961
H27   H     H_    0.975816 0.696617 0.908412 0.186328
H28   H     H_    0.078690 0.795434 0.975129 0.152687
H29   H     H_    0.902305 0.751225 0.037800 0.196514
C41   C     C_1   0.656329 0.678070 0.767818 0.253917
N5    N     N_1   0.675561 0.766130 0.723573 -0.335381

loop_
_geom_bond_atom_site_label_1
_geom_bond_atom_site_label_2
_ccdc_geom_bond_type
C36   H16   S    
C31   O14   S    
C27   C29   S    
C38   H23   S    
C4    C8    A    
C12   O4    A    
C39   H24   S    
C23   O5    A    
C27   O7    A    
C6    O12   S    
O14   C40   S    
Cu1   O5    S    
C11   C19   S    
Cu2   O4    S    
Cu1   O3    S    
C8    C29   A    
C38   H22   S    
C3    C7    A    
C30   C31   A    
C27   O8    A    
C36   H17   S    
C15   C16   A    
C28   H7    S    
C33   N3    T    
C2    C32   A    
C18   C19   S    
C19   H3    S    
C18   O9    S    
C21   H4    S    
C20   C24   A    
C19   C35   S    
C16   C17   A    
Cu2   O2    S    
O11   C37   S    
Cu2   N1    S    
C18   C33   S    
C22   N2    A    
Cu2   O8    S    
C13   C14   A    
C39   H25   S    
C23   O6    A    
C14   H11   S    
C34   H13   S    
C38   H21   S    
C37   H19   S    
C40   H27   S    
O13   C39   S    
C25   C26   S    
C7    C41   S    
C26   O13   S    
C2    C4    A    
O12   C38   S    
C22   O10   S    
C5    C28   A    
C10   C30   A    
C31   C32   A    
C17   C18   S    
C32   H10   S    
C24   C25   S    
C10   C12   S    
C16   C23   S    
Cu1   N2    S    
C30   H9    S    
C1    C13   S    
C15   H2    S    
C39   H26   S    
C21   N1    A    
Cu1   O7    S    
C11   C17   A    
C34   H14   S    
C24   N2    A    
C8    H8    S    
C4    C5    A    
C40   H29   S    
C37   H20   S    
C12   O3    A    
C1    O1    A    
C6    C7    A    
C9    C29   A    
C2    C3    A    
O9    C34   S    
C37   H18   S    
C3    C10   A    
C25   H5    S    
C11   C13   A    
C26   H6    S    
C41   N5    T    
C5    C6    A    
C20   C26   S    
Cu1   Cu2   S    
C36   H15   S    
C40   H28   S    
C35   N4    T    
C34   H12   S    
Cu2   O6    S    
O10   C36   S    
C9    H1    S    
Cu1   O1    S    
C14   C15   A    
C25   O11   S    
C21   C22   A    
C1    O2    A    
C20   N1    A    
C9    C28   A    
