data_mof_unit_13331.cif
_audit_creation_date              2012-12-11T14:38:18-0500
_audit_creation_method            fapswitch 2.2
_symmetry_space_group_name_H-M    P1
_symmetry_Int_Tables_number       1
_space_group_crystal_system       triclinic
_cell_length_a                    19.53494
_cell_length_b                    11.178712
_cell_length_c                    19.724155
_cell_angle_alpha                 90.000055
_cell_angle_beta                  95.770045
_cell_angle_gamma                 90.000119
_cell_volume                      4285.44838846

loop_
_atom_site_label
_atom_site_type_symbol
_atom_type_description
_atom_site_fract_x
_atom_site_fract_y
_atom_site_fract_z
_atom_type_partial_charge
C1    C     C_R   0.724719 0.954298 0.360488 0.529352
C2    C     C_3   0.174285 0.460997 0.470289 -0.041529
C3    C     C_2   0.609534 0.885413 0.451481 0.597088
C4    C     C_3   0.325716 0.961000 0.529711 -0.041529
C5    C     C_3   0.674285 0.961005 0.470289 -0.041529
C6    C     C_3   0.747152 0.292793 0.555567 -0.261233
C7    C     C_3   0.252846 0.292795 0.444433 -0.261234
C8    C     C_3   0.247154 0.792796 0.555567 -0.261235
C9    C     C_3   0.752843 0.792797 0.444433 -0.261238
C10   C     C_3   0.760057 0.424757 0.567101 0.001135
C11   C     C_3   0.239943 0.424760 0.432899 0.001134
C12   C     C_3   0.260057 0.924761 0.567101 0.001134
C13   C     C_R   0.275281 0.954297 0.639513 0.529351
C14   C     C_3   0.739942 0.924763 0.432899 0.001136
C15   C     C_3   0.739251 0.391979 0.435675 0.039730
C16   C     C_3   0.260750 0.391980 0.564325 0.039728
C17   C     C_3   0.239251 0.891981 0.435675 0.039726
C18   C     C_3   0.760749 0.891982 0.564325 0.039720
C19   C     C_3   0.809571 0.453310 0.452747 -0.244867
C20   C     C_3   0.190431 0.453314 0.547253 -0.244868
C21   C     C_3   0.309569 0.953318 0.452746 -0.244869
C22   C     C_3   0.690432 0.953326 0.547254 -0.244878
C23   C     C_3   0.731282 0.275052 0.477856 -0.215948
C24   C     C_R   0.224719 0.454296 0.360487 0.529351
C25   C     C_3   0.268715 0.275053 0.522144 -0.215951
C26   C     C_3   0.231287 0.775054 0.477856 -0.215952
C27   C     C_3   0.768705 0.775054 0.522144 -0.215963
C28   C     C_3   0.493989 0.308092 0.961644 -0.017641
C29   C     C_3   0.506011 0.308092 0.038356 -0.017641
C30   C     C_3   0.993989 0.808092 0.961644 -0.017641
C31   C     C_3   0.006011 0.808092 0.038356 -0.017641
C32   C     C_3   0.427745 0.114083 0.969575 -0.247963
C33   C     C_3   0.572255 0.114083 0.030425 -0.247963
C34   C     C_3   0.927745 0.614083 0.969575 -0.247963
C35   C     C_R   0.775281 0.454295 0.639513 0.529350
C36   C     C_3   0.072255 0.614083 0.030425 -0.247963
C37   C     C_3   0.553822 0.107768 0.952542 -0.247678
C38   C     C_3   0.446178 0.107767 0.047458 -0.247678
C39   C     C_3   0.053822 0.607768 0.952542 -0.247678
C40   C     C_3   0.946178 0.607767 0.047458 -0.247678
C41   C     C_R   0.535704 0.180472 0.338392 0.552985
C42   C     C_R   0.464296 0.180472 0.661608 0.552985
C43   C     C_R   0.035704 0.680472 0.338392 0.552986
C44   C     C_R   0.964296 0.680472 0.661608 0.552986
C45   C     C_3   0.486287 0.176636 0.933944 0.038780
C46   C     C_3   0.684299 0.481567 0.458171 -0.034503
C47   C     C_3   0.513713 0.176636 0.066056 0.038780
C48   C     C_3   0.986287 0.676636 0.933944 0.038780
C49   C     C_3   0.013713 0.676636 0.066056 0.038780
C50   C     C_1   0.763028 0.430377 0.905325 0.021427
C51   C     C_1   0.236971 0.430377 0.094675 0.021427
C52   C     C_1   0.263028 0.930377 0.905325 0.021427
C53   C     C_1   0.736971 0.930377 0.094675 0.021427
C54   C     C_1   0.750064 0.408238 0.035440 -0.023427
C55   C     C_1   0.249936 0.408238 0.964560 -0.023427
C56   C     C_1   0.250064 0.908238 0.035440 -0.023427
C57   C     C_3   0.315703 0.481565 0.541829 -0.034501
C58   C     C_1   0.749936 0.908238 0.964560 -0.023427
C59   C     C_1   0.755908 0.419058 0.964972 -0.012119
C60   C     C_1   0.244091 0.419058 0.035028 -0.012119
C61   C     C_1   0.255908 0.919058 0.964972 -0.012119
C62   C     C_1   0.744091 0.919058 0.035028 -0.012119
C63   C     C_1   0.744883 0.392621 0.095150 0.001830
C64   C     C_1   0.255117 0.392621 0.904850 0.001830
C65   C     C_1   0.244883 0.892621 0.095150 0.001830
C66   C     C_1   0.755117 0.892621 0.904850 0.001830
C67   C     C_R   0.736083 0.357006 0.363221 0.543393
C68   C     C_3   0.184296 0.981564 0.458171 -0.034498
C69   C     C_R   0.263917 0.357006 0.636779 0.543392
C70   C     C_R   0.236083 0.857006 0.363221 0.543391
C71   C     C_R   0.763917 0.857007 0.636779 0.543390
C72   C     C_R   0.722091 0.955185 0.162921 0.544994
C73   C     C_R   0.277909 0.955185 0.837079 0.544993
C74   C     C_R   0.222091 0.455185 0.162921 0.544993
C75   C     C_R   0.777909 0.455185 0.837079 0.544993
C76   C     C_R   0.534286 0.179871 0.140106 0.547138
C77   C     C_R   0.465714 0.179871 0.859894 0.547138
C78   C     C_R   0.034286 0.679871 0.140106 0.547138
C79   C     C_3   0.815706 0.981560 0.541828 -0.034493
C80   C     C_R   0.965714 0.679871 0.859894 0.547138
C81   C     C_R   0.736320 0.357804 0.163692 0.541065
C82   C     C_R   0.263680 0.357804 0.836307 0.541066
C83   C     C_R   0.236320 0.857804 0.163692 0.541065
C84   C     C_R   0.763680 0.857804 0.836307 0.541066
C85   C     C_1   0.486230 0.173771 0.594494 0.052901
C86   C     C_1   0.513769 0.173772 0.405506 0.052903
C87   C     C_1   0.986231 0.673770 0.594494 0.052905
C88   C     C_1   0.013770 0.673771 0.405506 0.052905
C89   C     C_1   0.503866 0.171084 0.464827 0.000835
C90   C     C_3   0.825716 0.460993 0.529712 -0.041528
C91   C     C_1   0.496134 0.171084 0.535173 0.000834
C92   C     C_1   0.003867 0.671082 0.464827 0.000841
C93   C     C_1   0.996134 0.671081 0.535173 0.000842
C94   C     C_3   0.690314 0.483914 0.536377 -0.225591
C95   C     C_3   0.309686 0.483916 0.463623 -0.225590
C96   C     C_3   0.190314 0.983916 0.536377 -0.225589
C97   C     C_3   0.809687 0.983914 0.463623 -0.225587
C98   C     C_2   0.890466 0.385399 0.548523 0.597087
C99   C     C_2   0.109534 0.385405 0.451478 0.597088
C100  C     C_2   0.390466 0.885407 0.548521 0.597087
Cr1   Cr    Cr6+3 0.765780 0.160710 0.267420 1.059012
Cr2   Cr    Cr6+3 0.383970 0.323720 0.751490 1.080052
Cr3   Cr    Cr6+3 0.116030 0.823720 0.248510 1.080051
Cr4   Cr    Cr6+3 0.883970 0.823720 0.751490 1.080051
Cr5   Cr    Cr6+3 0.234220 0.160710 0.732580 1.059012
Cr6   Cr    Cr6+3 0.265780 0.660710 0.267420 1.059013
Cr7   Cr    Cr6+3 0.734220 0.660710 0.732580 1.059013
Cr8   Cr    Cr6+3 0.612200 0.009560 0.248850 1.070834
Cr9   Cr    Cr6+3 0.387800 0.009560 0.751150 1.070834
Cr10  Cr    Cr6+3 0.112200 0.509560 0.248850 1.070833
Cr11  Cr    Cr6+3 0.887800 0.509560 0.751150 1.070832
Cr12  Cr    Cr6+3 0.616030 0.323720 0.248510 1.080052
H1    H     H_    0.676371 0.571004 0.556239 0.170855
H2    H     H_    0.148649 0.407426 0.571728 0.193367
H3    H     H_    0.351350 0.907432 0.428271 0.193366
H4    H     H_    0.648650 0.907444 0.571730 0.193362
H5    H     H_    0.445329 0.357541 0.947024 0.186145
H6    H     H_    0.554671 0.357541 0.052977 0.186145
H7    H     H_    0.945329 0.857541 0.947024 0.186145
H8    H     H_    0.054671 0.857541 0.052977 0.186145
H9    H     H_    0.378627 0.164179 0.958380 0.124056
H10   H     H_    0.621373 0.164180 0.041619 0.124056
H11   H     H_    0.878627 0.664179 0.958380 0.124056
H12   H     H_    0.323629 0.571007 0.443763 0.170863
H13   H     H_    0.121373 0.664180 0.041619 0.124056
H14   H     H_    0.403688 0.145745 0.074192 0.152402
H15   H     H_    0.596312 0.145746 0.925807 0.152402
H16   H     H_    0.903688 0.645745 0.074192 0.152402
H17   H     H_    0.096312 0.645746 0.925807 0.152402
H18   H     H_    0.547440 0.012711 0.936349 0.140741
H19   H     H_    0.452560 0.012710 0.063651 0.140741
H20   H     H_    0.047440 0.512711 0.936349 0.140741
H21   H     H_    0.952560 0.512710 0.063651 0.140741
H22   H     H_    0.581179 0.021649 0.050335 0.151789
H23   H     H_    0.176371 0.071009 0.556236 0.170864
H24   H     H_    0.418821 0.021649 0.949664 0.151790
H25   H     H_    0.081179 0.521649 0.050335 0.151790
H26   H     H_    0.918821 0.521648 0.949664 0.151790
H27   H     H_    0.647211 0.430478 0.553765 0.164062
H28   H     H_    0.352789 0.430480 0.446233 0.164063
H29   H     H_    0.147211 0.930481 0.553768 0.164065
H30   H     H_    0.852788 0.930477 0.446229 0.164065
H31   H     H_    0.696453 0.569139 0.439309 0.137986
H32   H     H_    0.303551 0.569137 0.560693 0.137993
H33   H     H_    0.196446 0.069136 0.439306 0.137995
H34   H     H_    0.823630 0.071008 0.443764 0.170866
H35   H     H_    0.803559 0.069132 0.560693 0.138002
H36   H     H_    0.339297 0.054493 0.543344 0.081157
H37   H     H_    0.660704 0.054497 0.456656 0.081155
H38   H     H_    0.839299 0.554485 0.543344 0.081164
H39   H     H_    0.160703 0.554490 0.456657 0.081159
H40   H     H_    0.308928 0.044783 0.430518 0.068115
H41   H     H_    0.691076 0.044791 0.569482 0.068118
H42   H     H_    0.808933 0.544774 0.430519 0.068116
H43   H     H_    0.191070 0.544779 0.569482 0.068116
H44   H     H_    0.792674 0.244661 0.578008 0.178493
H45   H     H_    0.764706 0.207292 0.461589 0.157799
H46   H     H_    0.207324 0.244665 0.421992 0.178495
H47   H     H_    0.292677 0.744667 0.578009 0.178493
H48   H     H_    0.707320 0.744670 0.421988 0.178493
H49   H     H_    0.703518 0.260207 0.582799 0.101899
H50   H     H_    0.296480 0.260207 0.417201 0.101901
H51   H     H_    0.203519 0.760208 0.582798 0.101903
H52   H     H_    0.796478 0.760207 0.417204 0.101905
H53   H     H_    0.677396 0.243796 0.467239 0.121615
H54   H     H_    0.322600 0.243793 0.532761 0.121614
H55   H     H_    0.177403 0.743788 0.467237 0.121612
H56   H     H_    0.235289 0.207298 0.538410 0.157805
H57   H     H_    0.822584 0.743772 0.532766 0.121608
H58   H     H_    0.942822 0.233328 0.534800 0.366480
H59   H     H_    0.057176 0.233335 0.465202 0.366481
H60   H     H_    0.442823 0.733337 0.534795 0.366480
H61   H     H_    0.557175 0.733345 0.465208 0.366481
H62   H     H_    0.264717 0.707304 0.461591 0.157816
H63   H     H_    0.735263 0.707320 0.538405 0.157846
H64   H     H_    0.851351 0.407419 0.428274 0.193368
I1    I     I_    0.573388 0.412915 0.919178 -0.380044
I2    I     I_    0.426611 0.412913 0.080822 -0.380044
I3    I     I_    0.073388 0.912915 0.919178 -0.380045
I4    I     I_    0.926612 0.912913 0.080822 -0.380044
I5    I     I_    0.576882 0.470619 0.424166 -0.348623
I6    I     I_    0.423120 0.470612 0.575831 -0.348630
I7    I     I_    0.076879 0.970608 0.424170 -0.348627
I8    I     I_    0.923122 0.970597 0.575827 -0.348632
O1    O     O_R   0.783100 0.287550 0.345460 -0.521489
O2    O     O_R   0.454350 0.284910 0.836260 -0.491163
O3    O     O_R   0.045650 0.784910 0.163740 -0.491164
O4    O     O_R   0.954350 0.784910 0.836260 -0.491164
O5    O     O_R   0.677950 0.374280 0.185410 -0.494456
O6    O     O_R   0.322050 0.374280 0.814590 -0.494457
O7    O     O_R   0.177950 0.874280 0.185410 -0.494457
O8    O     O_R   0.822050 0.874280 0.814590 -0.494457
O9    O     O_3   0.664670 0.164660 0.254930 -0.289513
O10   O     O_3   0.335330 0.164660 0.745070 -0.289513
O11   O     O_3   0.164670 0.664660 0.254930 -0.289512
O12   O     O_R   0.216900 0.287550 0.654540 -0.521488
O13   O     O_3   0.835330 0.664660 0.745070 -0.289511
O14   O     O_R   0.760020 0.037400 0.337700 -0.518741
O15   O     O_R   0.239980 0.037400 0.662300 -0.518741
O16   O     O_R   0.260020 0.537400 0.337700 -0.518741
O17   O     O_R   0.739980 0.537400 0.662300 -0.518740
O18   O     O_R   0.666600 0.921990 0.332020 -0.481522
O19   O     O_R   0.333400 0.921990 0.667980 -0.481521
O20   O     O_R   0.166600 0.421990 0.332020 -0.481522
O21   O     O_R   0.833400 0.421990 0.667980 -0.481523
O22   O     O_R   0.557260 0.082670 0.312540 -0.458900
O23   O     O_R   0.283100 0.787550 0.345460 -0.521488
O24   O     O_R   0.442740 0.082670 0.687460 -0.458901
O25   O     O_R   0.057260 0.582670 0.312540 -0.458902
O26   O     O_R   0.942740 0.582670 0.687460 -0.458904
O27   O     O_R   0.548410 0.285740 0.316480 -0.475178
O28   O     O_R   0.451590 0.285740 0.683520 -0.475177
O29   O     O_R   0.048410 0.785740 0.316480 -0.475177
O30   O     O_R   0.951590 0.785740 0.683520 -0.475175
O31   O     O_R   0.680500 0.375040 0.327000 -0.473422
O32   O     O_R   0.319500 0.375040 0.673000 -0.473423
O33   O     O_R   0.180500 0.875040 0.327000 -0.473424
O34   O     O_R   0.716900 0.787550 0.654540 -0.521488
O35   O     O_R   0.819500 0.875040 0.673000 -0.473423
O36   O     O_R   0.780350 0.286720 0.192720 -0.498956
O37   O     O_R   0.219650 0.286720 0.807280 -0.498956
O38   O     O_R   0.280350 0.786720 0.192720 -0.498956
O39   O     O_R   0.719650 0.786720 0.807280 -0.498956
O40   O     O_R   0.757470 0.036630 0.196110 -0.481048
O41   O     O_R   0.242530 0.036630 0.803890 -0.481049
O42   O     O_R   0.257470 0.536630 0.196110 -0.481048
O43   O     O_R   0.742530 0.536630 0.803890 -0.481049
O44   O     O_R   0.663840 0.921160 0.179280 -0.513395
O45   O     O_R   0.554710 0.081900 0.170950 -0.513774
O46   O     O_R   0.336160 0.921160 0.820720 -0.513396
O47   O     O_R   0.163840 0.421160 0.179280 -0.513395
O48   O     O_R   0.836160 0.421160 0.820720 -0.513396
O49   O     O_2   0.939572 0.427930 0.583360 -0.491149
O50   O     O_R   0.895857 0.270017 0.522055 -0.715667
O51   O     O_2   0.060429 0.427935 0.416641 -0.491150
O52   O     O_R   0.104142 0.270024 0.477947 -0.715662
O53   O     O_2   0.439570 0.927935 0.583360 -0.491146
O54   O     O_R   0.395858 0.770028 0.522049 -0.715664
O55   O     O_2   0.560429 0.927941 0.416641 -0.491149
O56   O     O_R   0.445290 0.081900 0.829050 -0.513774
O57   O     O_R   0.604141 0.770035 0.477953 -0.715664
O58   O     O_R   0.054710 0.581900 0.170950 -0.513773
O59   O     O_R   0.945290 0.581900 0.829050 -0.513774
O60   O     O_R   0.545650 0.284910 0.163740 -0.491163

loop_
_geom_bond_atom_site_label_1
_geom_bond_atom_site_label_2
_ccdc_geom_bond_type
C95   H12   S    
C58   C62   S    
Cr5   O12   S    
C20   H2    S    
C68   I7    S    
C34   H11   S    
Cr11  O48   S    
C20   H43   S    
C9    H52   S    
C8    C26   S    
C97   H34   S    
C67   O31   A    
C1    O14   A    
C51   C74   S    
C90   H38   S    
C85   C91   T    
Cr3   O7    S    
C71   O35   A    
C28   C45   S    
C82   O37   A    
C13   O15   A    
C49   C78   S    
C7    C11   S    
C41   C86   S    
H58   O50   S    
C95   H28   S    
Cr2   O2    S    
C71   O34   A    
C63   C81   S    
C44   O30   A    
C17   C26   S    
C46   I5    S    
C83   O7    A    
C28   C29   S    
C76   O60   A    
C4    C21   S    
C47   C76   S    
Cr7   O17   S    
C52   C61   T    
C30   C31   S    
C65   C83   S    
C54   C63   T    
C26   H62   S    
C16   C20   S    
C56   C65   T    
C72   O40   A    
Cr4   O13   S    
C87   C93   T    
C11   C24   S    
C2    H39   S    
C5    H37   S    
C37   H18   S    
Cr10  O20   S    
C3    O57   S    
C21   H40   S    
C41   O22   A    
C19   H64   S    
C57   I6    S    
Cr8   O18   S    
C96   H29   S    
C23   H53   S    
C83   O38   A    
C33   H22   S    
C58   C66   T    
H60   O54   S    
C5    C22   S    
C88   C92   T    
C18   C79   S    
Cr4   O8    S    
Cr7   O43   S    
C64   C82   S    
C77   O56   A    
C30   I3    S    
Cr6   O42   S    
C42   O24   A    
C10   C35   S    
Cr5   O41   S    
C89   C91   S    
C44   C87   S    
C5    C14   S    
C36   H25   S    
Cr11  O21   S    
C54   C59   S    
C21   H3    S    
Cr9   O46   S    
H59   O52   S    
C22   H4    S    
Cr12  O5    S    
C17   C70   S    
C55   C60   S    
C82   O6    A    
C94   H27   S    
C69   O32   A    
Cr3   O11   S    
C31   C49   S    
Cr1   O1    S    
C1    O18   A    
Cr2   O10   S    
C73   O46   A    
C38   H14   S    
C94   H1    S    
Cr1   O9    S    
C96   H23   S    
Cr7   O39   S    
Cr8   O45   S    
Cr12  O31   S    
C25   H56   S    
Cr5   O10   S    
Cr4   O4    S    
C7    H50   S    
C26   H55   S    
C36   H13   S    
C16   C69   S    
C2    C20   S    
C70   O33   A    
Cr12  O27   S    
Cr9   O19   S    
Cr3   O3    S    
Cr8   O22   S    
C52   C73   S    
C27   H63   S    
Cr6   O23   S    
C32   H24   S    
Cr1   O14   S    
C35   O17   A    
C79   H35   S    
C39   H17   S    
C9    H48   S    
C35   O21   A    
C70   O23   A    
C81   O36   A    
C66   C84   S    
C34   H26   S    
C69   O12   A    
C33   C37   S    
C13   O19   A    
C86   C89   T    
C97   H30   S    
C4    H36   S    
C79   I8    S    
Cr9   O24   S    
C15   C19   S    
C9    C14   S    
Cr4   O35   S    
C27   H57   S    
C18   C71   S    
Cr7   O34   S    
C99   O51   D    
C53   C62   T    
Cr10  O58   S    
C98   O50   S    
C6    H49   S    
Cr12  O60   S    
C8    C12   S    
C15   C67   S    
C55   C64   T    
C80   O4    A    
C100  O53   D    
C42   C85   S    
C68   C96   S    
C32   C45   S    
C100  O54   S    
Cr12  O9    S    
C81   O5    A    
C38   C47   S    
Cr6   O11   S    
Cr3   O33   S    
Cr9   O10   S    
C67   O1    A    
Cr1   O40   S    
Cr2   O32   S    
C29   C47   S    
C2    C99   S    
Cr6   O16   S    
C77   O2    A    
C29   I2    S    
C4    C100  S    
C57   C95   S    
C33   H10   S    
C33   C47   S    
C34   C40   S    
Cr10  O25   S    
C4    C12   S    
C43   C88   S    
C37   C45   S    
C43   O29   A    
C30   H7    S    
Cr10  O11   S    
C42   O28   A    
C9    C27   S    
C14   C97   S    
Cr7   O13   S    
C28   I1    S    
Cr9   O56   S    
C30   C48   S    
C16   C25   S    
Cr3   O29   S    
C24   O20   A    
C17   C68   S    
Cr11  O59   S    
C46   C94   S    
C57   H32   S    
C18   C22   S    
C32   H9    S    
C79   C97   S    
C36   C39   S    
C18   C27   S    
C74   O47   A    
C3    C5    S    
C84   O39   A    
C6    C10   S    
C45   C77   S    
C8    H51   S    
C46   H31   S    
C1    C14   S    
C25   H54   S    
Cr8   O44   S    
C29   H6    S    
C34   C48   S    
C72   O44   A    
C32   C38   S    
C7    C25   S    
C80   O59   A    
C31   I4    S    
C28   H5    S    
C38   H19   S    
C48   C80   S    
C75   O43   A    
C50   C59   T    
Cr11  O26   S    
C40   H21   S    
C74   O42   A    
C19   C90   S    
C7    H46   S    
C50   C75   S    
Cr11  O13   S    
C73   O41   A    
C99   O52   S    
C8    H47   S    
Cr1   O36   S    
Cr2   O28   S    
Cr6   O38   S    
C98   O49   D    
Cr5   O37   S    
C6    C23   S    
C23   H45   S    
C15   C23   S    
C92   C93   S    
Cr2   O6    S    
C90   C98   S    
C84   O8    A    
C44   O26   A    
C16   C57   S    
C75   O48   A    
C43   O25   A    
C17   C21   S    
C31   H8    S    
C78   O3    A    
Cr10  O47   S    
C36   C49   S    
Cr4   O30   S    
C41   O27   A    
H61   O57   S    
Cr5   O15   S    
C10   C90   S    
C11   C95   S    
C12   C13   S    
C24   O16   A    
C39   H20   S    
C76   O45   A    
C19   H42   S    
C10   C94   S    
C56   C61   S    
C12   C96   S    
C2    C11   S    
C51   C60   T    
C15   C46   S    
Cr8   O9    S    
C53   C72   S    
C78   O58   A    
C6    H44   S    
C68   H33   S    
C40   C49   S    
C3    O55   D    
C39   C48   S    
C37   H15   S    
C22   H41   S    
C40   H16   S    
