data_mof_unit_38783.cif
_audit_creation_date              2012-12-11T15:16:44-0500
_audit_creation_method            fapswitch 2.2
_symmetry_space_group_name_H-M    P1
_symmetry_Int_Tables_number       1
_space_group_crystal_system       triclinic
_cell_length_a                    25.165463
_cell_length_b                    7.231537
_cell_length_c                    21.965613
_cell_angle_alpha                 89.997405
_cell_angle_beta                  110.25734
_cell_angle_gamma                 89.994028
_cell_volume                      3750.15959251

loop_
_atom_site_label
_atom_site_type_symbol
_atom_type_description
_atom_site_fract_x
_atom_site_fract_y
_atom_site_fract_z
_atom_type_partial_charge
O1    O     O_R   0.554350 0.505270 0.581390 -0.526571
O2    O     O_R   0.445650 0.005270 0.418610 -0.526905
O3    O     O_R   0.553380 0.177580 0.454800 -0.549191
O4    O     O_R   0.446620 0.677580 0.545200 -0.549052
C1    C     C_R   0.565541 0.344519 0.438028 0.841646
C2    C     C_R   0.434463 0.844523 0.561977 0.841946
O5    O     O_R   0.560970 0.175640 0.583140 -0.543204
O6    O     O_R   0.439030 0.675640 0.416860 -0.542990
O7    O     O_R   0.453290 0.004120 0.547860 -0.533280
O8    O     O_R   0.546710 0.504120 0.452140 -0.533032
C3    C     C_R   0.576272 0.343977 0.607370 0.825184
C4    C     C_R   0.423735 0.844004 0.392628 0.825305
O9    O     O_3   0.464660 0.338800 0.488280 -0.381818
O10   O     O_3   0.535340 0.838800 0.511720 -0.381642
V1    V     V_3+5 0.506560 0.064420 0.502170 1.516756
V2    V     V_3+5 0.493440 0.564420 0.497830 1.517337
C5    C     C_R   0.146018 0.979180 0.288914 0.679101
C6    C     C_R   0.853885 0.481200 0.711148 0.679085
C7    C     C_R   0.119990 0.942417 0.172714 -0.274357
C8    C     C_R   0.880007 0.442609 0.827280 -0.274294
C9    C     C_R   0.395304 0.816658 0.274525 -0.276700
C10   C     C_R   0.604770 0.315331 0.725436 -0.276492
C11   C     C_R   0.355890 0.815044 0.212007 0.716763
C12   C     C_R   0.644212 0.313132 0.787933 0.716730
C13   C     C_R   0.298748 0.845946 0.201282 -0.172712
C14   C     C_R   0.701329 0.344526 0.798669 -0.172623
C15   C     C_R   0.279109 0.879940 0.253359 -0.024209
C16   C     C_R   0.720911 0.379648 0.746628 -0.024253
C17   C     C_R   0.320072 0.883175 0.317927 -0.144856
C18   C     C_R   0.679915 0.383548 0.682085 -0.144887
C19   C     C_R   0.220182 0.910622 0.243176 -0.021169
C20   C     C_R   0.779815 0.410807 0.756821 -0.021192
C21   C     C_R   0.203540 0.945900 0.297789 -0.347969
C22   C     C_R   0.796396 0.447314 0.702253 -0.347729
C23   C     C_R   0.244423 0.948080 0.360462 0.673329
C24   C     C_R   0.755482 0.450140 0.639606 0.673258
C25   C     C_R   0.301357 0.917048 0.370434 0.485770
C26   C     C_R   0.698574 0.418575 0.629617 0.485878
C27   C     C_R   0.176984 0.908202 0.180611 -0.241851
C28   C     C_R   0.823046 0.407740 0.819358 -0.241957
C29   C     C_R   0.104998 0.978458 0.227038 0.543862
C30   C     C_R   0.894932 0.479908 0.773002 0.544030
C31   C     C_R   0.378593 0.850750 0.327877 -0.131604
C32   C     C_R   0.621421 0.350565 0.672120 -0.131618
H1    H     H_    0.271050 0.842186 0.151410 0.149226
H2    H     H_    0.729053 0.340232 0.848521 0.149204
C33   C     C_R   0.109574 0.774639 0.866847 0.651566
C34   C     C_R   0.890417 0.274626 0.133136 0.651361
C35   C     C_R   0.145683 0.767115 0.830665 -0.209992
C36   C     C_R   0.854308 0.267102 0.169318 -0.209920
C37   C     C_R   0.177945 0.921370 0.825736 -0.298054
C38   C     C_R   0.822061 0.421390 0.174271 -0.298071
C39   C     C_R   0.173370 0.084630 0.858753 0.612442
C40   C     C_R   0.826652 0.584687 0.141281 0.612440
C41   C     C_R   0.137507 0.092633 0.895391 0.523636
C42   C     C_R   0.862513 0.592688 0.104641 0.523832
C43   C     C_R   0.104769 0.937914 0.899962 -0.424426
C44   C     C_R   0.895235 0.437931 0.100043 -0.424443
N1    N     N_R   0.242881 0.061803 0.775302 -0.147537
N2    N     N_R   0.757077 0.561809 0.224657 -0.147482
N3    N     N_R   0.276438 0.051003 0.739930 -0.142752
N4    N     N_R   0.723519 0.551002 0.260027 -0.142720
C45   C     C_R   0.284570 0.887842 0.713666 0.583027
C46   C     C_R   0.715432 0.387840 0.286337 0.582914
N5    N     N_R   0.257321 0.735843 0.724552 -0.145144
N6    N     N_R   0.742726 0.235846 0.275498 -0.145099
N7    N     N_R   0.223700 0.746536 0.759899 -0.227328
N8    N     N_R   0.776348 0.246547 0.240151 -0.227304
C47   C     C_R   0.215728 0.909841 0.786221 0.606294
C48   C     C_R   0.784276 0.409853 0.213786 0.606212
C49   C     C_R   0.328896 0.709235 0.643790 0.669359
C50   C     C_R   0.671103 0.209210 0.356204 0.669406
C51   C     C_R   0.365111 0.699068 0.607638 -0.184530
C52   C     C_R   0.634888 0.199042 0.392355 -0.185150
C53   C     C_R   0.395659 0.854735 0.600060 -0.204717
C54   C     C_R   0.604344 0.354723 0.399944 -0.204877
C55   C     C_R   0.389129 0.021195 0.629739 -0.205267
C56   C     C_R   0.610879 0.521198 0.370277 -0.204768
C57   C     C_R   0.353525 0.032216 0.666434 0.652910
C58   C     C_R   0.646481 0.532221 0.333582 0.652864
C59   C     C_R   0.322612 0.876206 0.674188 -0.264099
C60   C     C_R   0.677390 0.376198 0.325817 -0.264112
O11   O     O_R   0.953220 0.285790 0.047790 -0.505063
O12   O     O_R   0.046780 0.785790 0.952210 -0.505009
O13   O     O_R   0.939020 0.617570 0.916840 -0.534048
O14   O     O_R   0.060980 0.117570 0.083160 -0.534145
C61   C     C_R   0.924041 0.448734 0.892492 0.794753
C62   C     C_R   0.075960 0.948705 0.107504 0.794783
O15   O     O_R   0.946600 0.615450 0.045180 -0.502100
O16   O     O_R   0.053400 0.115450 0.954820 -0.502155
O17   O     O_R   0.054370 0.786770 0.081410 -0.543882
O18   O     O_R   0.945630 0.286770 0.918590 -0.543926
C63   C     C_R   0.934278 0.447006 0.061760 0.795809
C64   C     C_R   0.065723 0.946999 0.938241 0.795906
O19   O     O_3   0.035300 0.454160 0.011680 -0.374721
O20   O     O_3   0.964700 0.954160 0.988320 -0.374693
V3    V     V_3+5 0.993450 0.728620 0.997830 1.683223
V4    V     V_3+5 0.006550 0.228620 0.002170 1.682897
F1    F     F_    0.050141 0.013107 0.220046 -0.582930
F2    F     F_    0.949749 0.515289 0.780022 -0.583027
H3    H     H_    0.147858 0.639426 0.805872 0.249346
H4    H     H_    0.852121 0.139382 0.194089 0.249428
F3    F     F_    0.203888 0.237542 0.856375 -0.583198
F4    F     F_    0.796156 0.737644 0.143689 -0.583216
F5    F     F_    0.135761 0.252478 0.927075 -0.581084
F6    F     F_    0.864276 0.752571 0.072984 -0.580983
F7    F     F_    0.299958 0.554727 0.648435 -0.558080
F8    F     F_    0.700035 0.054683 0.351545 -0.558042
H5    H     H_    0.368858 0.568688 0.585195 0.182913
H6    H     H_    0.631136 0.068649 0.414787 0.182995
H7    H     H_    0.412196 0.143931 0.625325 0.162585
H8    H     H_    0.587816 0.643947 0.374700 0.162598
F9    F     F_    0.350142 0.196490 0.694710 -0.580771
F10   F     F_    0.649870 0.696517 0.305322 -0.580745
F11   F     F_    0.229571 0.980541 0.413372 -0.538141
F12   F     F_    0.770276 0.483781 0.586737 -0.538219
F13   F     F_    0.129000 0.014102 0.340105 -0.524351
F14   F     F_    0.870842 0.517363 0.660005 -0.524504
H9    H     H_    0.186009 0.882339 0.136894 0.143011
H10   H     H_    0.814067 0.380967 0.863040 0.143068
H11   H     H_    0.439458 0.790826 0.281466 0.145098
H12   H     H_    0.560642 0.289010 0.718481 0.145061
F15   F     F_    0.373219 0.782262 0.161004 -0.626954
F16   F     F_    0.626940 0.279227 0.838899 -0.627063
F17   F     F_    0.337870 0.921240 0.432570 -0.670686
F18   F     F_    0.662030 0.423444 0.567505 -0.670477
F19   F     F_    0.078654 0.621752 0.868055 -0.559002
F20   F     F_    0.921322 0.121703 0.131904 -0.558979

loop_
_geom_bond_atom_site_label_1
_geom_bond_atom_site_label_2
_ccdc_geom_bond_type
N6    N8    A    
C45   N5    A    
C49   F7    S    
C15   C17   A    
O1    C3    A    
O2    C4    A    
C2    O7    A    
O19   V4    S    
O18   V4    S    
C2    C53   S    
C33   C35   A    
O5    C3    A    
C52   C54   A    
C41   F5    S    
O12   V3    S    
C40   F4    S    
C23   C25   A    
C44   C63   S    
C12   C14   A    
C4    C31   S    
C6    C30   A    
C35   H3    S    
C8    C28   A    
C56   C58   A    
C33   C43   A    
O11   C63   A    
C8    C61   S    
C12   F16   S    
C18   C26   A    
N2    N4    A    
N3    C45   A    
N4    C46   A    
C9    C31   A    
C10   C32   A    
C50   F8    S    
C42   C44   A    
C35   C37   A    
O11   V4    S    
C55   H7    S    
C36   C38   A    
C29   F1    S    
C23   F11   S    
C6    F14   S    
C22   C24   A    
C5    F13   S    
C34   C36   A    
O6    V2    S    
C61   O18   A    
C17   C31   A    
C9    H11   S    
C51   C53   A    
C18   C32   A    
C5    C21   A    
C26   F18   S    
C38   C40   A    
O16   C64   A    
C25   F17   S    
C39   C41   A    
C9    C11   A    
C40   C42   A    
N1    N3    A    
O13   C61   A    
C15   C19   A    
C16   C20   A    
C38   C48   S    
C58   C60   A    
C7    C62   S    
C49   C51   A    
C11   F15   S    
N5    N7    A    
O15   V3    S    
N7    C47   A    
C20   C22   A    
O4    V2    S    
C30   F2    S    
C34   F20   S    
C53   C55   A    
C62   O17   A    
N2    C48   A    
O6    C4    A    
C46   C60   S    
O20   V3    S    
C19   C21   A    
C55   C57   A    
C3    C32   S    
O1    V2    S    
O12   C64   A    
O17   V3    S    
C34   C44   A    
O2    V1    S    
C6    C22   A    
C42   F6    S    
C7    C27   A    
N1    C47   A    
C50   C52   A    
C28   H10   S    
C58   F10   S    
C36   H4    S    
C43   C64   S    
C57   F9    S    
C10   C12   A    
O4    C2    A    
C24   C26   A    
C24   F12   S    
C13   H1    S    
O3    V1    S    
C57   C59   A    
C45   C59   S    
C54   C56   A    
O3    C1    A    
C52   H6    S    
C8    C30   A    
C33   F19   S    
C13   C15   A    
C14   C16   A    
C1    C54   S    
C41   C43   A    
O7    V1    S    
C16   C18   A    
O8    V2    S    
C39   F3    S    
C27   H9    S    
O5    V1    S    
C21   C23   A    
C19   C27   A    
O14   C62   A    
C51   H5    S    
C20   C28   A    
O15   C63   A    
O14   V4    S    
C5    C29   A    
O13   V3    S    
C14   H2    S    
C1    O8    A    
C11   C13   A    
N8    C48   A    
O9    V2    S    
C17   C25   A    
O10   V1    S    
C10   H12   S    
C56   H8    S    
C37   C47   S    
C37   C39   A    
O16   V4    S    
C50   C60   A    
C7    C29   A    
C46   N6    A    
C49   C59   A    
