data_mof_unit_29059.cif
_audit_creation_date              2012-10-26T21:14:27-0400
_audit_creation_method            fapswitch 2.2
_symmetry_space_group_name_H-M    P1
_symmetry_Int_Tables_number       1
_space_group_crystal_system       triclinic
_cell_length_a                    11.054936
_cell_length_b                    19.339424
_cell_length_c                    18.267651
_cell_angle_alpha                 89.520868
_cell_angle_beta                  102.601406
_cell_angle_gamma                 93.708191
_cell_volume                      3803.42717547

loop_
_atom_site_label
_atom_site_type_symbol
_atom_type_description
_atom_site_fract_x
_atom_site_fract_y
_atom_site_fract_z
_atom_type_partial_charge
C1    C     C_R   0.496309 0.367745 0.499862 0.595144
C2    C     C_R   0.445408 0.926238 0.503225 0.026150
C3    C     C_R   0.420915 0.454664 0.711911 0.245460
C4    C     C_R   0.597577 0.533735 0.291007 0.255532
C5    C     C_R   0.425452 0.451894 0.790613 0.068270
C6    C     C_R   0.602420 0.532700 0.213552 0.066085
C7    C     C_R   0.510259 0.496717 0.840110 0.033060
C8    C     C_R   0.503079 0.501777 0.160520 0.033242
C9    C     C_R   0.595797 0.539218 0.810283 0.249717
C10   C     C_R   0.402231 0.469833 0.185979 0.281051
C11   C     C_R   0.586629 0.541972 0.731561 0.238847
C12   C     C_R   0.488357 0.631871 0.498227 0.542143
C13   C     C_R   0.404436 0.466522 0.264167 0.262585
C14   C     C_R   0.530153 0.438470 0.966631 -0.157277
C15   C     C_R   0.492586 0.560779 0.035920 -0.166479
C16   C     C_R   0.263039 0.502464 0.469545 0.536033
C17   C     C_R   0.737349 0.501871 0.530548 0.562857
C18   C     C_R   0.528903 0.438219 0.044325 0.295789
C19   C     C_R   0.495307 0.561077 0.958585 0.297799
C20   C     C_R   0.507783 0.499980 0.078728 0.050600
C21   C     C_R   0.511330 0.498783 0.923035 0.054757
C22   C     C_2   0.128205 0.506884 0.451972 0.226518
C23   C     C_R   0.461352 0.706332 0.494814 -0.017102
C24   C     C_2   0.872783 0.510068 0.548566 0.228935
C25   C     C_2   0.068820 0.508545 0.508228 -0.144505
C26   C     C_2   0.934198 0.498771 0.494758 -0.126473
C27   C     C_R   0.490729 0.748927 0.437168 0.224589
C28   C     C_R   0.583129 0.255009 0.485509 0.228901
C29   C     C_R   0.487261 0.820502 0.441922 -0.146217
C30   C     C_R   0.574288 0.182682 0.487608 -0.135046
C31   C     C_R   0.442542 0.850326 0.498969 0.016663
C32   C     C_R   0.470504 0.147123 0.505633 0.021249
C33   C     C_R   0.391816 0.808146 0.549238 0.196912
C34   C     C_R   0.485379 0.292025 0.499757 0.023821
C35   C     C_R   0.373090 0.183680 0.521541 0.176474
C36   C     C_R   0.400266 0.735380 0.547228 0.092833
C37   C     C_R   0.379251 0.256704 0.517008 0.083635
C38   C     C_3   0.373678 0.332145 0.823141 -0.320353
C39   C     C_3   0.799070 0.511762 0.182035 -0.307732
C40   C     C_3   0.789457 0.538801 0.884399 -0.145224
C41   C     C_3   0.226356 0.481031 0.094859 -0.139833
C42   C     C_3   0.686828 0.657360 0.719133 -0.270250
C43   C     C_3   0.183383 0.434582 0.262065 -0.251898
C44   C     C_3   0.626029 0.334348 0.068912 -0.125744
C45   C     C_R   0.525135 0.962154 0.563289 0.300445
C46   C     C_3   0.543892 0.678218 0.948103 -0.097916
C47   C     C_3   0.945722 0.602475 0.624728 -0.148215
C48   C     C_3   0.067839 0.576542 0.352458 -0.163138
C49   C     C_3   0.416706 0.715075 0.316749 -0.121520
C50   C     C_3   0.780727 0.298629 0.529750 -0.126455
C51   C     C_3   0.195725 0.847192 0.564402 -0.311308
C52   C     C_3   0.283449 0.128055 0.617987 -0.330869
C53   C     C_3   0.369696 0.686810 0.667553 -0.276260
C54   C     C_3   0.191214 0.311740 0.461669 -0.291394
C55   C     C_3   0.583593 0.943345 0.689932 -0.127849
C56   C     C_R   0.376193 0.035180 0.446315 0.308457
C57   C     C_3   0.180035 0.050490 0.375778 -0.114330
C58   C     C_3   0.210087 0.407455 0.655807 -0.278299
C59   C     C_3   0.722865 0.636541 0.348615 -0.255389
C60   C     C_R   0.535754 0.034881 0.561733 -0.173388
C61   C     C_R   0.372127 0.962456 0.445090 -0.171898
C62   C     C_R   0.461477 0.071053 0.504029 0.027006
Cu1   Cu    Cu3+1 0.499960 0.500000 0.573360 0.971255
Cu2   Cu    Cu3+1 0.500040 0.500000 0.426640 0.988044
H1    H     H_    0.884217 0.480491 0.439868 0.162761
H2    H     H_    0.363650 0.310160 0.877964 0.158441
H3    H     H_    0.470303 0.325996 0.816934 0.131440
H4    H     H_    0.308230 0.302181 0.778111 0.123801
H5    H     H_    0.749181 0.606708 0.214124 0.247443
H6    H     H_    0.875620 0.538185 0.159793 0.117937
H7    H     H_    0.755914 0.469361 0.142721 0.175705
H8    H     H_    0.838658 0.489169 0.237467 0.160828
H9    H     H_    0.827146 0.518570 0.837638 0.111049
H10   H     H_    0.764261 0.495268 0.919529 0.104658
H11   H     H_    0.864637 0.571866 0.920298 0.134852
H12   H     H_    0.120747 0.516161 0.565402 0.150984
H13   H     H_    0.212582 0.526237 0.128988 0.068884
H14   H     H_    0.133972 0.453495 0.074822 0.128088
H15   H     H_    0.259189 0.499265 0.044438 0.134773
H16   H     H_    0.760071 0.562068 0.710120 0.263830
H17   H     H_    0.782528 0.672735 0.750627 0.127700
H18   H     H_    0.621064 0.671983 0.753503 0.164153
H19   H     H_    0.668425 0.686726 0.665837 0.148324
H20   H     H_    0.336031 0.397884 0.338495 0.282291
H21   H     H_    0.171382 0.490838 0.253316 0.150455
H22   H     H_    0.130862 0.415231 0.304147 0.170632
H23   H     H_    0.545958 0.391627 0.939473 0.115012
H24   H     H_    0.143217 0.405383 0.209534 0.172211
H25   H     H_    0.710536 0.363401 0.057888 0.079372
H26   H     H_    0.580242 0.300942 0.020286 0.114296
H27   H     H_    0.657100 0.299627 0.117048 0.152815
H28   H     H_    0.640978 0.665942 0.974165 0.142406
H29   H     H_    0.499952 0.702409 0.989830 0.094539
H30   H     H_    0.549172 0.717099 0.903727 0.133000
H31   H     H_    0.853409 0.624977 0.609368 0.125584
H32   H     H_    0.007265 0.624606 0.588499 0.116637
H33   H     H_    0.988461 0.618168 0.683412 0.136107
H34   H     H_    0.474420 0.607525 0.062704 0.102182
H35   H     H_    0.164444 0.595310 0.350775 0.122550
H36   H     H_    0.028205 0.611926 0.387556 0.112884
H37   H     H_    0.011346 0.578436 0.294451 0.121569
H38   H     H_    0.340407 0.682369 0.333203 0.111557
H39   H     H_    0.440393 0.689314 0.268172 0.118724
H40   H     H_    0.384177 0.766867 0.297846 0.102970
H41   H     H_    0.751930 0.329714 0.573340 0.116125
H42   H     H_    0.860898 0.327724 0.513850 0.137297
H43   H     H_    0.812736 0.247977 0.553111 0.100400
H44   H     H_    0.339438 0.820184 0.651215 0.254089
H45   H     H_    0.518496 0.852946 0.400109 0.131081
H46   H     H_    0.153512 0.875950 0.603826 0.135052
H47   H     H_    0.145058 0.795561 0.552753 0.152001
H48   H     H_    0.185883 0.877041 0.511435 0.144240
H49   H     H_    0.183773 0.166334 0.517766 0.249588
H50   H     H_    0.200514 0.095932 0.626104 0.138140
H51   H     H_    0.293879 0.175506 0.653277 0.121116
H52   H     H_    0.366216 0.097484 0.636422 0.151668
H53   H     H_    0.287123 0.646419 0.560600 0.250090
H54   H     H_    0.398098 0.633750 0.682910 0.174106
H55   H     H_    0.291957 0.697244 0.694532 0.136542
H56   H     H_    0.648101 0.154145 0.474433 0.131725
H57   H     H_    0.448964 0.724638 0.689412 0.132360
H58   H     H_    0.236685 0.275181 0.570595 0.243391
H59   H     H_    0.117692 0.342108 0.476025 0.133402
H60   H     H_    0.146839 0.263765 0.431668 0.140931
H61   H     H_    0.238205 0.343517 0.424154 0.155444
H62   H     H_    0.483666 0.946606 0.690976 0.120140
H63   H     H_    0.636988 0.992772 0.709789 0.104238
H64   H     H_    0.620232 0.902483 0.730165 0.130856
H65   H     H_    0.147842 0.041023 0.428948 0.121370
H66   H     H_    0.160174 0.003565 0.339449 0.104560
H67   H     H_    0.601619 0.063499 0.605304 0.101146
H68   H     H_    0.125117 0.092046 0.345441 0.141663
H69   H     H_    0.374263 0.356588 0.666919 0.248476
H70   H     H_    0.175016 0.363940 0.686999 0.105573
H71   H     H_    0.162850 0.400378 0.596211 0.159270
H72   H     H_    0.185133 0.457213 0.676804 0.161159
H73   H     H_    0.783171 0.538351 0.340738 0.248406
H74   H     H_    0.717470 0.653427 0.405593 0.207141
H75   H     H_    0.654704 0.662468 0.305219 0.175022
H76   H     H_    0.817024 0.653182 0.340373 0.072787
H77   H     H_    0.313067 0.933812 0.398655 0.099026
H78   H     H_    0.252262 0.413584 0.807836 0.257073
N1    N     N_R   0.499990 0.500020 0.683620 -0.241072
N2    N     N_2   0.279318 0.294862 0.529347 -0.522739
N3    N     N_2   0.342894 0.405803 0.662583 -0.428774
N4    N     N_2   0.703369 0.561894 0.343376 -0.456385
N5    N     N_R   0.500010 0.499980 0.316380 -0.243129
N6    N     N_2   0.345212 0.404368 0.820541 -0.518351
N7    N     N_2   0.708952 0.561111 0.188727 -0.535886
N8    N     N_2   0.675503 0.583738 0.702381 -0.439789
N9    N     N_2   0.313171 0.421347 0.287564 -0.464191
N10   N     N_2   0.325316 0.839284 0.597542 -0.497846
N11   N     N_2   0.268156 0.146329 0.539709 -0.504398
N12   N     N_2   0.327890 0.691678 0.587045 -0.521469
O1    O     O_R   0.499950 0.400180 0.561970 -0.482245
O2    O     O_3   0.307505 0.433797 0.135804 -0.522915
O3    O     O_3   0.540660 0.378509 0.087902 -0.526074
O4    O     O_3   0.470295 0.619640 0.914676 -0.554182
O5    O     O_3   0.935057 0.529428 0.620519 -0.593385
O6    O     O_3   0.063000 0.507637 0.378148 -0.603495
O7    O     O_3   0.523487 0.721200 0.375634 -0.577738
O8    O     O_3   0.684345 0.289404 0.465224 -0.545956
O9    O     O_3   0.600735 0.925078 0.618400 -0.556814
O10   O     O_3   0.307163 0.072638 0.388514 -0.544885
O11   O     O_R   0.500050 0.599820 0.438030 -0.455397
O12   O     O_R   0.500010 0.400190 0.438070 -0.490742
O13   O     O_R   0.499990 0.599810 0.561930 -0.483633
O14   O     O_R   0.320670 0.500000 0.539180 -0.509166
O15   O     O_R   0.679330 0.500000 0.460820 -0.490386
O16   O     O_R   0.320730 0.500010 0.415280 -0.500997
O17   O     O_R   0.679270 0.499990 0.584720 -0.471712
O18   O     O_3   0.687793 0.579484 0.857665 -0.564881

loop_
_geom_bond_atom_site_label_1
_geom_bond_atom_site_label_2
_ccdc_geom_bond_type
C54   N2    S    
C54   H59   S    
C45   C60   A    
C51   H48   S    
C37   N2    S    
C50   O8    S    
C34   C37   A    
C43   N9    S    
C14   C18   A    
C57   H68   S    
C42   H18   S    
H58   N2    S    
C12   O13   A    
C58   N3    S    
C36   N12   S    
C47   O5    S    
C58   H70   S    
C15   C19   A    
C48   O6    S    
C12   C23   S    
C8    C20   S    
C22   O6    S    
C43   H24   S    
C1    O12   A    
C14   C21   A    
C57   H65   S    
C35   C37   A    
C24   C26   D    
C14   H23   S    
C41   H13   S    
C49   H38   S    
C17   O15   A    
C27   C29   A    
C46   O4    S    
C47   H31   S    
C33   C36   A    
C40   H9    S    
C60   C62   A    
Cu2   O15   S    
C1    O1    A    
Cu2   O12   S    
H44   N10   S    
C6    N7    S    
C38   H2    S    
C22   C25   D    
C50   H41   S    
C16   C22   S    
C39   H8    S    
C31   C33   A    
C23   C27   A    
C49   O7    S    
C2    C61   A    
C41   O2    S    
Cu1   O13   S    
C28   C34   A    
C53   N12   S    
C5    N6    S    
C10   C13   A    
C44   O3    S    
C43   H22   S    
C42   H17   S    
C49   H40   S    
C60   H67   S    
C19   O4    S    
C1    C34   S    
C52   H52   S    
C2    C45   A    
C15   C20   A    
C48   H36   S    
C54   H61   S    
C24   O5    S    
C17   C24   S    
C28   O8    S    
C43   H21   S    
C32   C35   A    
H78   N6    S    
H73   N4    S    
C3    N1    A    
C13   N9    S    
C4    C6    A    
C39   N7    S    
C10   O2    S    
C12   O11   A    
C5    C7    A    
C53   H54   S    
C6    C8    A    
C59   H74   S    
C58   H72   S    
C52   N11   S    
C7    C21   S    
C4    N5    A    
H49   N11   S    
C2    C31   S    
H16   N8    S    
C59   N4    S    
C41   H15   S    
Cu2   O11   S    
C57   H66   S    
C11   N8    S    
Cu1   O17   S    
C46   H30   S    
C55   H62   S    
C59   H75   S    
C47   H32   S    
C4    N4    S    
C40   O18   S    
C17   O17   A    
C25   C26   S    
C55   H64   S    
C9    C11   A    
C38   N6    S    
C44   H27   S    
C61   H77   S    
Cu1   O14   S    
C38   H4    S    
C51   N10   S    
C3    N3    S    
C51   H46   S    
Cu2   N5    S    
C50   H43   S    
C56   C62   A    
H69   N3    S    
C13   N5    A    
C15   H34   S    
C41   H14   S    
C44   H26   S    
C57   O10   S    
C52   H51   S    
C29   H45   S    
C7    C9    A    
C48   H35   S    
C54   H60   S    
C51   H47   S    
C19   C21   A    
C26   H1    S    
C42   H19   S    
C35   N11   S    
C55   H63   S    
C3    C5    A    
C33   N10   S    
C49   H39   S    
C53   H55   S    
C52   H50   S    
C58   H71   S    
C56   O10   S    
C47   H33   S    
C40   H11   S    
C25   H12   S    
H5    N7    S    
C28   C30   A    
C45   O9    S    
C55   O9    S    
C29   C31   A    
C18   O3    S    
C53   H57   S    
C27   O7    S    
C30   C32   A    
C46   H29   S    
C30   H56   S    
C59   H76   S    
C16   O14   A    
Cu1   N1    S    
C48   H37   S    
C39   H6    S    
C40   H10   S    
C18   C20   A    
Cu2   O16   S    
C42   N8    S    
Cu1   O1    S    
Cu1   Cu2   S    
H20   N9    S    
C16   O16   A    
C46   H28   S    
C38   H3    S    
C8    C10   A    
C23   C36   A    
H53   N12   S    
C50   H42   S    
C39   H7    S    
C56   C61   A    
C9    O18   S    
C32   C62   S    
C11   N1    A    
C44   H25   S    
