data_mof_unit_60172.cif
_audit_creation_date              2012-12-10T18:13:24-0500
_audit_creation_method            fapswitch 2.2
_symmetry_space_group_name_H-M    P1
_symmetry_Int_Tables_number       1
_space_group_crystal_system       triclinic
_cell_length_a                    32.233104
_cell_length_b                    32.233098
_cell_length_c                    21.818524
_cell_angle_alpha                 89.999823
_cell_angle_beta                  89.999814
_cell_angle_gamma                 90.000039
_cell_volume                      22668.8529736

loop_
_atom_site_label
_atom_site_type_symbol
_atom_type_description
_atom_site_fract_x
_atom_site_fract_y
_atom_site_fract_z
_atom_type_partial_charge
C1    C     C_R   0.420418 1.000000 0.500000 0.809353
C2    C     C_R   1.000000 0.420418 0.500000 0.809344
C3    C     C_R   0.579582 0.000000 0.500000 0.809382
C4    C     C_R   0.000000 0.579582 0.500000 0.809345
C5    C     C_R   0.920418 0.500000 1.000000 0.809342
C6    C     C_R   0.500000 0.920418 1.000000 0.809383
C7    C     C_R   0.079582 0.500000 0.000000 0.809348
C8    C     C_R   0.500000 0.079582 0.000000 0.809363
C9    C     C_R   0.293560 1.000000 0.500000 0.071479
C10   C     C_R   1.000000 0.293561 0.500000 0.071486
C11   C     C_R   0.706440 1.000000 0.500000 0.071449
C12   C     C_R   1.000000 0.706439 0.500000 0.071486
C13   C     C_R   0.793561 0.500000 0.000000 0.071487
C14   C     C_R   0.500000 0.793560 0.000000 0.071451
C15   C     C_R   0.206439 0.500000 1.000000 0.071482
C16   C     C_R   0.500000 0.206439 0.000000 0.071473
C17   C     C_1   0.161380 1.000000 0.500000 0.128752
C18   C     C_1   1.000000 0.161380 0.500000 0.128815
C19   C     C_1   0.838619 1.000000 0.500000 0.128770
C20   C     C_1   1.000000 0.838620 0.500000 0.128814
C21   C     C_1   0.661380 0.500000 1.000000 0.128821
C22   C     C_1   0.500000 0.661380 1.000000 0.128769
C23   C     C_1   0.338620 0.500000 0.000000 0.128825
C24   C     C_1   0.500000 0.338620 0.000000 0.128756
C25   C     C_1   0.338341 1.000000 0.500000 -0.002151
C26   C     C_1   1.000000 0.338341 0.500000 -0.002142
C27   C     C_1   0.661659 1.000000 0.500000 -0.002152
C28   C     C_1   1.000000 0.661659 0.500000 -0.002143
C29   C     C_1   0.838341 0.500000 0.000000 -0.002143
C30   C     C_1   0.500000 0.838341 1.000000 -0.002151
C31   C     C_1   0.161659 0.500000 1.000000 -0.002142
C32   C     C_1   0.500000 0.161659 0.000000 -0.002151
C33   C     C_1   0.375809 1.000000 0.500000 -0.180284
C34   C     C_1   1.000000 0.375809 0.500000 -0.180282
C35   C     C_1   0.624191 0.000000 0.500000 -0.180288
C36   C     C_1   0.000000 0.624191 0.500000 -0.180283
C37   C     C_1   0.875809 0.500000 1.000000 -0.180282
C38   C     C_1   0.500000 0.875809 1.000000 -0.180289
C39   C     C_1   0.124191 0.500000 0.000000 -0.180283
C40   C     C_1   0.500000 0.124191 0.000000 -0.180286
C41   C     C_1   0.123904 1.000000 0.500000 -0.125604
C42   C     C_1   1.000000 0.123904 0.500000 -0.125509
C43   C     C_1   0.876096 1.000000 0.500000 -0.125619
C44   C     C_1   1.000000 0.876096 0.500000 -0.125509
C45   C     C_1   0.623904 0.500000 1.000000 -0.125498
C46   C     C_1   0.500000 0.623904 1.000000 -0.125617
C47   C     C_1   0.376096 0.500000 0.000000 -0.125501
C48   C     C_1   0.500000 0.376096 0.000000 -0.125606
C49   C     C_R   1.000000 0.920720 0.500000 0.802701
C50   C     C_R   0.079280 1.000000 0.500000 0.802638
C51   C     C_R   1.000000 0.079280 0.500000 0.802700
C52   C     C_R   0.920719 1.000000 0.500000 0.802819
C53   C     C_R   0.500000 0.420720 0.000000 0.802683
C54   C     C_R   0.579280 0.500000 1.000000 0.802699
C55   C     C_R   0.500000 0.579280 1.000000 0.802817
C56   C     C_R   0.420720 0.500000 0.000000 0.802737
C57   C     C_R   0.500000 0.000000 0.381122 0.792514
C58   C     C_R   0.000000 0.500000 0.381122 0.792496
C59   C     C_R   0.500000 1.000000 0.618877 0.792514
C60   C     C_R   1.000000 0.500000 0.618877 0.792497
C61   C     C_R   1.000000 0.500000 0.881122 0.792497
C62   C     C_R   0.500000 1.000000 0.881122 0.792518
C63   C     C_R   0.000000 0.500000 0.118878 0.792497
C64   C     C_R   0.500000 0.000000 0.118878 0.792518
C65   C     C_R   0.559198 0.950739 0.312837 -0.139717
C66   C     C_R   0.049260 0.559197 0.312837 -0.139784
C67   C     C_R   0.440802 0.049260 0.312837 -0.139768
C68   C     C_R   0.950739 0.440803 0.312837 -0.139786
C69   C     C_R   0.440802 0.950740 0.687163 -0.139771
C70   C     C_R   0.950739 0.559197 0.687163 -0.139786
C71   C     C_R   0.559197 0.049261 0.687163 -0.139716
C72   C     C_R   0.049261 0.440803 0.687163 -0.139785
C73   C     C_R   0.059198 0.450740 0.812837 -0.139778
C74   C     C_R   0.549261 0.059198 0.812837 -0.139758
C75   C     C_R   0.940802 0.549260 0.812837 -0.139791
C76   C     C_R   0.450738 0.940803 0.812837 -0.139718
C77   C     C_R   0.940802 0.450739 0.187163 -0.139789
C78   C     C_R   0.450739 0.059197 0.187163 -0.139756
C79   C     C_R   0.059197 0.549261 0.187163 -0.139781
C80   C     C_R   0.549261 0.940803 0.187163 -0.139720
C81   C     C_R   0.583566 0.922200 0.281221 -0.137082
C82   C     C_R   0.077800 0.583565 0.281221 -0.137215
C83   C     C_R   0.416434 0.077799 0.281221 -0.137177
C84   C     C_R   0.922199 0.416435 0.281221 -0.137220
C85   C     C_R   0.416433 0.922201 0.718779 -0.137159
C86   C     C_R   0.922199 0.583565 0.718779 -0.137220
C87   C     C_R   0.583565 0.077801 0.718778 -0.137100
C88   C     C_R   0.077801 0.416435 0.718779 -0.137215
C89   C     C_R   0.083566 0.422200 0.781221 -0.137207
C90   C     C_R   0.577800 0.083566 0.781221 -0.137140
C91   C     C_R   0.916434 0.577800 0.781221 -0.137223
C92   C     C_R   0.422198 0.916436 0.781221 -0.137109
C93   C     C_R   0.916435 0.422200 0.218779 -0.137223
C94   C     C_R   0.422199 0.083565 0.218779 -0.137166
C95   C     C_R   0.083565 0.577800 0.218778 -0.137207
C96   C     C_R   0.577801 0.916435 0.218779 -0.137082
C97   C     C_R   0.525746 0.971720 0.217787 0.072783
C98   C     C_R   0.028281 0.525746 0.217787 0.072790
C99   C     C_R   0.474253 0.028280 0.217787 0.072791
C100  C     C_R   0.971720 0.474254 0.217788 0.072792
C101  C     C_R   0.474253 0.971720 0.782213 0.072785
C102  C     C_R   0.971719 0.525746 0.782213 0.072792
C103  C     C_R   0.525746 0.028280 0.782212 0.072790
C104  C     C_R   0.028281 0.474254 0.782213 0.072791
C105  C     C_R   0.025746 0.471720 0.717788 0.072791
C106  C     C_R   0.528280 0.025747 0.717787 0.072785
C107  C     C_R   0.974254 0.528280 0.717787 0.072792
C108  C     C_R   0.471719 0.974254 0.717787 0.072792
C109  C     C_R   0.974254 0.471720 0.282213 0.072791
C110  C     C_R   0.471719 0.025746 0.282213 0.072792
C111  C     C_R   0.025746 0.528280 0.282212 0.072792
C112  C     C_R   0.528281 0.974254 0.282212 0.072784
C113  C     C_R   0.500000 1.000000 0.185723 -0.188674
C114  C     C_R   0.000000 0.500000 0.185723 -0.188694
C115  C     C_R   0.500000 1.000000 0.814277 -0.188674
C116  C     C_R   0.000000 0.500000 0.814277 -0.188694
C117  C     C_R   1.000000 0.500000 0.685723 -0.188695
C118  C     C_R   0.500000 0.000000 0.685723 -0.188673
C119  C     C_R   0.000000 0.500000 0.314277 -0.188694
C120  C     C_R   0.500000 0.000000 0.314277 -0.188672
C121  C     C_R   0.228055 0.978874 0.546441 0.354994
C122  C     C_R   0.020823 0.228055 0.546738 0.355007
C123  C     C_R   0.771945 0.021977 0.545570 0.354990
C124  C     C_R   0.979167 0.771945 0.546730 0.355031
C125  C     C_R   0.771945 0.978023 0.454430 0.354990
C126  C     C_R   0.979176 0.228055 0.453262 0.355033
C127  C     C_R   0.228055 0.021126 0.453559 0.354994
C128  C     C_R   0.020832 0.771945 0.453270 0.355007
C129  C     C_R   0.728055 0.479248 0.046808 0.355013
C130  C     C_R   0.521949 0.728055 0.045600 0.354988
C131  C     C_R   0.271945 0.520929 0.046635 0.355031
C132  C     C_R   0.478673 0.271945 0.046240 0.354996
C133  C     C_R   0.271945 0.479072 0.953364 0.355013
C134  C     C_R   0.478051 0.728055 0.954400 0.354993
C135  C     C_R   0.728055 0.520752 0.953193 0.355032
C136  C     C_R   0.521327 0.271945 0.953760 0.354990
C137  C     C_R   0.206295 1.000000 0.500000 0.053938
C138  C     C_R   1.000000 0.206295 0.500000 0.053927
C139  C     C_R   0.793705 1.000000 0.500000 0.053983
C140  C     C_R   1.000000 0.793705 0.500000 0.053929
C141  C     C_R   0.706295 0.500000 0.000000 0.053926
C142  C     C_R   0.500000 0.706295 1.000000 0.053982
C143  C     C_R   0.293705 0.500000 1.000000 0.053935
C144  C     C_R   0.500000 0.293705 0.000000 0.053949
C145  C     C_R   0.271803 0.020942 0.453956 -0.276473
C146  C     C_R   0.979357 0.271803 0.453662 -0.276477
C147  C     C_R   0.728198 0.978214 0.454819 -0.276435
C148  C     C_R   0.020651 0.728197 0.453670 -0.276477
C149  C     C_R   0.728198 0.021786 0.545181 -0.276433
C150  C     C_R   0.020642 0.271803 0.546338 -0.276476
C151  C     C_R   0.271802 0.979058 0.546044 -0.276475
C152  C     C_R   0.979349 0.728197 0.546330 -0.276478
C153  C     C_R   0.771803 0.520572 0.953593 -0.276481
C154  C     C_R   0.478242 0.771802 0.954789 -0.276433
C155  C     C_R   0.228197 0.479254 0.953763 -0.276470
C156  C     C_R   0.521141 0.228197 0.954155 -0.276465
C157  C     C_R   0.228197 0.520747 0.046236 -0.276471
C158  C     C_R   0.521758 0.771802 0.045211 -0.276436
C159  C     C_R   0.771803 0.479429 0.046407 -0.276480
C160  C     C_R   0.478859 0.228197 0.045845 -0.276463
Cu1   Cu    Cu3+1 0.500000 0.041050 0.500000 0.962611
Cu2   Cu    Cu3+1 0.958950 0.500000 0.500000 0.962636
Cu3   Cu    Cu3+1 0.500000 0.958950 0.500000 0.962643
Cu4   Cu    Cu3+1 0.041050 0.500000 0.500000 0.962640
Cu5   Cu    Cu3+1 1.000000 0.541050 0.000000 0.962639
Cu6   Cu    Cu3+1 0.458950 0.000000 0.000000 0.962596
Cu7   Cu    Cu3+1 0.000000 0.458950 0.000000 0.962636
Cu8   Cu    Cu3+1 0.541050 0.000000 0.000000 0.962639
Cu9   Cu    Cu3+1 1.000000 1.000000 0.438210 1.019672
Cu10  Cu    Cu3+1 0.000000 0.000000 0.561790 1.019672
Cu11  Cu    Cu3+1 0.500000 0.500000 0.938210 1.019653
Cu12  Cu    Cu3+1 0.500000 0.500000 0.061790 1.019653
H1    H     H_    0.393397 0.095909 0.305468 0.138501
H2    H     H_    0.904089 0.393398 0.305469 0.138532
H3    H     H_    0.606602 0.904090 0.305468 0.138437
H4    H     H_    0.095910 0.606602 0.305468 0.138528
H5    H     H_    0.606601 0.095911 0.694531 0.138440
H6    H     H_    0.095911 0.393399 0.694532 0.138529
H7    H     H_    0.393396 0.904092 0.694531 0.138498
H8    H     H_    0.904090 0.606601 0.694532 0.138531
H9    H     H_    0.893398 0.595909 0.805468 0.138536
H10   H     H_    0.404087 0.893400 0.805468 0.138444
H11   H     H_    0.106603 0.404091 0.805468 0.138522
H12   H     H_    0.595909 0.106602 0.805468 0.138483
H13   H     H_    0.106602 0.595911 0.194531 0.138523
H14   H     H_    0.595911 0.893399 0.194532 0.138438
H15   H     H_    0.893398 0.404090 0.194532 0.138535
H16   H     H_    0.404089 0.106601 0.194532 0.138488
H17   H     H_    0.565321 0.954225 0.361232 0.146338
H18   H     H_    0.045775 0.565321 0.361231 0.146353
H19   H     H_    0.434679 0.045775 0.361232 0.146347
H20   H     H_    0.954225 0.434679 0.361232 0.146353
H21   H     H_    0.434679 0.954226 0.638768 0.146347
H22   H     H_    0.954225 0.565321 0.638768 0.146353
H23   H     H_    0.565320 0.045776 0.638768 0.146340
H24   H     H_    0.045775 0.434679 0.638768 0.146353
H25   H     H_    0.065321 0.454226 0.861232 0.146351
H26   H     H_    0.545775 0.065321 0.861232 0.146345
H27   H     H_    0.934679 0.545775 0.861232 0.146353
H28   H     H_    0.454223 0.934680 0.861232 0.146341
H29   H     H_    0.934679 0.454225 0.138769 0.146353
H30   H     H_    0.454224 0.065320 0.138768 0.146346
H31   H     H_    0.065321 0.545775 0.138768 0.146353
H32   H     H_    0.545775 0.934680 0.138768 0.146339
H33   H     H_    0.288872 0.962899 0.581572 0.145425
H34   H     H_    0.036570 0.288872 0.582094 0.145431
H35   H     H_    0.711128 0.038595 0.580044 0.145423
H36   H     H_    0.963414 0.711127 0.582080 0.145432
H37   H     H_    0.711128 0.961404 0.419956 0.145420
H38   H     H_    0.963429 0.288873 0.417906 0.145432
H39   H     H_    0.288872 0.037100 0.418428 0.145427
H40   H     H_    0.036585 0.711128 0.417920 0.145431
H41   H     H_    0.788872 0.463556 0.082216 0.145433
H42   H     H_    0.538546 0.788872 0.080097 0.145419
H43   H     H_    0.211127 0.536755 0.081914 0.145430
H44   H     H_    0.462547 0.211128 0.081221 0.145426
H45   H     H_    0.211127 0.463245 0.918085 0.145430
H46   H     H_    0.461454 0.788872 0.919903 0.145422
H47   H     H_    0.788873 0.536444 0.917784 0.145433
H48   H     H_    0.537453 0.211128 0.918780 0.145423
O1    O     O_R   0.440150 0.034670 0.500000 -0.580999
O2    O     O_R   0.965330 0.440150 0.500000 -0.580991
O3    O     O_R   0.559850 0.965330 0.500000 -0.581017
O4    O     O_R   0.034670 0.559850 0.500000 -0.580991
O5    O     O_R   0.559850 0.034670 0.500000 -0.581024
O6    O     O_R   0.034670 0.440150 0.500000 -0.580991
O7    O     O_R   0.440150 0.965330 0.500000 -0.580994
O8    O     O_R   0.965330 0.559850 0.500000 -0.580990
O9    O     O_R   0.940150 0.534670 0.000000 -0.580988
O10   O     O_R   0.465330 0.940150 0.000000 -0.581024
O11   O     O_R   0.059850 0.465330 0.000000 -0.580994
O12   O     O_R   0.534670 0.059850 0.000000 -0.580998
O13   O     O_R   0.059850 0.534670 0.000000 -0.580993
O14   O     O_R   0.534670 0.940150 0.000000 -0.581016
O15   O     O_R   0.940150 0.465330 0.000000 -0.580990
O16   O     O_R   0.465330 0.059850 0.000000 -0.581006
O17   O     O_R   0.500000 0.034670 0.409850 -0.584319
O18   O     O_R   0.965330 0.500000 0.409850 -0.584326
O19   O     O_R   0.500000 0.965330 0.409850 -0.584326
O20   O     O_R   0.034670 0.500000 0.409850 -0.584324
O21   O     O_R   0.500000 0.034670 0.590150 -0.584339
O22   O     O_R   0.034670 0.500000 0.590150 -0.584323
O23   O     O_R   0.500000 0.965330 0.590150 -0.584306
O24   O     O_R   0.965330 0.500000 0.590150 -0.584326
O25   O     O_R   0.000000 0.534670 0.909850 -0.584322
O26   O     O_R   0.465330 1.000000 0.909850 -0.584340
O27   O     O_R   0.000000 0.465330 0.909850 -0.584327
O28   O     O_R   0.534670 1.000000 0.909850 -0.584309
O29   O     O_R   0.000000 0.534670 0.090150 -0.584326
O30   O     O_R   0.534670 0.000000 0.090150 -0.584323
O31   O     O_R   1.000000 0.465330 0.090150 -0.584323
O32   O     O_R   0.465330 0.000000 0.090150 -0.584325
O33   O     O_R   0.999970 0.940220 0.447740 -0.569291
O34   O     O_R   0.059780 0.999970 0.447740 -0.569352
O35   O     O_R   0.000030 0.059780 0.447740 -0.569336
O36   O     O_R   0.940220 0.000030 0.447740 -0.569468
O37   O     O_R   0.000030 0.940220 0.552260 -0.569337
O38   O     O_R   0.940220 0.999970 0.552260 -0.569467
O39   O     O_R   0.999970 0.059780 0.552260 -0.569289
O40   O     O_R   0.059780 0.000030 0.552260 -0.569353
O41   O     O_R   0.499970 0.440220 0.947740 -0.569375
O42   O     O_R   0.559780 0.499970 0.947740 -0.569321
O43   O     O_R   0.500030 0.559780 0.947740 -0.569470
O44   O     O_R   0.440220 0.500030 0.947740 -0.569310
O45   O     O_R   0.500030 0.440220 0.052260 -0.569385
O46   O     O_R   0.440220 0.499970 0.052260 -0.569344
O47   O     O_R   0.499970 0.559780 0.052260 -0.569460
O48   O     O_R   0.559780 0.500030 0.052260 -0.569287
O49   O     O_3   0.206013 0.958369 0.591509 -0.716124
H49   H     H_    0.225822 0.945236 0.620374 0.328841
O50   O     O_3   0.041034 0.206013 0.592095 -0.716084
H50   H     H_    0.053979 0.225822 0.621144 0.328851
O51   O     O_3   0.793987 0.043308 0.589793 -0.716195
H51   H     H_    0.774177 0.056971 0.618116 0.328839
O52   O     O_3   0.958948 0.793987 0.592078 -0.716067
H52   H     H_    0.945998 0.774177 0.621123 0.328851
O53   O     O_3   0.793987 0.956691 0.410207 -0.716196
H53   H     H_    0.774178 0.943028 0.381884 0.328836
O54   O     O_3   0.958965 0.206013 0.407906 -0.716067
H54   H     H_    0.946020 0.225823 0.378856 0.328851
O55   O     O_3   0.206013 0.041630 0.408491 -0.716123
H55   H     H_    0.225823 0.054763 0.379626 0.328844
O56   O     O_3   0.041051 0.793987 0.407921 -0.716085
H56   H     H_    0.054001 0.774178 0.378877 0.328851
O57   O     O_3   0.706013 0.459107 0.092232 -0.716075
H57   H     H_    0.725822 0.446206 0.121324 0.328852
O58   O     O_3   0.543252 0.706013 0.089852 -0.716195
H58   H     H_    0.556898 0.725822 0.118194 0.328836
O59   O     O_3   0.293987 0.541242 0.091892 -0.716075
H59   H     H_    0.274177 0.554253 0.120878 0.328849
O60   O     O_3   0.457974 0.293987 0.091114 -0.716138
H60   H     H_    0.444716 0.274177 0.119853 0.328844
O61   O     O_3   0.293987 0.458759 0.908107 -0.716088
H61   H     H_    0.274178 0.445748 0.879122 0.328850
O62   O     O_3   0.456748 0.706013 0.910148 -0.716190
H62   H     H_    0.443102 0.725823 0.881806 0.328840
O63   O     O_3   0.706013 0.540894 0.907769 -0.716062
H63   H     H_    0.725823 0.553795 0.878676 0.328851
O64   O     O_3   0.542026 0.293987 0.908886 -0.716144
H64   H     H_    0.555285 0.274178 0.880147 0.328840

loop_
_geom_bond_atom_site_label_1
_geom_bond_atom_site_label_2
_ccdc_geom_bond_type
C132  C144  A    
C4    C36   S    
Cu5   O13   S    
C5    C37   S    
O60   H60   S    
C131  C143  A    
Cu7   O15   S    
C109  C119  A    
C14   C158  A    
C70   C107  A    
C148  H40   S    
Cu2   O18   S    
C98   C114  A    
O50   H50   S    
C30   C38   T    
C77   C100  A    
C1    O1    A    
Cu12  O46   S    
C146  H38   S    
C104  C116  A    
C131  C157  A    
C46   C55   S    
Cu1   O21   S    
C2    C34   S    
Cu4   O22   S    
C100  C109  A    
C106  C118  A    
Cu5   O9    S    
Cu9   O36   S    
C23   C143  S    
Cu3   O7    S    
C104  C105  A    
Cu1   Cu3   S    
Cu2   Cu4   S    
C157  H43   S    
C112  C120  A    
C97   C112  A    
C127  O55   S    
C27   C35   T    
C99   C110  A    
Cu6   O32   S    
C24   C48   T    
C87   H5    S    
Cu4   O4    S    
C11   C27   S    
C62   O28   A    
C52   O38   A    
C69   H21   S    
Cu5   O25   S    
C60   C117  S    
C156  H48   S    
Cu11  O43   S    
C122  O50   S    
C127  C145  A    
C64   O30   A    
C65   H17   S    
C101  C115  A    
C122  C150  A    
Cu3   O19   S    
C2    O6    A    
C9    C151  A    
C72   H24   S    
Cu2   O8    S    
C74   C90   A    
C129  O57   S    
Cu12  O48   S    
C92   H10   S    
C50   O40   A    
C78   C94   A    
C53   O45   A    
C58   C119  S    
C84   C93   A    
C73   C89   A    
Cu1   O17   S    
C88   C89   A    
C19   C139  S    
C71   C106  A    
C78   C99   A    
C7    C39   S    
C17   C137  S    
C8    C40   S    
C57   O17   A    
C67   C83   A    
C80   C97   A    
C16   C160  A    
C12   C152  A    
C66   C82   A    
C80   H32   S    
C89   H11   S    
C94   H16   S    
C18   C42   T    
C43   C52   S    
C123  C139  A    
C53   O41   A    
C111  C119  A    
C121  C137  A    
Cu11  O41   S    
C64   O32   A    
C49   O37   A    
C74   H26   S    
Cu1   O1    S    
C6    C38   S    
Cu3   O23   S    
C56   O46   A    
C15   C155  A    
C75   C91   A    
C9    C145  A    
C6    O14   A    
Cu5   Cu7   S    
O53   H53   S    
C14   C154  A    
Cu6   Cu8   S    
C20   C44   T    
C85   C92   A    
C21   C45   T    
Cu6   O16   S    
C48   C53   S    
C23   C47   T    
C131  O59   S    
Cu6   O26   S    
Cu9   O33   S    
C100  C114  A    
C150  H34   S    
C121  C151  A    
C65   C112  A    
O61   H61   S    
C67   C110  A    
C71   H23   S    
C3    C35   S    
C22   C142  S    
O59   H59   S    
C132  O60   S    
C102  C107  A    
C151  H33   S    
C57   O19   A    
C10   C146  A    
C57   C120  S    
C59   C118  S    
C6    O10   A    
Cu2   O24   S    
C121  O49   S    
C69   C85   A    
C3    O3    A    
C82   C95   A    
C152  H36   S    
C77   H29   S    
C15   C31   S    
C75   H27   S    
C158  H42   S    
Cu8   O30   S    
C126  O54   S    
C60   O22   A    
C128  C140  A    
C62   C115  S    
C66   H18   S    
C130  C142  A    
C153  H47   S    
C135  C141  A    
O56   H56   S    
C13   C159  A    
C123  O51   S    
C25   C33   T    
C47   C56   S    
C145  H39   S    
C63   O31   A    
C159  H41   S    
Cu9   O35   S    
O52   H52   S    
C51   O35   A    
C123  C149  A    
C9    C25   S    
C7    O11   A    
C12   C28   S    
C81   H3    S    
C13   C29   S    
C86   C91   A    
C135  O63   S    
C124  O52   S    
C62   O26   A    
C129  C141  A    
C160  H44   S    
C2    O2    A    
O57   H57   S    
O63   H63   S    
C18   C138  S    
C11   C149  A    
C16   C156  A    
O54   H54   S    
Cu10  O39   S    
C98   C111  A    
C66   C111  A    
C136  O64   S    
C101  C108  A    
Cu6   O10   S    
O49   H49   S    
C105  C117  A    
C84   H2    S    
C19   C43   T    
C60   O24   A    
C68   C84   A    
C96   H14   S    
C122  C138  A    
C125  C147  A    
O62   H62   S    
C81   C96   A    
C128  C148  A    
C83   C94   A    
C54   O48   A    
C103  C115  A    
O64   H64   S    
C79   C95   A    
Cu12  O45   S    
C50   O34   A    
C134  C142  A    
C65   C81   A    
O58   H58   S    
C70   H22   S    
C61   C116  S    
C88   H6    S    
C13   C153  A    
C71   C87   A    
C8    O16   A    
C22   C46   T    
C90   H12   S    
C91   H9    S    
C55   O43   A    
C16   C32   S    
C41   C50   S    
C95   H13   S    
Cu8   O14   S    
C51   O39   A    
C124  C140  A    
C130  O58   S    
C99   C113  A    
C130  C158  A    
C20   C140  S    
C52   O36   A    
C21   C141  S    
C136  C144  A    
C10   C150  A    
C11   C147  A    
C134  C154  A    
C125  O53   S    
C24   C144  S    
Cu7   O27   S    
C77   C93   A    
C155  H45   S    
Cu10  O37   S    
C68   C109  A    
C4    O8    A    
Cu11  O44   S    
C72   C105  A    
C28   C36   T    
C87   C90   A    
C29   C37   T    
Cu4   O6    S    
C147  H37   S    
C107  C117  A    
C44   C49   S    
Cu11  Cu12  S    
C7    O13   A    
Cu9   Cu10  S    
C79   C98   A    
C149  H35   S    
C126  C146  A    
C1    C33   S    
C125  C139  A    
C132  C160  A    
Cu5   O29   S    
C56   O44   A    
C15   C157  A    
Cu12  O47   S    
C136  C156  A    
C67   H19   S    
Cu8   O12   S    
C68   H20   S    
C61   O25   A    
Cu7   O31   S    
C59   O23   A    
C134  O62   S    
C63   C114  S    
C26   C34   T    
C73   C104  A    
Cu2   O2    S    
C73   H25   S    
Cu4   O20   S    
C75   C102  A    
C133  O61   S    
C154  H46   S    
C3    O5    A    
C42   C51   S    
C10   C26   S    
C124  C152  A    
C14   C30   S    
C58   O20   A    
C72   C88   A    
C69   C108  A    
Cu1   O5    S    
C133  C143  A    
C54   O42   A    
C108  C118  A    
C55   O47   A    
Cu10  O38   S    
C76   H28   S    
C110  C120  A    
O55   H55   S    
C4    O4    A    
Cu11  O42   S    
C49   O33   A    
C85   H7    S    
C86   H8    S    
O51   H51   S    
C76   C92   A    
C93   H15   S    
Cu8   O28   S    
C82   H4    S    
C45   C54   S    
C79   H31   S    
C83   H1    S    
C5    O9    A    
C80   C96   A    
C97   C113  A    
C70   C86   A    
C129  C159  A    
C76   C101  A    
C126  C138  A    
C64   C113  S    
C63   O29   A    
C133  C155  A    
Cu9   O34   S    
C78   H30   S    
Cu7   O11   S    
Cu3   O3    S    
C61   O27   A    
C135  C153  A    
C59   O21   A    
C12   C148  A    
C8    O12   A    
C1    O7    A    
C31   C39   T    
C103  C106  A    
C32   C40   T    
C17   C41   T    
C102  C116  A    
C5    O15   A    
Cu10  O40   S    
C127  C137  A    
C128  O56   S    
C58   O18   A    
C74   C103  A    
