data_mof_unit_37995.cif
_audit_creation_date              2012-12-11T16:38:20-0500
_audit_creation_method            fapswitch 2.2
_symmetry_space_group_name_H-M    P1
_symmetry_Int_Tables_number       1
_space_group_crystal_system       triclinic
_cell_length_a                    22.863994
_cell_length_b                    7.229583
_cell_length_c                    21.067039
_cell_angle_alpha                 90.060356
_cell_angle_beta                  93.258696
_cell_angle_gamma                 90.407964
_cell_volume                      3476.59878061

loop_
_atom_site_label
_atom_site_type_symbol
_atom_type_description
_atom_site_fract_x
_atom_site_fract_y
_atom_site_fract_z
_atom_type_partial_charge
O1    O     O_R   0.188620 0.380490 0.689890 -0.533573
O2    O     O_R   0.811380 0.619510 0.310110 -0.539980
O3    O     O_R   0.311380 0.880490 0.810110 -0.534395
O4    O     O_R   0.688620 0.119510 0.189890 -0.534853
O5    O     O_R   0.306510 0.709050 0.686440 -0.534852
O6    O     O_R   0.693490 0.290950 0.313560 -0.536722
O7    O     O_R   0.193490 0.209050 0.813560 -0.541083
O8    O     O_R   0.806510 0.790950 0.186440 -0.537003
C1    C     C_R   0.325398 0.541945 0.671778 0.731127
C2    C     C_R   0.674742 0.458041 0.328416 0.718514
C3    C     C_R   0.174728 0.041244 0.828369 0.707216
C4    C     C_R   0.825072 0.958609 0.171406 0.726292
O9    O     O_R   0.188770 0.710120 0.682280 -0.540580
O10   O     O_R   0.811230 0.289880 0.317720 -0.545148
O11   O     O_R   0.311230 0.210120 0.817720 -0.541039
O12   O     O_R   0.688770 0.789880 0.182280 -0.537977
O13   O     O_R   0.192790 0.881680 0.805920 -0.533314
O14   O     O_R   0.807210 0.118320 0.194080 -0.533443
O15   O     O_R   0.307210 0.381680 0.694080 -0.528131
O16   O     O_R   0.692790 0.618320 0.305920 -0.531694
C5    C     C_R   0.168433 0.540618 0.667816 0.705122
C6    C     C_R   0.831541 0.460308 0.333486 0.698013
C7    C     C_R   0.330154 0.041170 0.834699 0.707557
C8    C     C_R   0.668345 0.958342 0.167376 0.704937
O17   O     O_3   0.251460 0.547440 0.790570 -0.383421
O18   O     O_3   0.748540 0.452560 0.209430 -0.370868
O19   O     O_3   0.248540 0.047440 0.709430 -0.375360
O20   O     O_3   0.751460 0.952560 0.290570 -0.380241
V1    V     V_3+5 0.249730 0.821800 0.742470 1.381088
V2    V     V_3+5 0.750270 0.178200 0.257530 1.380960
V3    V     V_3+5 0.250270 0.321800 0.757530 1.377177
V4    V     V_3+5 0.749730 0.678200 0.242470 1.391118
C9    C     C_R   0.429694 0.884017 0.977592 -0.266083
C10   C     C_R   0.519292 0.069115 0.084963 -0.252493
C11   C     C_R   0.018840 0.426343 0.588129 -0.173740
C12   C     C_R   0.960867 0.636175 0.443827 -0.191251
H1    H     H_    0.431828 0.778937 0.014304 0.124464
H2    H     H_    0.477958 0.131536 0.095470 0.125221
H3    H     H_    0.976678 0.372298 0.600371 0.141643
H4    H     H_    0.986155 0.761087 0.454264 0.190185
C13   C     C_R   0.380761 0.891113 0.933726 0.082825
C14   C     C_R   0.564911 0.059095 0.132652 0.089095
C15   C     C_R   0.064605 0.439147 0.635410 0.110304
C16   C     C_R   0.914639 0.639856 0.397015 0.060056
C17   C     C_R   0.378447 0.030442 0.885619 -0.122433
C18   C     C_R   0.618121 0.970112 0.119314 -0.106304
C19   C     C_R   0.118213 0.525388 0.620732 -0.140172
C20   C     C_R   0.881059 0.474545 0.383636 -0.121906
C21   C     C_R   0.424565 0.160358 0.885045 -0.286020
C22   C     C_R   0.624485 0.900250 0.057818 -0.295332
C23   C     C_R   0.125194 0.588367 0.558737 -0.268327
C24   C     C_R   0.895352 0.315785 0.420029 -0.298771
H5    H     H_    0.423901 0.267017 0.848920 0.143054
H6    H     H_    0.664834 0.832017 0.047329 0.129687
H7    H     H_    0.166225 0.651803 0.546781 0.138998
H8    H     H_    0.870165 0.190550 0.411511 0.140437
C25   C     C_R   0.472616 0.152955 0.929849 0.509250
C26   C     C_R   0.579828 0.921859 0.009171 0.487869
C27   C     C_R   0.080700 0.563383 0.510866 0.477130
C28   C     C_R   0.941929 0.315030 0.467124 0.474699
C29   C     C_R   0.475992 0.011106 0.975408 0.032608
C30   C     C_R   0.526040 0.000385 0.023691 0.028856
C31   C     C_R   0.026276 0.485234 0.525770 0.000947
C32   C     C_R   0.975880 0.476409 0.477699 -0.004465
H9    H     H_    0.931451 0.256516 0.012962 0.126547
H10   H     H_    0.071189 0.742143 0.989846 0.120370
H11   H     H_    0.517243 0.749468 0.420880 0.119178
H12   H     H_    0.483591 0.259543 0.578705 0.131927
C33   C     C_R   0.005984 0.160377 0.964053 0.088688
C34   C     C_R   0.996778 0.838380 0.039330 0.088291
C35   C     C_R   0.463176 0.664313 0.496410 0.092907
C36   C     C_R   0.536149 0.347114 0.502193 0.086886
C37   C     C_R   0.045776 0.013485 0.957410 0.090805
C38   C     C_R   0.956644 0.984858 0.045419 0.089839
C39   C     C_R   0.454088 0.523197 0.542298 0.104919
C40   C     C_R   0.545738 0.487639 0.457425 0.102397
C41   C     C_R   0.040661 0.854476 0.995051 -0.221213
C42   C     C_R   0.961921 0.143838 0.007952 -0.219120
C43   C     C_R   0.490738 0.367410 0.544184 -0.229380
C44   C     C_R   0.509505 0.643028 0.455475 -0.233129
C45   C     C_1   0.091660 0.022151 0.912032 -0.063585
C46   C     C_1   0.909577 0.975244 0.089351 -0.057642
C47   C     C_1   0.408493 0.528964 0.587975 -0.059287
C48   C     C_1   0.591669 0.475249 0.412161 -0.054661
C49   C     C_1   0.870726 0.967755 0.126355 -0.186721
C50   C     C_1   0.129655 0.030904 0.874043 -0.182248
C51   C     C_1   0.629710 0.466720 0.374215 -0.197831
C52   C     C_1   0.370604 0.533696 0.626221 -0.200833
C53   C     C_3   0.331849 0.751126 0.941484 -0.344058
C54   C     C_3   0.276471 0.843544 0.964081 -0.291753
C55   C     C_3   0.226631 0.703540 0.968833 -0.755581
H13   H     H_    0.239705 0.591554 0.002682 0.218257
H14   H     H_    0.187567 0.773816 0.986183 0.213713
H15   H     H_    0.214737 0.642251 0.921430 0.242140
H16   H     H_    0.286365 0.906953 0.011619 0.187902
H17   H     H_    0.261638 0.954870 0.930899 0.177540
H18   H     H_    0.322453 0.672867 0.896809 0.204026
H19   H     H_    0.345795 0.644842 0.977275 0.154337
C56   C     C_3   0.554395 0.140449 0.197272 -0.358705
C57   C     C_3   0.541037 0.988848 0.245173 -0.304438
C58   C     C_3   0.530582 0.072063 0.310066 -0.771880
H20   H     H_    0.571808 0.133691 0.331138 0.236056
H21   H     H_    0.496178 0.179802 0.305966 0.229267
H22   H     H_    0.515796 0.962275 0.342107 0.206677
H23   H     H_    0.501158 0.910938 0.227825 0.193282
H24   H     H_    0.578066 0.890300 0.250462 0.190312
H25   H     H_    0.592298 0.226031 0.214994 0.188308
H26   H     H_    0.516548 0.236486 0.193387 0.164009
C59   C     C_3   0.053300 0.365999 0.701161 -0.348704
C60   C     C_3   0.038659 0.157673 0.701460 -0.341573
C61   C     C_3   0.085688 0.038633 0.673313 -0.610007
H27   H     H_    0.128716 0.063969 0.698751 0.236569
H28   H     H_    0.073982 0.890268 0.678377 0.184074
H29   H     H_    0.089009 0.068849 0.621973 0.230769
H30   H     H_    0.033782 0.113561 0.751395 0.173364
H31   H     H_    0.996057 0.130991 0.674903 0.187953
H32   H     H_    0.090280 0.393560 0.736284 0.167096
H33   H     H_    0.015292 0.441641 0.718548 0.140682
C62   C     C_3   0.905510 0.824908 0.363965 -0.333239
C63   C     C_3   0.935353 0.833733 0.300653 -0.295812
C64   C     C_3   0.943324 0.034578 0.279789 -0.776634
H34   H     H_    0.900610 0.106173 0.276419 0.244216
H35   H     H_    0.973277 0.109484 0.314524 0.233720
H36   H     H_    0.962539 0.040288 0.232734 0.207965
H37   H     H_    0.979364 0.769325 0.306032 0.207268
H38   H     H_    0.908937 0.756437 0.263464 0.200619
H39   H     H_    0.858948 0.865801 0.359161 0.189356
H40   H     H_    0.925752 0.934750 0.394914 0.191378
O21   O     O_3   0.517649 0.280586 0.927637 -0.555791
C65   C     C_3   0.499502 0.446814 0.955161 -0.247519
H41   H     H_    0.483507 0.424614 0.003589 0.111324
H42   H     H_    0.465366 0.515829 0.923996 0.148025
H43   H     H_    0.537780 0.541031 0.960475 0.218844
O22   O     O_3   0.586514 0.855702 0.948307 -0.562768
C66   C     C_3   0.632723 0.951443 0.920825 -0.214811
H44   H     H_    0.675943 0.902516 0.940614 0.120060
H45   H     H_    0.629165 0.104142 0.926585 0.166501
H46   H     H_    0.630434 0.921864 0.869066 0.164818
O23   O     O_3   0.090145 0.623681 0.450053 -0.556505
C67   C     C_3   0.109590 0.472580 0.414751 -0.250229
H47   H     H_    0.075922 0.360576 0.410470 0.148520
H48   H     H_    0.151673 0.417574 0.435926 0.136328
H49   H     H_    0.117468 0.520749 0.365974 0.160573
O24   O     O_3   0.958748 0.153582 0.498524 -0.556023
C68   C     C_3   0.911599 0.078637 0.530811 -0.319501
H50   H     H_    0.881367 0.998938 0.497809 0.141835
H51   H     H_    0.887206 0.186465 0.556124 0.127211
H52   H     H_    0.929559 0.980381 0.567212 0.170630
C69   C     C_3   0.009550 0.337257 0.925949 -0.368544
C70   C     C_3   0.963212 0.340425 0.870586 -0.294503
C71   C     C_3   0.961631 0.529656 0.838424 -0.785078
H53   H     H_    0.947003 0.636673 0.871822 0.235547
H54   H     H_    0.005770 0.568444 0.823160 0.226338
H55   H     H_    0.930449 0.525729 0.796067 0.211478
H56   H     H_    0.973409 0.232808 0.835284 0.189474
H57   H     H_    0.919164 0.310101 0.888012 0.195362
H58   H     H_    0.002622 0.456778 0.957456 0.172065
H59   H     H_    0.053644 0.357058 0.907352 0.179490
C72   C     C_3   0.992705 0.662317 0.077981 -0.366987
C73   C     C_3   0.015182 0.690803 0.147217 -0.293591
C74   C     C_3   0.008773 0.513729 0.185785 -0.778200
H60   H     H_    0.961826 0.473934 0.187144 0.229557
H61   H     H_    0.033186 0.398892 0.164595 0.233438
H62   H     H_    0.026764 0.536491 0.235259 0.213675
H63   H     H_    0.062139 0.732525 0.148785 0.194996
H64   H     H_    0.990269 0.801800 0.169414 0.201984
H65   H     H_    0.946590 0.611735 0.075663 0.179845
H66   H     H_    0.019525 0.551822 0.057780 0.167539
C75   C     C_3   0.426853 0.839317 0.484768 -0.382284
C76   C     C_3   0.377297 0.881304 0.528613 -0.291752
C77   C     C_3   0.347148 0.062993 0.510338 -0.768111
H67   H     H_    0.379097 0.179302 0.513152 0.236803
H68   H     H_    0.326892 0.054327 0.461225 0.226336
H69   H     H_    0.312245 0.091425 0.543533 0.224953
H70   H     H_    0.343593 0.769946 0.524306 0.203607
H71   H     H_    0.395389 0.893985 0.578519 0.207871
H72   H     H_    0.457457 0.959521 0.487189 0.175767
H73   H     H_    0.407544 0.832638 0.435133 0.178790
C78   C     C_3   0.572700 0.173146 0.505108 -0.366534
C79   C     C_3   0.633733 0.209603 0.536812 -0.287720
C80   C     C_3   0.670915 0.035054 0.537224 -0.772865
H74   H     H_    0.649666 0.922810 0.563802 0.231785
H75   H     H_    0.676840 0.987973 0.487791 0.232302
H76   H     H_    0.714700 0.064774 0.560681 0.210454
H77   H     H_    0.656746 0.319999 0.511168 0.198409
H78   H     H_    0.629372 0.256253 0.586617 0.194736
H79   H     H_    0.550843 0.064092 0.532655 0.171514
H80   H     H_    0.576331 0.117640 0.456269 0.179484

loop_
_geom_bond_atom_site_label_1
_geom_bond_atom_site_label_2
_ccdc_geom_bond_type
O17   V3    S    
C66   H46   S    
C13   C53   S    
C77   H67   S    
C26   C30   A    
C58   H20   S    
C7    C17   S    
O19   V1    S    
O13   V1    S    
C75   C76   S    
O3    C7    A    
C61   H27   S    
C10   C14   A    
C48   C51   T    
C10   C30   A    
C36   C40   A    
O15   V3    S    
C40   C48   S    
C68   H50   S    
C59   H32   S    
C66   H44   S    
C76   H71   S    
C80   H74   S    
C26   O22   S    
O1    C5    A    
C56   H26   S    
C77   H68   S    
C57   H23   S    
C22   H6    S    
C4    C49   S    
C25   O21   S    
C67   H48   S    
C36   C43   A    
C1    C52   S    
C11   H3    S    
O4    C8    A    
C63   H38   S    
C78   H79   S    
C76   C77   S    
C3    C50   S    
O1    V3    S    
C21   C25   A    
C72   H66   S    
O2    V4    S    
C34   C72   S    
C14   C18   A    
C71   H55   S    
C75   H72   S    
C25   C29   A    
O3    V1    S    
C60   C61   S    
C64   H36   S    
C24   C28   A    
C68   H51   S    
C1    O15   A    
C72   C73   S    
C2    O16   A    
C34   C38   A    
C71   H53   S    
C67   H49   S    
C33   C37   A    
C65   H42   S    
O14   V2    S    
C73   H64   S    
C11   C15   A    
C69   H59   S    
C45   C50   T    
C62   H40   S    
H12   C43   S    
O11   C7    A    
C47   C52   T    
O12   C8    A    
C70   H57   S    
C34   C41   A    
C33   C42   A    
O10   V2    S    
C37   C45   S    
C35   C44   A    
C74   H61   S    
C59   H33   S    
C74   H60   S    
O5    V1    S    
C76   H70   S    
C80   H75   S    
C77   H69   S    
C2    C51   S    
O7    V3    S    
O8    V4    S    
C54   H16   S    
C67   H47   S    
C59   C60   S    
C55   H13   S    
C63   H37   S    
C19   C23   A    
C78   H80   S    
C16   C62   S    
C9    H1    S    
C31   C32   S    
C53   H18   S    
C22   C26   A    
O7    C3    A    
O2    C6    A    
C55   H14   S    
C56   C57   S    
C27   O23   S    
O8    C4    A    
C35   C75   S    
C17   C21   A    
O9    C5    A    
C61   H28   S    
C73   H63   S    
C62   C63   S    
O11   V3    S    
C64   H34   S    
C79   H78   S    
C9    C29   A    
O6    V2    S    
C6    C20   S    
C58   H22   S    
C70   H56   S    
C12   C16   A    
C65   H43   S    
C23   C27   A    
C60   H31   S    
C75   H73   S    
C12   H4    S    
C68   H52   S    
C74   H62   S    
O21   C65   S    
O16   V4    S    
C80   H76   S    
O9    V1    S    
C66   H45   S    
H10   C41   S    
C3    O13   A    
C37   C41   A    
H9    C42   S    
C10   H2    S    
C27   C31   A    
H11   C44   S    
C40   C44   A    
O5    C1    A    
O24   C68   S    
O6    C2    A    
O23   C67   S    
C54   H17   S    
O22   C66   S    
O18   V4    S    
O12   V4    S    
C46   C49   T    
C56   H25   S    
C18   C22   A    
C57   H24   S    
C70   C71   S    
C53   H19   S    
C28   C32   A    
C33   C69   S    
C73   C74   S    
O10   C6    A    
O20   V2    S    
C65   H41   S    
C9    C13   A    
C12   C32   A    
C14   C56   S    
C28   O24   S    
C55   H15   S    
C35   C39   A    
C39   C47   S    
C54   C55   S    
C69   H58   S    
C21   H5    S    
C57   C58   S    
C72   H65   S    
C61   H29   S    
C23   H7    S    
C71   H54   S    
C29   C30   S    
O4    V2    S    
C64   H35   S    
C15   C19   A    
C79   H77   S    
C78   C79   S    
C16   C20   A    
C20   C24   A    
C58   H21   S    
C38   C42   A    
C4    O14   A    
C13   C17   A    
C63   C64   S    
C11   C31   A    
C15   C59   S    
C36   C78   S    
C53   C54   S    
C69   C70   S    
C39   C43   A    
C60   H30   S    
C38   C46   S    
C79   C80   S    
C24   H8    S    
C8    C18   S    
C5    C19   S    
C62   H39   S    
