data_mof_unit_56107.cif
_audit_creation_date              2012-10-26T19:58:22-0400
_audit_creation_method            fapswitch 2.2
_symmetry_space_group_name_H-M    P1
_symmetry_Int_Tables_number       1
_space_group_crystal_system       triclinic
_cell_length_a                    7.457817
_cell_length_b                    8.68949
_cell_length_c                    13.388733
_cell_angle_alpha                 94.522895
_cell_angle_beta                  77.319493
_cell_angle_gamma                 103.354095
_cell_volume                      823.23876097

loop_
_atom_site_label
_atom_site_type_symbol
_atom_type_description
_atom_site_fract_x
_atom_site_fract_y
_atom_site_fract_z
_atom_type_partial_charge
C1    C     C_R   0.544917 0.800157 0.503836 0.533476
C2    C     C_R   0.337435 0.493719 0.806958 -0.056683
C3    C     C_2   0.568572 0.968165 0.507523 -0.158693
C4    C     C_R   0.399628 0.497679 0.694517 0.528831
C5    C     C_2   0.429492 0.031629 0.494553 -0.161867
C6    C     C_R   0.454526 0.199795 0.496894 0.541655
C7    C     C_R   0.601521 0.511095 0.305951 0.530034
C8    C     C_R   0.876352 0.682889 0.054780 -0.115405
C9    C     C_R   0.662291 0.537748 0.195914 0.010975
C10   C     C_R   0.153935 0.411934 0.848413 -0.108968
C11   C     C_R   0.099567 0.378043 0.951931 0.274955
C12   C     C_R   0.417437 0.506984 0.975981 -0.014990
C13   C     C_R   0.229991 0.425889 0.015439 -0.120149
C14   C     C_3   0.033067 0.245944 0.365860 -0.021359
C15   C     C_3   0.909300 0.150534 0.021248 -0.121703
C16   C     C_R   0.465293 0.553550 0.872649 0.014237
C17   C     C_R   0.558371 0.545561 0.036139 0.052169
C18   C     C_R   0.736834 0.643133 0.995930 0.072053
C19   C     C_R   0.772680 0.702930 0.898380 -0.143311
C20   C     C_R   0.638439 0.660645 0.838155 -0.112084
C21   C     C_R   0.528030 0.489008 0.135019 -0.105461
C22   C     C_R   0.838794 0.631312 0.154738 -0.116097
Cu1   Cu    Cu3+1 0.321300 0.483160 0.488710 0.970534
Cu2   Cu    Cu3+1 0.678700 0.516840 0.511290 1.006794
H1    H     H_    0.944045 0.670286 0.201051 0.130325
H2    H     H_    0.701034 0.039908 0.521544 0.121239
H3    H     H_    0.999663 0.175696 0.436080 0.119923
H4    H     H_    0.181447 0.255344 0.325685 0.133229
H5    H     H_    0.943874 0.179638 0.313452 0.080325
H6    H     H_    0.967093 0.155531 0.091506 0.104767
H7    H     H_    0.984929 0.082160 0.958682 0.106417
H8    H     H_    0.760115 0.085245 0.039843 0.144522
H9    H     H_    0.295997 0.959786 0.481566 0.126812
H10   H     H_    0.000631 0.601177 0.588824 0.192167
H11   H     H_    0.905426 0.782754 0.868285 0.095074
H12   H     H_    0.012672 0.757493 0.024390 0.095505
H13   H     H_    0.398885 0.408644 0.167794 0.102488
H14   H     H_    0.053386 0.368858 0.799707 0.149942
H15   H     H_    0.178277 0.402918 0.095721 0.117594
H16   H     H_    0.670996 0.716621 0.765149 0.136283
N1    N     N_2   0.947230 0.542220 0.528320 -0.187081
N2    N     N_2   0.052770 0.457780 0.471680 0.046262
O1    O     O_R   0.383920 0.714220 0.492660 -0.511041
O2    O     O_3   0.914754 0.303620 0.990763 -0.555446
O3    O     O_R   0.685730 0.742660 0.511730 -0.515387
O4    O     O_R   0.275440 0.478800 0.636790 -0.526799
O5    O     O_R   0.577250 0.507240 0.655860 -0.508836
O6    O     O_R   0.314270 0.257340 0.488270 -0.533768
O7    O     O_R   0.616080 0.285780 0.507340 -0.464962
O8    O     O_R   0.422750 0.492760 0.344140 -0.508513
O9    O     O_R   0.724560 0.521200 0.363210 -0.439673
O10   O     O_3   0.990801 0.395968 0.386807 -0.430312

loop_
_geom_bond_atom_site_label_1
_geom_bond_atom_site_label_2
_ccdc_geom_bond_type
C12   C17   A    
C2    C4    S    
Cu1   Cu2   S    
C15   H7    S    
C14   H3    S    
C2    C16   A    
N1    N2    D    
C8    C22   A    
C19   C20   A    
C16   C20   A    
C10   H14   S    
C9    C21   A    
C3    C5    D    
Cu2   O9    S    
C17   C18   A    
C7    O9    A    
C15   H8    S    
Cu1   O4    S    
C4    O4    A    
Cu2   N1    S    
C11   C13   A    
C1    O3    A    
H10   N1    S    
C6    O6    A    
Cu2   O3    S    
C14   O10   S    
C21   H13   S    
C15   O2    S    
C6    O7    A    
C5    C6    S    
C20   H16   S    
C17   C21   A    
C9    C22   A    
C13   H15   S    
C10   C11   A    
C14   H5    S    
C2    C10   A    
C12   C16   A    
C11   O2    S    
Cu1   O1    S    
C12   C13   A    
C15   H6    S    
C18   C19   A    
C8    H12   S    
Cu2   O7    S    
C7    C9    S    
C4    O5    A    
Cu1   O8    S    
C19   H11   S    
Cu1   O6    S    
C14   H4    S    
Cu2   O5    S    
C1    O1    A    
C3    H2    S    
C8    C18   A    
Cu1   N2    S    
C7    O8    A    
N2    O10   S    
C1    C3    S    
C22   H1    S    
C5    H9    S    
