data_mof_unit_36884.cif
_audit_creation_date              2013-03-05T16:18:24-0500
_audit_creation_method            fapswitch 2.2
_symmetry_space_group_name_H-M    P1
_symmetry_Int_Tables_number       1
_space_group_crystal_system       triclinic
_cell_length_a                    10.606808
_cell_length_b                    9.749576
_cell_length_c                    10.492714
_cell_angle_alpha                 89.7757
_cell_angle_beta                  89.48982
_cell_angle_gamma                 89.930089
_cell_volume                      1085.01919628

loop_
_atom_site_label
_atom_site_type_symbol
_atom_site_description
_atom_site_fract_x
_atom_site_fract_y
_atom_site_fract_z
_atom_type_partial_charge
O1    O     O_R   0.314910 0.616040 0.499970 -0.641260
O2    O     O_R   0.314910 0.383960 0.499970 -0.641964
C1    C     C_R   0.257971 0.500013 0.506366 0.822427
O3    O     O_R   0.500080 0.616020 0.313900 -0.605907
O4    O     O_R   0.500080 0.383980 0.313900 -0.597317
C2    C     C_R   0.499159 0.500444 0.257234 0.903989
Zn1   Zn    Zn3+2 0.500150 0.654960 0.499940 0.944278
Zn2   Zn    Zn3+2 0.500150 0.345040 0.499940 0.946373
O5    O     O_R   0.685320 0.616040 0.499930 -0.596677
O6    O     O_R   0.685320 0.383960 0.499930 -0.593523
O7    O     O_R   0.500150 0.616060 0.686000 -0.634573
O8    O     O_R   0.500150 0.383940 0.686000 -0.641501
C3    C     C_R   0.742141 0.499900 0.507041 0.843757
C4    C     C_R   0.500548 0.499646 0.742606 0.852816
C5    C     C_3   0.478762 0.629407 0.039653 -0.096175
C6    C     C_3   0.406996 0.417526 0.042888 -0.182609
C7    C     C_3   0.387308 0.545081 0.957627 -0.222397
H1    H     H_    0.296253 0.581225 0.918193 0.131264
H2    H     H_    0.460888 0.734586 0.075763 0.162421
H3    H     H_    0.331850 0.350399 0.082904 0.135119
C8    C     C_3   0.500322 0.498905 0.877542 -0.009134
C9    C     C_3   0.591835 0.583178 0.956765 -0.168398
C10   C     C_3   0.520076 0.371213 0.960011 -0.101352
C11   C     C_3   0.611619 0.455691 0.041909 -0.115225
C12   C     C_3   0.498639 0.501653 0.122167 0.022903
H4    H     H_    0.667001 0.650354 0.916843 0.146078
H5    H     H_    0.537077 0.265992 0.923495 0.151717
H6    H     H_    0.703315 0.420848 0.080751 0.168461
C13   C     C_3   0.071599 0.626113 0.585329 -0.397220
C14   C     C_3   0.071895 0.367819 0.576822 -0.397147
H7    H     H_    0.105459 0.723402 0.540910 0.186915
H8    H     H_    0.105217 0.274630 0.525463 0.186880
H9    H     H_    0.106542 0.623256 0.685074 0.154428
H10   H     H_    0.107546 0.361587 0.676189 0.159043
C15   C     C_3   0.927307 0.626011 0.585705 -0.397383
C16   C     C_3   0.927827 0.368383 0.578333 -0.395330
H11   H     H_    0.891086 0.623237 0.685622 0.150097
H12   H     H_    0.892358 0.364217 0.678481 0.154167
H13   H     H_    0.893997 0.723231 0.541800 0.230750
H14   H     H_    0.894403 0.274449 0.529703 0.233323
H15   H     H_    0.108154 0.600346 0.323023 0.173206
H16   H     H_    0.109149 0.416202 0.316666 0.167565
H17   H     H_    0.893657 0.598961 0.322910 0.209499
H18   H     H_    0.894562 0.414787 0.317789 0.199445
C17   C     C_3   0.073245 0.505823 0.371677 -0.420635
C18   C     C_3   0.121533 0.499979 0.510211 0.189487
C19   C     C_3   0.878617 0.499811 0.510853 0.164887
C20   C     C_3   0.928851 0.505138 0.372050 -0.366406
C21   C     C_3   0.372378 0.081279 0.527392 -0.350126
C22   C     C_3   0.371574 0.918800 0.523428 -0.354438
H19   H     H_    0.302032 0.121476 0.458674 0.163781
H20   H     H_    0.304539 0.883875 0.449352 0.160782
H21   H     H_    0.340434 0.116947 0.623024 0.180062
H22   H     H_    0.334517 0.877718 0.615489 0.182166
H23   H     H_    0.457666 0.109019 0.302569 0.051412
H24   H     H_    0.468951 0.884542 0.299613 0.048361
C23   C     C_3   0.535230 0.081155 0.369193 0.231801
C24   C     C_3   0.539993 0.918568 0.370614 0.229113
C25   C     C_3   0.584835 0.079926 0.595840 -0.247934
C26   C     C_3   0.581175 0.918677 0.598993 -0.244334
N1    N     N_3   0.499750 0.138610 0.497240 -0.095293
N2    N     N_3   0.499750 0.861390 0.497240 -0.096909
H25   H     H_    0.682790 0.116196 0.582951 0.201990
H26   H     H_    0.677431 0.875266 0.594758 0.196617
H27   H     H_    0.556302 0.119116 0.691272 0.148749
H28   H     H_    0.544762 0.885038 0.693897 0.154101
N3    N     N_R   0.649409 0.143728 0.313503 0.256955
O9    O     O_R   0.649993 0.176317 0.193141 -0.427860
O10   O     O_R   0.755521 0.147169 0.374223 -0.395503
N4    N     N_R   0.661677 0.862347 0.326049 0.257341
O11   O     O_R   0.669899 0.809582 0.212550 -0.417194
O12   O     O_R   0.764830 0.877846 0.390327 -0.402805

loop_
_geom_bond_atom_site_label_1
_geom_bond_atom_site_label_2
_geom_bond_distance
_ccdc_geom_bond_type
C24   N2    1.497651 S    
C15   C19   1.553641 S    
C17   C18   1.546303 S    
C5    H2    1.110112 S    
C22   H22   1.112926 S    
C4    C8    1.415815 S    
C26   N2    1.489975 S    
C15   H11   1.113599 S    
O4    C2    1.279729 A    
O7    C4    1.278962 A    
C5    C12   1.529573 S    
C2    C12   1.417277 S    
C13   H9    1.113627 S    
C16   C19   1.553544 S    
Zn1   O5    1.999925 S    
O5    C3    1.284301 A    
C5    C9    1.543103 S    
C6    C7    1.544174 S    
C21   H19   1.112144 S    
C22   H20   1.112720 S    
C10   C11   1.543355 S    
N4    O11   1.301303 A    
C10   H5    1.110453 S    
H17   C20   1.113935 S    
C6    H3    1.110440 S    
Zn2   N1    2.012926 S    
C26   H28   1.113224 S    
C25   C26   1.572844 S    
C8    C9    1.526404 S    
C23   N3    1.471979 S    
O3    Zn1   1.990105 S    
Zn1   O7    1.987314 S    
C25   N1    1.490945 S    
C21   N1    1.493521 S    
C14   H10   1.113647 S    
N3    O9    1.301040 A    
C16   H14   1.110153 S    
C11   C12   1.526338 S    
O3    C2    1.276212 A    
C3    C19   1.448476 S    
C24   N4    1.474614 S    
C7    C8    1.526243 S    
O1    C1    1.284229 A    
H16   C17   1.113953 S    
C15   H13   1.110915 S    
Zn1   N2    2.012694 S    
C19   C20   1.547065 S    
Zn2   O8    1.990229 S    
C7    H1    1.110548 S    
H23   C23   1.116939 S    
O8    C4    1.276984 A    
C6    C10   1.543333 S    
C8    C10   1.528637 S    
C22   N2    1.493263 S    
C9    C11   1.543080 S    
C17   C20   1.531559 S    
C6    C12   1.526857 S    
C5    C7    1.542724 S    
O1    Zn1   2.001562 S    
C14   C18   1.553705 S    
O2    Zn2   2.000653 S    
C11   H6    1.110241 S    
O6    C3    1.284389 A    
O4    Zn2   1.987187 S    
C23   N1    1.502313 S    
C13   C15   1.530448 S    
C1    C18   1.447384 S    
C25   H25   1.104919 S    
C14   C16   1.528048 S    
C13   C18   1.553266 S    
C26   H26   1.105339 S    
C16   H12   1.113589 S    
O2    C1    1.283615 A    
C13   H7    1.113691 S    
C25   H27   1.112466 S    
C14   H8    1.113754 S    
C23   C24   1.585917 S    
C21   H21   1.113103 S    
H24   C24   1.115975 S    
Zn2   O6    2.000834 S    
C21   C22   1.584843 S    
C9    H4    1.110504 S    
H15   C17   1.113907 S    
N4    O12   1.299671 A    
N3    O10   1.298778 A    
H18   C20   1.113895 S    
