data_mof_unit_49126.cif
_audit_creation_date              2012-12-11T15:29:47-0500
_audit_creation_method            fapswitch 2.2
_symmetry_space_group_name_H-M    P1
_symmetry_Int_Tables_number       1
_space_group_crystal_system       triclinic
_cell_length_a                    13.489169
_cell_length_b                    13.498782
_cell_length_c                    27.573841
_cell_angle_alpha                 90.596031
_cell_angle_beta                  90.020015
_cell_angle_gamma                 60.04282
_cell_volume                      4349.75319548

loop_
_atom_site_label
_atom_site_type_symbol
_atom_type_description
_atom_site_fract_x
_atom_site_fract_y
_atom_site_fract_z
_atom_type_partial_charge
C1    C     C_R   0.620327 0.101217 0.569884 0.545888
C2    C     C_1   0.649520 0.704374 0.657663 -0.047981
C3    C     C_3   0.065326 0.187436 0.736401 -0.098407
C4    C     C_R   0.599756 0.779214 0.568402 0.546341
C5    C     C_3   0.129285 0.087084 0.772043 -0.106252
C6    C     C_1   0.098188 0.199581 0.900362 -0.015385
C7    C     C_1   0.229836 0.137737 0.617163 -0.007823
C8    C     C_3   0.084537 0.266972 0.771221 -0.084033
C9    C     C_3   0.148945 0.166514 0.806041 0.045330
C10   C     C_3   0.199284 0.233293 0.745569 -0.085710
C11   C     C_3   0.179759 0.153883 0.711486 0.055745
C12   C     C_1   0.631199 0.731682 0.615802 -0.007550
C13   C     C_3   0.263316 0.133050 0.781110 -0.112427
C14   C     C_3   0.244269 0.053299 0.746264 -0.106695
C15   C     C_1   0.126295 0.179970 0.858329 -0.058496
C16   C     C_R   0.277801 0.121662 0.569407 0.546566
C17   C     C_1   0.202072 0.146538 0.659209 -0.045172
C18   C     C_3   0.650218 0.268594 0.738297 -0.101759
C19   C     C_3   0.563086 0.271025 0.775666 -0.098543
C20   C     C_1   0.691631 0.206583 0.901381 -0.015225
C21   C     C_1   0.635566 0.133366 0.617807 -0.013031
C22   C     C_3   0.750164 0.183096 0.770404 -0.102431
C23   C     C_3   0.722990 0.555772 0.766593 -0.110198
C24   C     C_3   0.662887 0.185238 0.806948 0.052068
C25   C     C_3   0.750662 0.081467 0.743656 -0.098873
C26   C     C_3   0.650929 0.167123 0.712310 0.052338
C27   C     C_3   0.663629 0.083801 0.780918 -0.102924
C28   C     C_R   0.621952 0.100200 0.431532 0.542135
C29   C     C_3   0.563607 0.169263 0.748818 -0.102174
C30   C     C_1   0.674607 0.195698 0.859289 -0.057723
C31   C     C_1   0.643922 0.152305 0.659958 -0.055857
C32   C     C_R   0.640073 0.722117 0.383031 0.024507
C33   C     C_R   0.723392 0.735315 0.358066 -0.125682
C34   C     C_3   0.680494 0.653729 0.804402 0.040892
C35   C     C_R   0.736120 0.717374 0.308476 -0.123816
C36   C     C_R   0.668547 0.682231 0.283380 0.037737
C37   C     C_R   0.593776 0.657467 0.309067 -0.121351
C38   C     C_R   0.578873 0.678228 0.358714 -0.130189
C39   C     C_R   0.575909 0.704648 0.203129 -0.121811
C40   C     C_R   0.601988 0.776766 0.430476 0.541719
C41   C     C_R   0.584741 0.681972 0.153600 -0.130774
C42   C     C_R   0.789308 0.610047 0.157534 -0.126928
C43   C     C_R   0.780906 0.630032 0.207034 -0.124145
C44   C     C_R   0.674919 0.673271 0.230452 0.036621
C45   C     C_3   0.609126 0.625038 0.738612 -0.112153
C46   C     C_R   0.692431 0.629499 0.131065 0.023425
C47   C     C_R   0.225458 0.137329 0.383487 0.024570
C48   C     C_R   0.248495 0.041271 0.355024 -0.126453
C49   C     C_R   0.224598 0.052918 0.305845 -0.122534
C50   C     C_R   0.174914 0.161080 0.284594 0.036622
C51   C     C_R   0.143776 0.258241 0.313790 -0.118838
C52   C     C_R   0.279042 0.120021 0.430998 0.542313
C53   C     C_R   0.169725 0.246341 0.362945 -0.126878
C54   C     C_R   0.175078 0.250946 0.206095 -0.120599
C55   C     C_R   0.147674 0.268809 0.157136 -0.129689
C56   C     C_3   0.663572 0.682846 0.709782 0.042031
C57   C     C_R   0.094267 0.121796 0.158546 -0.125965
C58   C     C_R   0.119740 0.105405 0.207505 -0.122345
C59   C     C_R   0.157136 0.172134 0.231985 0.036679
C60   C     C_R   0.103323 0.207025 0.133489 0.022918
C61   C     C_R   0.641112 0.139381 0.385016 0.023257
C62   C     C_R   0.548683 0.231643 0.361962 -0.124913
C63   C     C_R   0.555951 0.251788 0.313229 -0.121442
C64   C     C_3   0.775629 0.615109 0.737382 0.021958
C65   C     C_R   0.656404 0.181342 0.287029 0.036886
C66   C     C_R   0.752264 0.095591 0.311104 -0.120212
C67   C     C_3   0.566944 0.722255 0.777200 -0.102614
C68   C     C_R   0.744530 0.074325 0.359797 -0.128583
C69   C     C_R   0.716245 0.097409 0.204147 -0.119290
C70   C     C_R   0.728250 0.109688 0.154879 -0.127552
C71   C     C_R   0.618120 0.316004 0.164723 -0.127227
C72   C     C_R   0.607791 0.303761 0.214085 -0.122547
C73   C     C_R   0.659755 0.194437 0.234382 0.035480
C74   C     C_R   0.682379 0.219113 0.135217 0.024184
C75   C     C_R   0.049987 0.234748 0.947997 0.545927
C76   C     C_3   0.735272 0.711625 0.775824 -0.107395
C77   C     C_R   0.712031 0.561808 0.946425 0.545333
C78   C     C_3   0.621322 0.780426 0.747752 -0.116145
C79   C     C_R   0.722618 0.224065 0.949105 0.545411
C80   C     C_R   0.047782 0.243728 0.086353 0.542128
C81   C     C_R   0.709208 0.572373 0.084234 0.540478
C82   C     C_R   0.719772 0.233431 0.087470 0.540989
C83   C     C_1   0.697639 0.607154 0.898634 -0.014847
C84   C     C_1   0.889726 0.556070 0.714974 0.175087
C85   C     C_1   0.688984 0.633133 0.856593 -0.056095
Cr1   Cr    Cr6+3 0.417550 0.169090 0.500530 1.025736
Cr2   Cr    Cr6+3 0.669180 0.913420 0.499920 1.025679
Cr3   Cr    Cr6+3 0.413260 0.917540 0.499520 1.022447
Cr4   Cr    Cr6+3 0.909770 0.175810 0.018240 1.020606
Cr5   Cr    Cr6+3 0.913300 0.427650 0.016090 1.020704
Cr6   Cr    Cr6+3 0.657770 0.431010 0.016900 1.021982
H1    H     H_    0.787191 0.746921 0.791483 0.105510
H2    H     H_    0.827257 0.188707 0.779881 0.102517
H3    H     H_    0.772041 0.769043 0.375916 0.133016
H4    H     H_    0.492517 0.742311 0.220327 0.101675
H5    H     H_    0.508820 0.698810 0.133628 0.124361
H6    H     H_    0.794241 0.737293 0.289573 0.098644
H7    H     H_    0.858628 0.604889 0.227221 0.100025
H8    H     H_    0.873631 0.569513 0.141034 0.133940
H9    H     H_    0.543979 0.625980 0.290552 0.099358
H10   H     H_    0.515041 0.666349 0.377430 0.124023
H11   H     H_    0.292733 0.955913 0.369853 0.134245
H12   H     H_    0.344596 0.110537 0.799889 0.103120
H13   H     H_    0.207319 0.300892 0.223984 0.102870
H14   H     H_    0.156066 0.334479 0.138474 0.125034
H15   H     H_    0.579079 0.873023 0.739478 0.105059
H16   H     H_    0.250178 0.976542 0.284127 0.100048
H17   H     H_    0.104639 0.044461 0.226620 0.100793
H18   H     H_    0.059928 0.072964 0.141303 0.133367
H19   H     H_    0.150878 0.321529 0.384363 0.124413
H20   H     H_    0.467765 0.283508 0.380525 0.131605
H21   H     H_    0.753787 0.012107 0.218811 0.104752
H22   H     H_    0.777769 0.033952 0.132609 0.123107
H23   H     H_    0.227767 0.293779 0.734119 0.124091
H24   H     H_    0.480829 0.318418 0.295527 0.100040
H25   H     H_    0.564110 0.379908 0.236645 0.101584
H26   H     H_    0.480639 0.767010 0.794218 0.108544
H27   H     H_    0.583200 0.401477 0.150473 0.134339
H28   H     H_    0.831961 0.042570 0.291883 0.101714
H29   H     H_    0.817318 0.003389 0.376887 0.125116
H30   H     H_    0.557541 0.589426 0.722904 0.107129
H31   H     H_    0.765594 0.463101 0.774790 0.099433
H32   H     H_    0.100670 0.026768 0.783576 0.107246
H33   H     H_    0.984032 0.210109 0.717601 0.106969
H34   H     H_    0.018686 0.354966 0.782322 0.121521
H35   H     H_    0.310201 0.965140 0.735368 0.106704
H36   H     H_    0.102079 0.343001 0.298397 0.102861
H37   H     H_    0.485781 0.348760 0.789452 0.109189
H38   H     H_    0.645108 0.344230 0.720337 0.102827
H39   H     H_    0.486567 0.163601 0.739302 0.102311
H40   H     H_    0.668822 0.008081 0.798839 0.102372
H41   H     H_    0.828031 0.003688 0.729932 0.110960
N1    N     N_1   0.979677 0.509525 0.697238 -0.315666
O1    O     O_R   0.301780 0.195490 0.553940 -0.502143
O2    O     O_R   0.636050 0.541380 0.962520 -0.506816
O3    O     O_R   0.666480 0.323610 0.968170 -0.493645
O4    O     O_R   0.522450 0.158840 0.550250 -0.494329
O5    O     O_R   0.817280 0.156800 0.072180 -0.520002
O6    O     O_R   0.005110 0.187160 0.067410 -0.504945
O7    O     O_R   0.026450 0.340060 0.069950 -0.521978
O8    O     O_R   0.808300 0.527240 0.065170 -0.505989
O9    O     O_R   0.634070 0.548770 0.069460 -0.521853
O10   O     O_R   0.664650 0.330470 0.067300 -0.503917
O11   O     O_3   0.826940 0.344820 0.017080 -0.244720
O12   O     O_R   0.658840 0.818280 0.449970 -0.505780
O13   O     O_R   0.694460 0.003360 0.553820 -0.504621
O14   O     O_R   0.657750 0.819520 0.549120 -0.491309
O15   O     O_R   0.501990 0.803120 0.552700 -0.508165
O16   O     O_R   0.318230 0.023430 0.549370 -0.495537
O17   O     O_R   0.302950 0.194150 0.446980 -0.519181
O18   O     O_R   0.523540 0.157600 0.451100 -0.504778
O19   O     O_R   0.695630 0.002030 0.446860 -0.521883
O20   O     O_R   0.503160 0.801780 0.445740 -0.522013
O21   O     O_R   0.319320 0.022190 0.450230 -0.504773
O22   O     O_3   0.499990 0.000010 0.499990 -0.246597
O23   O     O_R   0.819250 0.149410 0.965240 -0.507517
O24   O     O_R   0.006940 0.180310 0.968270 -0.494564
O25   O     O_R   0.028420 0.332670 0.963010 -0.506147
O26   O     O_R   0.810130 0.520390 0.966030 -0.494599

loop_
_geom_bond_atom_site_label_1
_geom_bond_atom_site_label_2
_ccdc_geom_bond_type
C53   H19   S    
C7    C17   T    
C66   C68   A    
C63   C65   A    
C1    C21   S    
C23   C45   S    
Cr2   O13   S    
C26   C29   S    
C27   C29   S    
C27   H40   S    
Cr3   O16   S    
C35   C36   A    
C18   C26   S    
C43   H7    S    
Cr5   O11   S    
Cr1   O22   S    
C2    C12   T    
C33   H3    S    
C56   C78   S    
C6    C75   S    
C39   C41   A    
C20   C30   T    
C5    C9    S    
C79   O3    A    
C21   C31   T    
C55   C60   A    
C62   C63   A    
Cr2   O14   S    
C40   O12   A    
C55   H14   S    
C50   C59   S    
C54   H13   S    
C36   C37   A    
C76   C78   S    
C38   H10   S    
Cr1   O17   S    
C69   H21   S    
C41   H5    S    
C77   C83   S    
C52   O21   A    
C4    O15   A    
C19   H37   S    
C65   C73   S    
C18   C19   S    
C42   C46   A    
Cr5   O26   S    
C49   C50   A    
C9    C13   S    
C64   C84   S    
Cr1   O4    S    
C33   C35   A    
C79   O23   A    
Cr1   O1    S    
C57   H18   S    
Cr6   O3    S    
C47   C48   A    
C45   C56   S    
C8    C9    S    
Cr4   O6    S    
C22   C25   S    
C70   C74   A    
C41   C46   A    
C24   C27   S    
C69   C73   A    
C16   O16   A    
C32   C38   A    
C4    C12   S    
C58   H17   S    
C10   H23   S    
C47   C53   A    
Cr6   O9    S    
C63   H24   S    
C28   C61   S    
C75   O24   A    
C81   O8    A    
C6    C15   T    
C16   O1    A    
C26   C31   S    
C13   C14   S    
C1    O13   A    
C61   C62   A    
C67   C78   S    
C74   C82   S    
C23   H31   S    
Cr6   O10   S    
C54   C59   A    
C70   H22   S    
C64   C76   S    
C84   N1    T    
C62   H20   S    
Cr3   O22   S    
C23   C64   S    
C49   H16   S    
C3    C8    S    
C72   C73   A    
Cr4   O23   S    
C45   H30   S    
C25   C26   S    
C80   O7    A    
C4    O14   A    
C42   H8    S    
C51   C53   A    
C34   C85   S    
Cr3   O21   S    
Cr5   O25   S    
C43   C44   A    
C45   C67   S    
C37   C38   A    
C46   C81   S    
C29   H39   S    
C23   C34   S    
C48   H11   S    
C56   C64   S    
C50   C51   A    
Cr3   O15   S    
C67   H26   S    
C39   H4    S    
C5    C14   S    
C47   C52   S    
C77   O26   A    
C80   O6    A    
C75   O25   A    
C52   O17   A    
C81   O9    A    
C83   C85   T    
C76   H1    S    
C65   C66   A    
Cr2   O19   S    
C22   H2    S    
C22   C24   S    
C40   O20   A    
C36   C44   S    
C13   H12   S    
C42   C43   A    
C20   C79   S    
C1    O4    A    
C3    H33   S    
Cr6   O11   S    
C5    H32   S    
C54   C55   A    
C60   C80   S    
Cr2   O12   S    
C71   H27   S    
C18   C22   S    
C7    C16   S    
C82   O10   A    
C3    C5    S    
C10   C13   S    
C11   C17   S    
C34   C67   S    
C71   C74   A    
Cr5   O7    S    
Cr4   O24   S    
C39   C44   A    
C66   H28   S    
C25   C27   S    
Cr4   O11   S    
C72   H25   S    
C14   H35   S    
C78   H15   S    
C51   H36   S    
Cr3   O20   S    
C28   O19   A    
C19   C24   S    
C58   C59   A    
C71   C72   A    
C82   O5    A    
C2    C56   S    
Cr1   O18   S    
C32   C33   A    
C61   C68   A    
C57   C58   A    
C48   C49   A    
C11   C14   S    
Cr2   O22   S    
C32   C40   S    
C9    C15   S    
C69   C70   A    
C24   C30   S    
Cr5   O8    S    
C3    C11   S    
C10   C11   S    
C8    H34   S    
C57   C60   A    
Cr6   O2    S    
C28   O18   A    
C8    C10   S    
Cr4   O5    S    
C18   H38   S    
C77   O2    A    
C35   H6    S    
C25   H41   S    
C37   H9    S    
C68   H29   S    
C34   C76   S    
C19   C29   S    
