data_mof_unit_32523.cif
_audit_creation_date              2012-12-10T18:21:53-0500
_audit_creation_method            fapswitch 2.2
_symmetry_space_group_name_H-M    P1
_symmetry_Int_Tables_number       1
_space_group_crystal_system       triclinic
_cell_length_a                    19.442824
_cell_length_b                    10.630913
_cell_length_c                    9.394379
_cell_angle_alpha                 89.659476
_cell_angle_beta                  89.661614
_cell_angle_gamma                 90.397366
_cell_volume                      1941.65555759

loop_
_atom_site_label
_atom_site_type_symbol
_atom_type_description
_atom_site_fract_x
_atom_site_fract_y
_atom_site_fract_z
_atom_type_partial_charge
C1    C     C_R   0.500183 0.259482 0.500429 0.837336
C2    C     C_R   0.499431 0.740556 0.499545 0.813457
C3    C     C_3   0.518610 0.038425 0.626858 0.611895
C4    C     C_3   0.480358 0.961731 0.372901 0.601472
C5    C     C_3   0.563709 0.957969 0.528204 -0.311537
C6    C     C_3   0.435269 0.042336 0.471536 -0.318090
C7    C     C_3   0.499212 0.877266 0.498789 -0.107955
C8    C     C_3   0.499840 0.122858 0.501019 -0.109040
C9    C     C_3   0.454423 0.956818 0.599740 -0.300398
C10   C     C_3   0.544552 0.043337 0.400007 -0.285643
C11   C     C_3   0.523803 0.605268 0.049605 -0.042443
C12   C     C_3   0.476327 0.394640 0.950355 -0.017328
C13   C     C_3   0.462226 0.589692 0.949160 -0.032093
C14   C     C_3   0.537784 0.410215 0.050905 -0.043791
C15   C     C_3   0.561630 0.515480 0.948937 -0.048618
C16   C     C_3   0.438460 0.484244 0.050991 -0.034515
C17   C     C_R   0.367185 0.504508 0.501088 0.796276
C18   C     C_R   0.632662 0.497968 0.499009 0.808365
C19   C     C_R   0.252589 0.507544 0.635763 -0.057092
C20   C     C_R   0.746515 0.442914 0.379515 -0.062012
C21   C     C_R   0.180864 0.495740 0.633459 -0.145298
C22   C     C_R   0.818310 0.436193 0.386018 -0.135064
C23   C     C_R   0.145013 0.490846 0.505204 -0.067292
C24   C     C_R   0.854200 0.479141 0.504861 -0.063835
C25   C     C_R   0.181431 0.499757 0.376895 -0.218265
C26   C     C_R   0.817635 0.527906 0.620279 -0.217976
C27   C     C_R   0.252985 0.512721 0.375463 0.490141
C28   C     C_R   0.746105 0.537556 0.616411 0.504714
C29   C     C_R   0.290386 0.509663 0.504741 -0.241548
C30   C     C_R   0.709078 0.493715 0.496753 -0.223516
C31   C     C_R   0.929911 0.476946 0.506158 0.448160
C32   C     C_R   0.069348 0.482985 0.505898 0.447210
Cu1   Cu    Cu3+1 0.500020 0.499990 0.643150 0.968141
Cu2   Cu    Cu3+1 0.499980 0.500010 0.356850 0.957809
H1    H     H_    0.613652 0.528071 0.902440 0.189123
H2    H     H_    0.386930 0.466446 0.097225 0.203435
H3    H     H_    0.152603 0.493332 0.733264 0.198469
H4    H     H_    0.846484 0.398214 0.296279 0.195995
H5    H     H_    0.154445 0.499416 0.276334 0.185980
H6    H     H_    0.844465 0.561436 0.713552 0.177773
H7    H     H_    0.615812 0.921809 0.551213 0.141879
H8    H     H_    0.383428 0.080066 0.448176 0.154453
H9    H     H_    0.418687 0.918674 0.682168 0.147666
H10   H     H_    0.580352 0.081463 0.317677 0.166993
H11   H     H_    0.431209 0.666302 0.901698 0.100351
H12   H     H_    0.569079 0.334094 0.098708 0.132961
H13   H     H_    0.543935 0.693861 0.096074 0.147697
H14   H     H_    0.456143 0.306108 0.903832 0.153325
N1    N     N_R   0.034386 0.459934 0.384154 -0.227631
N2    N     N_R   0.964885 0.499262 0.628029 -0.228760
N3    N     N_R   0.966003 0.456818 0.384355 -0.231673
N4    N     N_R   0.033249 0.501973 0.627916 -0.233644
N5    N     N_3   0.500050 0.499970 0.858290 -0.160959
N6    N     N_3   0.499950 0.500030 0.141710 -0.168275
O1    O     O_R   0.500030 0.316850 0.620870 -0.545118
O2    O     O_R   0.499970 0.683150 0.379130 -0.549408
O3    O     O_R   0.500000 0.316860 0.379090 -0.598518
O4    O     O_R   0.500000 0.683140 0.620910 -0.601472
O5    O     O_R   0.400160 0.499980 0.620930 -0.607192
O6    O     O_R   0.599840 0.500020 0.379070 -0.618821
O7    O     O_R   0.400130 0.499990 0.379150 -0.529680
O8    O     O_R   0.599870 0.500010 0.620850 -0.523341
C33   C     C_2   0.284561 0.525389 0.777326 0.388634
H15   H     H_    0.326414 0.591835 0.790761 0.067373
O9    O     O_2   0.262597 0.469018 0.881941 -0.536133
C34   C     C_2   0.713840 0.395286 0.247925 0.375346
H16   H     H_    0.674147 0.448044 0.194530 0.096116
O10   O     O_2   0.733464 0.297596 0.193881 -0.541908
O11   O     O_3   0.285792 0.524889 0.245396 -0.564677
C35   C     C_3   0.287075 0.653502 0.207288 -0.253818
H17   H     H_    0.316138 0.710280 0.286331 0.159069
H18   H     H_    0.234158 0.691030 0.194343 0.156288
H19   H     H_    0.313833 0.664055 0.103246 0.183075
O12   O     O_3   0.712658 0.586052 0.733747 -0.579237
C36   C     C_3   0.709510 0.717767 0.718223 -0.332242
H20   H     H_    0.681841 0.744792 0.619477 0.144682
H21   H     H_    0.761819 0.760921 0.719031 0.172722
H22   H     H_    0.680387 0.756196 0.809824 0.179726
O13   O     O_3   0.537559 0.088156 0.760043 -0.574950
C37   C     C_3   0.560844 0.990156 0.848629 -0.324947
H23   H     H_    0.610493 0.952551 0.808975 0.161285
H24   H     H_    0.522032 0.913178 0.859492 0.157629
H25   H     H_    0.570179 0.028646 0.956303 0.195542
O14   O     O_3   0.461156 0.911951 0.239893 -0.586071
C38   C     C_3   0.439056 0.010297 0.150422 -0.347118
H26   H     H_    0.478932 0.085296 0.138503 0.168442
H27   H     H_    0.390032 0.050821 0.189895 0.174092
H28   H     H_    0.429053 0.971329 0.043212 0.187841

loop_
_geom_bond_atom_site_label_1
_geom_bond_atom_site_label_2
_ccdc_geom_bond_type
Cu1   O1    S    
C34   O10   D    
C33   O9    D    
Cu2   O2    S    
Cu1   O4    S    
C27   C29   A    
C1    C8    S    
C17   C29   S    
C11   H13   S    
C2    C7    S    
C12   H14   S    
C28   O12   S    
C6    C9    S    
C14   H12   S    
C20   C30   A    
C38   H26   S    
C15   N5    S    
C20   C34   S    
C19   C21   A    
C24   C26   A    
C4    C7    S    
C22   H4    S    
C32   N4    A    
C17   O7    A    
C11   C15   S    
C12   C16   S    
C19   C33   S    
Cu1   O8    S    
N1    N3    A    
Cu2   O3    S    
N2    N4    A    
C35   H17   S    
C18   C30   S    
C12   N5    S    
C27   O11   S    
C34   H16   S    
C3    O13   S    
Cu1   O5    S    
Cu2   O6    S    
C37   H25   S    
C15   H1    S    
C13   N5    S    
C38   H27   S    
Cu1   N5    S    
C9    H9    S    
O12   C36   S    
C10   H10   S    
O14   C38   S    
C4    C6    S    
C3    C8    S    
C5    C7    S    
C18   O8    A    
C6    C8    S    
Cu2   O7    S    
C33   H15   S    
C36   H20   S    
C3    C9    S    
C1    O3    A    
C4    O14   S    
C35   H19   S    
Cu1   Cu2   S    
C36   H21   S    
C11   N6    S    
C17   O5    A    
C18   O6    A    
C14   N6    S    
C12   C14   S    
Cu2   N6    S    
C21   C23   A    
C22   C24   A    
C20   C22   A    
C31   N2    A    
C4    C10   S    
C19   C29   A    
C38   H28   S    
C7    C9    S    
C5    H7    S    
C31   N3    A    
C37   H23   S    
C3    C5    S    
C2    O4    A    
C25   C27   A    
C26   C28   A    
C23   C32   S    
C28   C30   A    
C1    O1    A    
C24   C31   S    
C5    C10   S    
C2    O2    A    
C25   H5    S    
C13   H11   S    
C11   C13   S    
C26   H6    S    
C37   H24   S    
C23   C25   A    
O11   C35   S    
C36   H22   S    
C16   N6    S    
C32   N1    A    
O13   C37   S    
C21   H3    S    
C8    C10   S    
C6    H8    S    
C13   C16   S    
C14   C15   S    
C35   H18   S    
C16   H2    S    
