data_mof_unit_51197.cif
_audit_creation_date              2013-03-05T16:45:22-0500
_audit_creation_method            fapswitch 2.2
_symmetry_space_group_name_H-M    P1
_symmetry_Int_Tables_number       1
_space_group_crystal_system       triclinic
_cell_length_a                    8.889087
_cell_length_b                    10.652872
_cell_length_c                    9.911605
_cell_angle_alpha                 90.307839
_cell_angle_beta                  89.86027
_cell_angle_gamma                 89.827904
_cell_volume                      938.55194807

loop_
_atom_site_label
_atom_site_type_symbol
_atom_site_description
_atom_site_fract_x
_atom_site_fract_y
_atom_site_fract_z
_atom_type_partial_charge
O1    O     O_R   0.500020 0.316790 0.614690 -0.608274
O2    O     O_R   0.500000 0.316760 0.385350 -0.586011
C1    C     C_R   0.513652 0.260301 0.499108 0.918846
O3    O     O_R   0.285350 0.500020 0.614650 -0.590295
O4    O     O_R   0.285340 0.499980 0.385310 -0.613799
C2    C     C_R   0.218906 0.500248 0.500054 0.922528
Zn1   Zn    Zn3+2 0.500010 0.500020 0.653130 1.080077
Zn2   Zn    Zn3+2 0.499990 0.499980 0.346870 1.089816
O5    O     O_R   0.500000 0.683240 0.614650 -0.580915
O6    O     O_R   0.499980 0.683210 0.385310 -0.531612
O7    O     O_R   0.714660 0.500020 0.614690 -0.600617
O8    O     O_R   0.714650 0.499980 0.385350 -0.617184
C3    C     C_R   0.507245 0.740202 0.499826 0.940735
C4    C     C_R   0.781129 0.500289 0.499879 0.913230
C5    C     C_1   0.065500 0.500615 0.499929 -0.058440
C6    C     C_1   0.934543 0.500632 0.499641 -0.050835
C7    C     C_R   0.577046 0.064627 0.615333 -0.056408
C8    C     C_R   0.555357 0.129880 0.495430 -0.313080
C9    C     C_R   0.571483 0.063445 0.371834 0.190164
C10   C     C_R   0.563534 0.933208 0.373590 0.624132
C11   C     C_R   0.541908 0.871040 0.497289 -0.353858
C12   C     C_R   0.567902 0.936692 0.616468 -0.048877
C13   C     C_3   0.495533 0.933858 0.752715 0.530792
C14   C     C_3   0.510906 0.076699 0.753606 0.054228
H1    H     H_    0.377104 0.900946 0.750321 0.112475
H2    H     H_    0.401437 0.127561 0.757053 0.130016
C15   C     C_R   0.383481 0.448425 0.071065 0.107297
N1    N     N_R   0.499010 0.499140 0.142800 -0.096327
C16   C     C_R   0.621325 0.540763 0.071724 0.064717
H3    H     H_    0.717913 0.576857 0.125336 0.185239
C17   C     C_R   0.621260 0.540891 0.928106 0.074647
H4    H     H_    0.717728 0.577065 0.874445 0.196397
N2    N     N_R   0.499010 0.499180 0.857150 -0.106447
C18   C     C_R   0.383298 0.448441 0.929516 0.108000
C19   C     C_3   0.216831 0.476936 0.925241 0.328114
C20   C     C_3   0.218705 0.478742 0.080379 -0.065141
H5    H     H_    0.152686 0.402369 0.128374 0.165698
N3    N     N_R   0.584290 0.125191 0.244219 0.269804
O9    O     O_R   0.698483 0.197908 0.220011 -0.311522
O10   O     O_R   0.491164 0.097961 0.147423 -0.249869
N4    N     N_R   0.130386 0.370982 0.869973 0.195281
O11   O     O_R   0.163414 0.256317 0.904248 -0.352738
O12   O     O_R   0.016248 0.389960 0.790592 -0.340569
N5    N     N_R   0.186519 0.602778 0.139319 0.259120
O13   O     O_R   0.056227 0.623248 0.195371 -0.355454
O14   O     O_R   0.280429 0.695653 0.126942 -0.257860
F1    F     F_    0.569100 0.869979 0.254084 -0.549192
F2    F     F_    0.584476 0.872870 0.846526 -0.533738
N6    N     N_R   0.622285 0.124782 0.849476 0.319054
O15   O     O_R   0.758125 0.078737 0.853069 -0.211332
O16   O     O_R   0.592322 0.225861 0.918389 -0.327534
N7    N     N_R   0.174428 0.598522 0.865730 0.243417
O17   O     O_R   0.034658 0.635150 0.869994 -0.311103
O18   O     O_R   0.276135 0.678037 0.826585 -0.344795

loop_
_geom_bond_atom_site_label_1
_geom_bond_atom_site_label_2
_geom_bond_distance
_ccdc_geom_bond_type
O4    Zn2   1.944798 S    
Zn1   O7    1.944799 S    
C13   C14   1.528181 S    
C17   N2    1.369757 A    
C16   H3    1.081380 S    
C7    C12   1.365638 A    
C9    N3    1.433242 S    
C15   C20   1.501454 S    
Zn1   N2    2.022232 S    
N4    O11   1.302490 A    
C19   C20   1.537805 S    
Zn2   O8    1.946787 S    
N7    O18   1.300712 A    
N6    O16   1.298620 A    
C18   C19   1.510403 S    
C7    C8    1.393535 A    
C3    C11   1.428692 S    
C16   C17   1.423495 A    
C11   C12   1.389716 A    
N7    O17   1.301657 A    
N3    O10   1.300846 A    
N4    O12   1.301414 A    
O4    C2    1.280182 A    
O3    Zn1   1.946787 S    
C19   N4    1.471439 S    
O3    C2    1.281504 A    
N1    C16   1.370241 A    
O8    C4    1.281040 A    
O2    C1    1.286583 A    
C13   H1    1.110840 S    
C15   C18   1.402979 A    
N3    O9    1.301362 A    
Zn2   N1    2.022673 S    
O7    C4    1.280951 A    
C4    C6    1.363719 S    
C20   N5    1.468914 S    
C7    C14   1.494720 S    
C5    C6    1.164104 T    
C10   F1    1.360195 S    
C14   N6    1.465584 S    
N2    C18   1.366930 A    
C10   C11   1.409650 A    
C1    C8    1.437140 S    
Zn2   O6    1.986752 S    
N6    O15   1.302593 A    
C19   N7    1.474450 S    
Zn1   O5    1.990743 S    
C8    C9    1.418225 A    
O5    C3    1.294182 A    
C12   C13   1.494898 S    
C20   H5    1.112787 S    
C13   F2    1.385191 S    
N5    O14   1.302522 A    
O1    C1    1.296413 A    
C2    C5    1.363634 S    
O1    Zn1   1.986752 S    
C17   H4    1.081052 S    
O2    Zn2   1.990745 S    
N5    O13   1.300623 A    
C9    C10   1.389611 A    
C14   H2    1.112703 S    
C15   N1    1.361911 A    
O6    C3    1.286189 A    
