data_mof_unit_18474.cif
_audit_creation_date              2012-12-10T18:46:13-0500
_audit_creation_method            fapswitch 2.2
_symmetry_space_group_name_H-M    P1
_symmetry_Int_Tables_number       1
_space_group_crystal_system       triclinic
_cell_length_a                    9.846124
_cell_length_b                    10.7115
_cell_length_c                    13.103343
_cell_angle_alpha                 90.553561
_cell_angle_beta                  69.33814
_cell_angle_gamma                 89.980717
_cell_volume                      1293.00704539

loop_
_atom_site_label
_atom_site_type_symbol
_atom_type_description
_atom_site_fract_x
_atom_site_fract_y
_atom_site_fract_z
_atom_type_partial_charge
C1    C     C_R   0.501202 0.740015 0.497209 0.910881
C2    C     C_R   0.432341 0.505644 0.984126 0.077006
C3    C     C_R   0.448542 0.554171 0.881196 -0.002276
C4    C     C_R   0.543478 0.529226 0.027167 -0.002844
C5    C     C_R   0.663558 0.606956 0.970560 -0.026803
C6    C     C_R   0.657193 0.677245 0.881490 0.170548
C7    C     C_R   0.546820 0.652907 0.839514 0.168413
C8    C     C_R   0.537549 0.477667 0.125768 -0.275671
C9    C     C_R   0.759581 0.580642 0.117511 0.128825
C10   C     C_R   0.363234 0.504287 0.823993 -0.052287
C11   C     C_R   0.632849 0.935726 0.473258 -0.173631
C12   C     C_R   0.418682 0.503031 0.704863 0.922031
C13   C     C_R   0.632431 0.063658 0.474704 -0.183608
C14   C     C_R   0.500963 0.127376 0.497633 -0.011617
C15   C     C_R   0.370167 0.064026 0.518182 -0.190346
C16   C     C_R   0.370583 0.936211 0.516749 -0.156866
C17   C     C_R   0.501768 0.872457 0.494975 0.003826
C18   C     C_R   0.905365 0.405973 0.548542 -0.068285
C19   C     C_R   0.049121 0.406118 0.548697 -0.068371
C20   C     C_R   0.094395 0.594248 0.451915 -0.064444
C21   C     C_R   0.950439 0.594385 0.452296 -0.061804
C22   C     C_R   0.500185 0.259865 0.499547 0.856889
C23   C     C_R   0.581275 0.500977 0.294985 0.892436
C24   C     C_R   0.780292 0.618324 0.010324 0.241162
C25   C     C_R   0.632639 0.515480 0.176612 -0.142639
C26   C     C_R   0.239854 0.433671 0.878874 -0.135707
C27   C     C_R   0.207839 0.404410 0.987716 -0.149320
C28   C     C_R   0.304879 0.436153 0.039376 -0.160552
H1    H     H_    0.734444 0.112271 0.457681 0.151665
H2    H     H_    0.267750 0.112817 0.536402 0.149610
H3    H     H_    0.268386 0.887763 0.534206 0.160478
H4    H     H_    0.832780 0.330844 0.587515 0.131617
H5    H     H_    0.085155 0.331140 0.587826 0.121799
H6    H     H_    0.166774 0.669636 0.413274 0.127270
H7    H     H_    0.913649 0.670247 0.414863 0.125134
H8    H     H_    0.452733 0.414333 0.169829 0.163859
H9    H     H_    0.171651 0.396908 0.836476 0.158189
H10   H     H_    0.275245 0.406449 0.122647 0.131074
H11   H     H_    0.111616 0.350895 0.030530 0.146431
H12   H     H_    0.735054 0.886728 0.455513 0.149371
N1    N     N_R   0.142790 0.500030 0.500030 -0.074605
N2    N     N_R   0.857180 0.499940 0.500010 -0.074625
O1    O     O_R   0.385370 0.683250 0.500010 -0.624909
O2    O     O_R   0.614700 0.683220 0.500010 -0.605701
O3    O     O_R   0.328400 0.499990 0.653620 -0.591196
O4    O     O_R   0.557730 0.499960 0.653620 -0.597290
O5    O     O_R   0.385300 0.316780 0.499990 -0.634873
O6    O     O_R   0.614630 0.316750 0.499990 -0.632744
O7    O     O_R   0.442270 0.500040 0.346380 -0.620808
O8    O     O_R   0.671600 0.500010 0.346380 -0.586798
Zn1   Zn    Zn3+2 0.346870 0.500020 0.500000 0.961768
Zn2   Zn    Zn3+2 0.653130 0.499980 0.500000 0.967411
N3    N     N_2   0.861163 0.614382 0.167806 -0.280982
H13   H     H_    0.967232 0.591840 0.122272 0.263918
C29   C     C_3   0.844765 0.741258 0.209514 -0.729507
H14   H     H_    0.734608 0.755398 0.271316 0.224189
H15   H     H_    0.861989 0.808873 0.142378 0.256678
H16   H     H_    0.926248 0.760078 0.248359 0.217522
N4    N     N_2   0.751671 0.780437 0.841237 -0.250048
H17   H     H_    0.780656 0.795963 0.758750 0.263179
C30   C     C_3   0.710944 0.893295 0.906821 -0.672367
H18   H     H_    0.795225 0.965603 0.872963 0.236274
H19   H     H_    0.702198 0.875230 0.992255 0.238645
H20   H     H_    0.605451 0.929446 0.906303 0.249042
Br1   Br    Br    0.970275 0.678213 0.920838 -0.529322
Br2   Br    Br    0.503945 0.777301 0.749673 -0.534292

loop_
_geom_bond_atom_site_label_1
_geom_bond_atom_site_label_2
_ccdc_geom_bond_type
C30   H20   S    
C22   O6    A    
C29   H14   S    
C26   H9    S    
C6    C7    A    
C21   H7    S    
C1    O2    A    
C1    C17   S    
C28   H10   S    
C4    C8    A    
C20   H6    S    
C10   C26   A    
C11   H12   S    
C18   N2    A    
C2    C3    A    
C18   H4    S    
C9    C25   A    
N4    H17   S    
C9    C24   A    
C3    C10   A    
C13   C14   A    
C16   H3    S    
C8    C25   A    
C11   C13   A    
O2    Zn2   S    
C26   C27   A    
C5    C6    A    
C5    C24   A    
C10   C12   S    
C24   Br1   S    
O1    Zn1   S    
C2    C4    A    
C13   H1    S    
N1    Zn1   S    
C20   N1    A    
C3    C7    A    
C29   H15   S    
C8    H8    S    
C30   H18   S    
C22   O5    A    
N4    C30   S    
C23   O7    A    
O3    Zn1   S    
N3    C29   S    
C15   C16   A    
O4    Zn2   S    
O6    Zn2   S    
C23   C25   S    
C9    N3    S    
C20   C21   A    
C15   H2    S    
C14   C22   S    
C18   C19   A    
C19   H5    S    
C29   H16   S    
C19   N1    A    
O8    Zn2   S    
C30   H19   S    
O7    Zn1   S    
C14   C15   A    
C11   C17   A    
C23   O8    A    
C2    C28   A    
C7    Br2   S    
C12   O3    A    
N3    H13   S    
C4    C5    A    
C6    N4    S    
C1    O1    A    
O5    Zn1   S    
C21   N2    A    
C27   H11   S    
C16   C17   A    
C27   C28   A    
C12   O4    A    
N2    Zn2   S    
