data_mof_unit_14520.cif
_audit_creation_date              2012-12-11T16:08:39-0500
_audit_creation_method            fapswitch 2.2
_symmetry_space_group_name_H-M    P1
_symmetry_Int_Tables_number       1
_space_group_crystal_system       triclinic
_cell_length_a                    12.974829
_cell_length_b                    13.269964
_cell_length_c                    27.724917
_cell_angle_alpha                 94.860074
_cell_angle_beta                  90.158664
_cell_angle_gamma                 119.312583
_cell_volume                      4142.00744769

loop_
_atom_site_label
_atom_site_type_symbol
_atom_type_description
_atom_site_fract_x
_atom_site_fract_y
_atom_site_fract_z
_atom_type_partial_charge
C1    C     C_R   0.628700 0.894558 0.427858 0.568006
C2    C     C_R   0.580040 0.259267 0.220469 -0.094907
C3    C     C_R   0.568747 0.243746 0.269807 -0.093593
C4    C     C_R   0.663471 0.314578 0.303235 0.041913
C5    C     C_R   0.686372 0.345425 0.204212 0.035357
C6    C     C_1   0.695192 0.368065 0.154073 -0.050406
C7    C     C_1   0.650609 0.294892 0.353700 -0.040843
C8    C     C_1   0.703717 0.395131 0.113231 -0.006005
C9    C     C_R   0.167704 0.745871 0.352567 -0.125607
C10   C     C_R   0.148379 0.735650 0.302805 0.013952
C11   C     C_R   0.134709 0.724948 0.202116 -0.011876
C12   C     C_R   0.601034 0.222008 0.440549 0.544112
C13   C     C_R   0.127210 0.631147 0.224611 -0.121330
C14   C     C_R   0.131715 0.635622 0.274797 -0.123937
C15   C     C_R   0.125788 0.718495 0.152164 -0.188060
C16   C     C_R   0.116463 0.804234 0.129201 0.010878
C17   C     C_R   0.198160 0.942607 0.358539 -0.118554
C18   C     C_R   0.174223 0.932001 0.308665 0.011209
C19   C     C_R   0.154826 0.830142 0.280483 0.066522
C20   C     C_R   0.177416 0.024041 0.286050 -0.153424
C21   C     C_R   0.163483 0.015907 0.235634 -0.112183
C22   C     C_R   0.148730 0.916582 0.207136 0.025219
C23   C     C_R   0.267647 0.875700 0.426139 0.546708
C24   C     C_R   0.145811 0.823924 0.229889 0.009499
C25   C     C_R   0.132629 0.905769 0.156539 0.352766
C26   C     C_R   0.202631 0.852284 0.379799 -0.004595
C27   C     C_R   0.761348 0.926603 0.360058 0.366642
C28   C     C_R   0.768247 0.915567 0.310097 0.028703
C29   C     C_R   0.771612 0.906514 0.209372 0.014652
C30   C     C_R   0.866030 0.996830 0.237797 -0.143283
C31   C     C_R   0.865491 0.000151 0.287900 -0.092749
C32   C     C_R   0.774415 0.901383 0.159433 -0.112382
C33   C     C_R   0.689864 0.802719 0.130512 -0.007400
C34   C     C_R   0.627593 0.898247 0.564647 0.546999
C35   C     C_R   0.565502 0.755672 0.353762 -0.170794
C36   C     C_R   0.573943 0.738304 0.303729 0.008037
C37   C     C_R   0.673005 0.823166 0.281662 -0.014349
C38   C     C_R   0.483283 0.642950 0.274659 0.100091
C39   C     C_R   0.489707 0.635860 0.224225 -0.098035
C40   C     C_R   0.584537 0.723188 0.202135 -0.004848
C41   C     C_R   0.676209 0.817481 0.231060 0.057911
C42   C     C_R   0.592635 0.715386 0.151739 -0.133442
C43   C     C_R   0.655067 0.854064 0.381175 -0.003202
C44   C     C_R   0.741903 0.301125 0.651320 -0.120209
C45   C     C_R   0.603222 0.227516 0.578371 0.540810
C46   C     C_R   0.756908 0.324650 0.701909 0.016697
C47   C     C_R   0.771422 0.352903 0.803969 -0.005363
C48   C     C_R   0.862848 0.349564 0.778460 -0.117887
C49   C     C_R   0.855822 0.334193 0.727785 0.073519
C50   C     C_R   0.779821 0.371837 0.854583 -0.131933
C51   C     C_R   0.688826 0.378471 0.879401 0.003832
C52   C     C_R   0.559980 0.311195 0.652586 -0.104936
C53   C     C_R   0.568895 0.327652 0.702738 0.004262
C54   C     C_R   0.666557 0.332456 0.727666 -0.016848
C55   C     C_R   0.477775 0.331933 0.728382 0.362248
C56   C     C_R   0.271765 0.879387 0.563425 0.549015
C57   C     C_R   0.481834 0.337915 0.778603 -0.105981
C58   C     C_R   0.578406 0.343513 0.803687 -0.056897
C59   C     C_R   0.672142 0.342685 0.778423 0.032694
C60   C     C_R   0.585198 0.356166 0.853862 -0.127751
C61   C     C_R   0.640416 0.288256 0.627114 -0.033562
C62   C     C_1   0.221882 0.862534 0.610098 0.007885
C63   C     C_R   0.084619 0.740384 0.718260 -0.091410
C64   C     C_R   0.070121 0.730651 0.767915 -0.095061
C65   C     C_R   0.224333 0.931219 0.785527 -0.097425
C66   C     C_R   0.238783 0.940985 0.735831 -0.089148
C67   C     C_1   0.632713 0.268716 0.394675 0.004054
C68   C     C_R   0.169246 0.845484 0.702099 0.038359
C69   C     C_R   0.140614 0.825688 0.801672 0.036182
C70   C     C_1   0.123676 0.814061 0.852609 -0.052216
C71   C     C_1   0.192737 0.853162 0.651446 -0.036792
C72   C     C_1   0.100294 0.797268 0.894238 -0.007872
C73   C     C_1   0.647822 0.860652 0.608923 0.006689
C74   C     C_R   0.710893 0.910583 0.734031 -0.092918
C75   C     C_R   0.721272 0.894048 0.782452 -0.095564
C76   C     C_R   0.667337 0.693422 0.758736 -0.092764
C77   C     C_R   0.656660 0.709953 0.710095 -0.087308
C78   C     C_R   0.770146 0.400446 0.287004 -0.095804
C79   C     C_R   0.678335 0.818732 0.697737 0.037077
C80   C     C_R   0.699030 0.785473 0.794992 0.035839
C81   C     C_1   0.711513 0.770607 0.845057 -0.053049
C82   C     C_1   0.662536 0.837209 0.648505 -0.038255
C83   C     C_1   0.725698 0.761973 0.887164 -0.007760
C84   C     C_R   0.063536 0.771820 0.079731 0.575183
C85   C     C_R   0.717051 0.441481 0.067333 0.549896
C86   C     C_R   0.721358 0.782243 0.081486 0.552819
C87   C     C_R   0.056538 0.766299 0.941226 0.539071
C88   C     C_R   0.710246 0.434109 0.928981 0.536334
C89   C     C_R   0.781366 0.416063 0.237592 -0.102543
C90   C     C_R   0.748703 0.754423 0.936942 0.557878
Cr1   Cr    Cr6+3 0.416430 0.829200 0.492370 1.049932
Cr2   Cr    Cr6+3 0.674630 0.087020 0.504170 1.089716
Cr3   Cr    Cr6+3 0.408920 0.083740 0.503490 1.055767
Cr4   Cr    Cr6+3 0.914010 0.832750 0.013970 1.078538
Cr5   Cr    Cr6+3 0.922310 0.578600 0.003000 1.021073
Cr6   Cr    Cr6+3 0.656280 0.574630 0.003870 1.031898
H1    H     H_    0.844172 0.455326 0.312425 0.119071
H2    H     H_    0.165594 0.087876 0.219047 0.177136
H3    H     H_    0.191916 0.102686 0.307287 0.138237
H4    H     H_    0.222904 0.024266 0.379827 0.145870
H5    H     H_    0.849537 0.970071 0.143500 0.164720
H6    H     H_    0.940858 0.064287 0.221263 0.128885
H7    H     H_    0.939405 0.071349 0.309116 0.184398
H8    H     H_    0.527253 0.639055 0.129509 0.130920
H9    H     H_    0.420138 0.562095 0.202271 0.137599
H10   H     H_    0.863439 0.484054 0.225477 0.120921
H11   H     H_    0.485768 0.698495 0.370959 0.180983
H12   H     H_    0.859771 0.388349 0.874252 0.130713
H13   H     H_    0.804031 0.284934 0.630886 0.171804
H14   H     H_    0.939792 0.358355 0.797937 0.140868
H15   H     H_    0.513693 0.359584 0.872735 0.140728
H16   H     H_    0.410303 0.340055 0.797921 0.146744
H17   H     H_    0.483175 0.304312 0.633719 0.207539
H18   H     H_    0.031323 0.665632 0.692602 0.131181
H19   H     H_    0.505532 0.205146 0.195148 0.129419
H20   H     H_    0.004534 0.648764 0.780008 0.122482
H21   H     H_    0.278783 0.005404 0.811246 0.118413
H22   H     H_    0.305458 0.022353 0.723741 0.135648
H23   H     H_    0.727287 0.994868 0.724916 0.132859
H24   H     H_    0.746392 0.965890 0.810132 0.122525
H25   H     H_    0.650655 0.609228 0.768057 0.121773
H26   H     H_    0.630842 0.638143 0.682349 0.133279
H27   H     H_    0.485989 0.176642 0.281921 0.121994
H28   H     H_    0.114965 0.640460 0.131522 0.149985
H29   H     H_    0.168068 0.674885 0.369170 0.149694
H30   H     H_    0.116488 0.553853 0.203399 0.124408
H31   H     H_    0.125672 0.562362 0.291685 0.148294
O1    O     O_R   0.296680 0.802170 0.437540 -0.512357
O2    O     O_R   0.662610 0.183990 0.557860 -0.500010
O3    O     O_R   0.500730 0.201280 0.562180 -0.511402
O4    O     O_R   0.312500 0.978850 0.548170 -0.487135
O5    O     O_3   0.499990 0.999990 0.500010 -0.264827
O6    O     O_R   0.820790 0.857990 0.068830 -0.496457
O7    O     O_R   0.016700 0.827330 0.062850 -0.427538
O8    O     O_R   0.041970 0.673520 0.060040 -0.535195
O9    O     O_R   0.817980 0.483660 0.048840 -0.494750
O10   O     O_R   0.637200 0.461990 0.052510 -0.501551
O11   O     O_R   0.664790 0.681920 0.057970 -0.497170
O12   O     O_R   0.525380 0.838530 0.443500 -0.518561
O13   O     O_R   0.815840 0.852920 0.961840 -0.501418
O14   O     O_R   0.012100 0.822630 0.963670 -0.510157
O15   O     O_R   0.037010 0.668460 0.953040 -0.506281
O16   O     O_R   0.813390 0.478970 0.949660 -0.503850
O17   O     O_R   0.632250 0.456930 0.945520 -0.524793
O18   O     O_R   0.660200 0.677230 0.958780 -0.489901
O19   O     O_3   0.830870 0.661990 0.006950 -0.280808
O20   O     O_R   0.702130 0.995190 0.446810 -0.424738
O21   O     O_R   0.661770 0.181390 0.458760 -0.486044
O22   O     O_R   0.499820 0.198480 0.455280 -0.504759
O23   O     O_R   0.311660 0.976250 0.449080 -0.500305
O24   O     O_R   0.297580 0.804960 0.544440 -0.499877
O25   O     O_R   0.526220 0.841130 0.542590 -0.494626
O26   O     O_R   0.703030 0.997990 0.553710 -0.495499
F1    F     F_    0.853587 0.015403 0.387252 -0.620886
I1    I     I_    0.335628 0.503907 0.303597 -0.461158
I2    I     I_    0.999253 0.327605 0.693739 -0.348723
F2    F     F_    0.383135 0.326975 0.704892 -0.622166
F3    F     F_    0.126935 0.990624 0.134401 -0.639528

loop_
_geom_bond_atom_site_label_1
_geom_bond_atom_site_label_2
_ccdc_geom_bond_type
Cr4   O19   S    
C48   H14   S    
C84   O8    A    
C45   O2    A    
C64   H20   S    
Cr2   O21   S    
Cr4   O13   S    
C49   I2    S    
C66   C68   A    
C35   C36   A    
C53   C54   A    
Cr5   O16   S    
Cr6   O18   S    
C46   C49   A    
C84   O7    A    
C5    C6    S    
C33   C42   A    
C36   C37   A    
Cr2   O5    S    
C8    C85   S    
C90   O18   A    
C52   C61   A    
Cr6   O11   S    
C38   C39   A    
C57   H16   S    
C58   C60   A    
C15   C16   A    
C11   C24   A    
C16   C84   S    
Cr4   O6    S    
C18   C19   A    
C23   C26   S    
C77   H26   S    
C63   H18   S    
C11   C15   A    
C1    C43   S    
C3    H27   S    
C22   C25   A    
C89   H10   S    
Cr2   O26   S    
Cr3   O5    S    
C35   C43   A    
C75   C80   A    
C88   O16   A    
C18   C20   A    
C1    O12   A    
C44   H13   S    
C27   F1    S    
C40   C42   A    
C45   O3    A    
C21   C22   A    
Cr2   O20   S    
C50   H12   S    
C46   C54   A    
Cr3   O23   S    
Cr5   O19   S    
C38   I1    S    
C4    C7    S    
C81   C83   T    
C44   C46   A    
C9    C26   A    
C50   C51   A    
C47   C50   A    
C54   C59   A    
C53   C55   A    
C78   C89   A    
C12   C67   S    
Cr1   O1    S    
C76   C77   A    
C15   H28   S    
Cr6   O10   S    
C34   O25   A    
C6    C8    T    
Cr1   O5    S    
C34   C73   S    
C58   C59   A    
C52   H17   S    
C47   C59   A    
C9    H29   S    
C14   H31   S    
C31   H7    S    
C33   C86   S    
Cr2   O2    S    
C4    C78   A    
C29   C30   A    
C74   H23   S    
Cr6   O17   S    
C2    H19   S    
C86   O6    A    
C47   C48   A    
C10   C19   A    
C30   H6    S    
C78   H1    S    
Cr5   O8    S    
C17   C18   A    
C77   C79   A    
C64   C69   A    
C87   O14   A    
C56   O24   A    
Cr1   O12   S    
Cr3   O22   S    
C48   C49   A    
C23   O23   A    
C74   C79   A    
C55   C57   A    
C10   C14   A    
C22   C24   A    
C1    O20   A    
C2    C5    A    
C13   H30   S    
Cr3   O3    S    
C85   O10   A    
C73   C82   T    
C39   C40   A    
C72   C87   S    
C52   C53   A    
C9    C10   A    
C34   O26   A    
C16   C25   A    
C39   H9    S    
C83   C90   S    
C63   C68   A    
C40   C41   A    
C29   C41   A    
C20   C21   A    
Cr4   O14   S    
C12   O22   A    
C28   C31   A    
C75   H24   S    
C76   C80   A    
C80   C81   S    
C42   H8    S    
C51   C88   S    
C79   C82   S    
C90   O13   A    
C44   C61   A    
C29   C32   A    
Cr6   O19   S    
C32   C33   A    
C12   O21   A    
C36   C38   A    
C2    C3    A    
C60   H15   S    
Cr3   O4    S    
Cr1   O24   S    
C21   H2    S    
C11   C13   A    
C57   C58   A    
C30   C31   A    
C20   H3    S    
C28   C37   A    
C68   C71   S    
C65   C69   A    
C45   C61   S    
Cr5   O9    S    
Cr4   O7    S    
C17   C26   A    
C62   C71   T    
C19   C24   A    
C56   C62   S    
C87   O15   A    
C37   C41   A    
C69   C70   S    
C76   H25   S    
C17   H4    S    
C56   O4    A    
C35   H11   S    
C86   O11   A    
C85   O9    A    
C7    C67   T    
C63   C64   A    
C27   C43   A    
C55   F2    S    
C74   C75   A    
Cr5   O15   S    
C65   C66   A    
C66   H22   S    
C25   F3    S    
C65   H21   S    
C32   H5    S    
C70   C72   T    
C51   C60   A    
Cr1   O25   S    
C13   C14   A    
C88   O17   A    
C5    C89   A    
C3    C4    A    
C23   O1    A    
C27   C28   A    
