data_mof_unit_18738.cif
_audit_creation_date              2012-12-10T17:16:41-0500
_audit_creation_method            fapswitch 2.2
_symmetry_space_group_name_H-M    P1
_symmetry_Int_Tables_number       1
_space_group_crystal_system       triclinic
_cell_length_a                    10.218077
_cell_length_b                    10.64903
_cell_length_c                    10.746361
_cell_angle_alpha                 91.428287
_cell_angle_beta                  95.632223
_cell_angle_gamma                 81.995825
_cell_volume                      1152.28240452

loop_
_atom_site_label
_atom_site_type_symbol
_atom_type_description
_atom_site_fract_x
_atom_site_fract_y
_atom_site_fract_z
_atom_type_partial_charge
C1    C     C_R   0.444326 0.512641 0.267388 0.908972
C2    C     C_R   0.500764 0.738746 0.500014 0.864166
C3    C     C_R   0.543601 0.119175 0.276681 -0.155595
C4    C     C_R   0.457797 0.880555 0.723524 -0.154766
C5    C     C_R   0.571008 0.047828 0.169644 -0.148780
C6    C     C_R   0.431766 0.951677 0.830982 -0.149775
C7    C     C_R   0.574452 0.917103 0.170406 -0.150821
C8    C     C_R   0.428975 0.082351 0.830451 -0.150772
C9    C     C_R   0.550278 0.857687 0.278132 -0.149110
C10   C     C_R   0.452370 0.141969 0.722515 -0.151632
C11   C     C_R   0.525909 0.928343 0.389304 0.065158
C12   C     C_R   0.555958 0.496543 0.732720 0.909955
C13   C     C_R   0.475226 0.071493 0.610911 0.074924
C14   C     C_R   0.523009 0.059787 0.388706 0.072791
C15   C     C_R   0.477809 0.940067 0.611398 0.074558
C16   C     C_R   0.502389 0.871053 0.500420 -0.205388
C17   C     C_R   0.497840 0.128893 0.499542 -0.197087
C18   C     C_3   0.894308 0.754648 0.538742 -0.770787
C19   C     C_3   0.047476 0.472318 0.247262 -0.811711
C20   C     C_2   0.413876 0.535416 0.135217 -0.377148
C21   C     C_2   0.587892 0.509322 0.865697 -0.384432
C22   C     C_2   0.513238 0.551354 0.068119 -0.167573
C23   C     C_2   0.490518 0.555773 0.934802 -0.170077
C24   C     C_2   0.068489 0.503469 0.475713 0.218466
C25   C     C_2   0.924468 0.524075 0.498375 0.206783
C26   C     C_R   0.499233 0.261250 0.499875 0.868139
H1    H     H_    0.409298 0.137807 0.914003 0.138338
H2    H     H_    0.614872 0.549379 0.110035 0.189513
H3    H     H_    0.688344 0.478954 0.907284 0.155375
H4    H     H_    0.312901 0.537222 0.092227 0.147002
H5    H     H_    0.880917 0.371540 0.397606 0.175355
H6    H     H_    0.126318 0.599650 0.629544 0.167477
H7    H     H_    0.804334 0.620335 0.631807 0.274439
H8    H     H_    0.795648 0.812487 0.520196 0.259947
H9    H     H_    0.946951 0.753185 0.452829 0.243036
H10   H     H_    0.951632 0.800844 0.615523 0.230580
H11   H     H_    0.197754 0.374869 0.373529 0.279891
H12   H     H_    0.595207 0.861445 0.087202 0.140153
H13   H     H_    0.124790 0.500288 0.192390 0.247411
H14   H     H_    0.968923 0.555139 0.253272 0.241889
H15   H     H_    0.003016 0.393889 0.196944 0.232768
H16   H     H_    0.538666 0.220879 0.270100 0.141817
H17   H     H_    0.462250 0.778916 0.729881 0.139327
H18   H     H_    0.589174 0.094280 0.085851 0.139186
H19   H     H_    0.414258 0.905065 0.914926 0.141335
H20   H     H_    0.551167 0.756251 0.272707 0.150837
H21   H     H_    0.452346 0.243388 0.728186 0.151167
H22   H     H_    0.389757 0.586086 0.893725 0.188103
N1    N     N_2   0.157300 0.551390 0.551120 -0.221874
N2    N     N_2   0.842700 0.448610 0.448880 -0.222133
N3    N     N_2   0.878876 0.628097 0.576346 -0.312378
N4    N     N_2   0.106422 0.429178 0.369652 -0.304343
O1    O     O_R   0.568940 0.489660 0.307530 -0.616613
O2    O     O_R   0.431060 0.510340 0.692470 -0.619485
O3    O     O_R   0.348880 0.522640 0.340350 -0.605862
O4    O     O_R   0.651120 0.477360 0.659650 -0.627469
O5    O     O_R   0.610030 0.300280 0.483580 -0.604610
O6    O     O_R   0.389970 0.699720 0.516420 -0.602161
O7    O     O_R   0.389970 0.333270 0.516400 -0.636618
O8    O     O_R   0.610030 0.666730 0.483600 -0.620035
Zn1   Zn    Zn3+2 0.646940 0.477980 0.478080 0.923835
Zn2   Zn    Zn3+2 0.353060 0.522020 0.521920 0.926341

loop_
_geom_bond_atom_site_label_1
_geom_bond_atom_site_label_2
_ccdc_geom_bond_type
C24   N4    S    
C6    C8    A    
C2    O6    A    
C3    H16   S    
O6    Zn2   S    
N1    Zn2   S    
C6    H19   S    
H7    N3    S    
C2    C16   S    
C11   C16   A    
C1    C20   S    
C13   C17   A    
C4    C15   A    
C25   N3    S    
C1    O3    A    
C9    H20   S    
O4    Zn1   S    
C20   H4    S    
O5    Zn1   S    
C9    C11   A    
C14   C17   A    
C18   H10   S    
C12   O4    A    
C3    C14   A    
C19   H13   S    
C18   H8    S    
N2    Zn1   S    
C17   C26   S    
C19   N4    S    
C18   H9    S    
C8    C10   A    
C26   O5    A    
C5    H18   S    
C20   C22   D    
C18   N3    S    
C13   C15   A    
C21   C23   D    
C11   C14   A    
C2    O8    A    
H6    N1    S    
C19   H14   S    
H5    N2    S    
C4    H17   S    
C15   C16   A    
O3    Zn2   S    
C7    C9    A    
C10   H21   S    
C24   C25   S    
O1    Zn1   S    
C4    C6    A    
C26   O7    A    
C24   N1    D    
C5    C7    A    
H11   N4    S    
C1    O1    A    
C22   C23   S    
C8    H1    S    
O7    Zn2   S    
C22   H2    S    
C23   H22   S    
O2    Zn2   S    
C25   N2    D    
C21   H3    S    
C12   C21   S    
C7    H12   S    
C12   O2    A    
C19   H15   S    
O8    Zn1   S    
C3    C5    A    
C10   C13   A    
