data_mof_unit_54007.cif
_audit_creation_date              2012-12-11T18:07:22-0500
_audit_creation_method            fapswitch 2.2
_symmetry_space_group_name_H-M    P1
_symmetry_Int_Tables_number       1
_space_group_crystal_system       triclinic
_cell_length_a                    8.232224
_cell_length_b                    12.87534
_cell_length_c                    26.931618
_cell_angle_alpha                 96.855827
_cell_angle_beta                  93.306385
_cell_angle_gamma                 80.557385
_cell_volume                      2793.62669702

loop_
_atom_site_label
_atom_site_type_symbol
_atom_type_description
_atom_site_fract_x
_atom_site_fract_y
_atom_site_fract_z
_atom_type_partial_charge
Ba1   Ba    Ba6+2 0.859560 0.448380 0.523550 1.676425
Ba2   Ba    Ba6+2 0.330270 0.551530 0.476440 1.690088
C1    C     C_3   0.651915 0.063698 0.639839 -0.372158
C2    C     C_R   0.905682 0.605736 0.183633 0.637960
C3    C     C_2   0.728272 0.526446 0.269187 0.149289
C4    C     C_3   0.177482 0.222853 0.661782 0.315379
C5    C     C_3   0.685610 0.519182 0.322914 -0.082705
C6    C     C_1   0.979640 0.480245 0.343619 0.052594
C7    C     C_2   0.020259 0.482636 0.296711 -0.100795
C8    C     C_2   0.889579 0.509810 0.256804 0.203270
C9    C     C_R   0.020829 0.514520 0.105502 -0.069763
C10   C     C_R   0.055312 0.420330 0.128735 -0.026321
C11   C     C_R   0.130625 0.327636 0.101291 -0.041194
C12   C     C_3   0.676113 0.168193 0.623811 0.352109
C13   C     C_R   0.945465 0.607881 0.133282 -0.026787
C14   C     C_2   0.833333 0.526610 0.358547 -0.313940
C15   C     C_2   0.323109 0.444610 0.642171 -0.251320
C16   C     C_3   0.165882 0.205701 0.717193 0.041202
C17   C     C_R   0.186112 0.421932 0.977145 0.021127
C18   C     C_R   0.056451 0.609115 0.979252 0.019734
C19   C     C_R   0.140618 0.515400 0.952865 0.053096
C20   C     C_R   0.276527 0.332336 0.950000 -0.098897
C21   C     C_R   0.315584 0.333196 0.900632 -0.048880
C22   C     C_R   0.267340 0.423467 0.875769 -0.031408
C23   C     C_3   0.528708 0.785937 0.637397 0.510992
C24   C     C_R   0.180167 0.514890 0.901619 -0.079639
C25   C     C_R   0.133052 0.605458 0.876226 -0.043827
C26   C     C_R   0.172919 0.602793 0.825212 0.605794
C27   C     C_R   0.305903 0.423030 0.825444 0.580047
C28   C     C_3   0.208238 0.223160 0.417425 0.281529
C29   C     C_2   0.447275 0.457041 0.731030 -0.057890
C30   C     C_3   0.460503 0.404307 0.678102 -0.010290
C31   C     C_1   0.199944 0.518331 0.658568 0.060217
C32   C     C_2   0.167706 0.539083 0.707261 -0.094428
C33   C     C_2   0.297673 0.506273 0.746958 0.204429
C34   C     C_3   0.654256 0.805252 0.680134 -0.285639
C35   C     C_R   0.141299 0.420761 0.027510 0.022768
C36   C     C_R   0.061404 0.515151 0.054459 0.055660
C37   C     C_R   0.021260 0.609915 0.030894 0.020393
C38   C     C_R   0.172423 0.327589 0.051990 -0.091006
C39   C     C_R   0.910988 0.701340 0.110120 -0.051850
C40   C     C_3   0.210018 0.104763 0.405013 -0.346187
C41   C     C_R   0.009861 0.698687 0.952617 -0.094993
C42   C     C_R   0.047110 0.696664 0.902449 -0.050562
C43   C     C_R   0.947428 0.702470 0.060218 -0.089163
C44   C     C_R   0.742912 0.818146 0.466859 -0.273658
C45   C     C_3   0.993129 0.875191 0.340161 0.267837
C46   C     C_R   0.433461 0.186797 0.518510 -0.300587
C47   C     C_R   0.403630 0.008287 0.529529 -0.084895
C48   C     C_R   0.346227 0.116523 0.536706 -0.010031
C49   C     C_R   0.575309 0.150541 0.491466 0.054438
C50   C     C_R   0.632373 0.039080 0.481874 -0.054227
C51   C     C_R   0.544506 0.967194 0.501421 -0.059583
C52   C     C_3   0.979984 0.767499 0.573902 0.301967
C53   C     C_R   0.602403 0.856304 0.493854 0.060330
C54   C     C_R   0.834720 0.887273 0.449497 -0.038665
C55   C     C_R   0.777910 0.996996 0.455729 -0.101565
C56   C     C_3   0.062345 0.903618 0.292974 -0.212229
C57   C     C_3   0.963997 0.887657 0.580449 -0.295112
C58   C     C_3   0.716421 0.299138 0.374487 0.267599
C59   C     C_3   0.769443 0.251987 0.322242 -0.303584
C60   C     C_2   0.929879 0.928784 0.253739 0.444368
C61   C     C_2   0.016642 0.160393 0.727470 0.645091
C62   C     C_3   0.553447 0.810130 0.354518 0.358462
C63   C     C_3   0.553894 0.909578 0.329420 -0.335577
C64   C     C_R   0.011665 0.420132 0.178770 0.625300
H1    H     H_    0.764979 0.153247 0.593387 0.093522
H2    H     H_    0.823164 0.327392 0.395529 0.026794
H3    H     H_    0.613924 0.366077 0.371832 0.036819
H4    H     H_    0.658066 0.004241 0.606711 0.096644
H5    H     H_    0.868660 0.182940 0.324984 0.163125
H6    H     H_    0.817481 0.310649 0.302637 0.068023
H7    H     H_    0.663002 0.225679 0.299864 0.159404
H8    H     H_    0.553668 0.204079 0.609116 -0.064485
H9    H     H_    0.527835 0.070168 0.654422 0.156287
H10   H     H_    0.655057 0.890949 0.690122 0.144636
H11   H     H_    0.623667 0.772570 0.714193 0.118198
H12   H     H_    0.292958 0.074142 0.373817 0.117364
H13   H     H_    0.779429 0.766825 0.669434 0.146793
H14   H     H_    0.746527 0.037841 0.668515 0.190952
H15   H     H_    0.934666 0.802981 0.330537 0.011896
H16   H     H_    0.901000 0.943248 0.354993 0.003176
H17   H     H_    0.154149 0.836058 0.277499 0.109731
H18   H     H_    0.125769 0.973562 0.302587 0.097487
H19   H     H_    0.682844 0.777449 0.364794 -0.091099
H20   H     H_    0.479169 0.831991 0.388485 0.066468
H21   H     H_    0.634247 0.890700 0.296866 0.162344
H22   H     H_    0.599676 0.971501 0.356322 0.070042
H23   H     H_    0.254145 0.062516 0.437825 0.089156
H24   H     H_    0.090351 0.296054 0.655391 0.039124
H25   H     H_    0.427458 0.940249 0.315854 0.126961
H26   H     H_    0.147172 0.458953 0.286110 0.137222
H27   H     H_    0.157327 0.253730 0.117864 0.127851
H28   H     H_    0.547685 0.435679 0.757673 0.115371
H29   H     H_    0.384708 0.261791 0.881876 0.146492
H30   H     H_    0.322113 0.259851 0.965901 0.076663
H31   H     H_    0.226511 0.251782 0.033905 0.072533
H32   H     H_    0.854166 0.774681 0.130549 0.116002
H33   H     H_    0.941852 0.771946 0.969256 0.074141
H34   H     H_    0.083705 0.089005 0.393779 0.114213
H35   H     H_    0.304701 0.235231 0.655978 -0.041065
H36   H     H_    0.007858 0.767636 0.884172 0.132848
H37   H     H_    0.043346 0.571930 0.718265 0.118965
H38   H     H_    0.917576 0.778173 0.045924 0.072646
H39   H     H_    0.818861 0.566126 0.396328 0.078627
H40   H     H_    0.322350 0.407275 0.603916 0.079387
H41   H     H_    0.334019 0.957552 0.545457 0.128603
H42   H     H_    0.853049 0.048093 0.442323 0.099731
H43   H     H_    0.791161 0.734355 0.464298 0.046008
H44   H     H_    0.387192 0.270835 0.524034 0.064696
H45   H     H_    0.860598 0.743609 0.561615 -0.000673
H46   H     H_    0.157404 0.284785 0.739279 0.002919
H47   H     H_    0.334762 0.238416 0.427047 0.007525
H48   H     H_    0.128199 0.251106 0.449673 0.069049
H49   H     H_    0.924877 0.876021 0.219386 0.071531
H50   H     H_    0.914575 0.210803 0.746363 -0.005882
H51   H     H_    0.068702 0.737647 0.544122 0.092910
H52   H     H_    0.930459 0.919145 0.619159 0.171665
H53   H     H_    0.869705 0.922955 0.553909 0.046245
H54   H     H_    0.082346 0.912167 0.573066 0.149076
I1    I     I_    0.299022 0.867064 0.663135 -0.337050
I2    I     I_    0.525564 0.624039 0.629470 -0.386557
I3    I     I_    0.380085 0.112950 0.748047 -0.338989
I4    I     I_    0.535038 0.534587 0.212807 -0.404430
N1    N     N_R   0.936331 0.512026 0.205553 -0.416714
N2    N     N_R   0.258821 0.511773 0.800016 -0.427956
O1    O     O_2   0.907040 0.557650 0.617910 -0.449921
O2    O     O_2   0.163318 0.881520 0.471005 -0.490909
O3    O     O_3   0.124024 0.855700 0.375202 -0.579105
O4    O     O_3   0.139040 0.557570 0.557730 -0.488675
O5    O     O_3   0.571310 0.369620 0.475470 -0.476656
O6    O     O_2   0.348200 0.764910 0.523260 -0.457687
O7    O     O_3   0.572009 0.829307 0.595444 -0.664352
O8    O     O_2   0.340494 0.577678 0.329172 -0.444038
O9    O     O_3   0.482499 0.737142 0.320932 -0.555066
O10   O     O_2   0.039074 0.337743 0.198322 -0.579927
O11   O     O_2   0.381172 0.342162 0.804079 -0.583139
O12   O     O_3   0.661048 0.220301 0.397160 -0.634885
O13   O     O_2   0.842986 0.687206 0.207931 -0.602594
O14   O     O_2   0.132931 0.681915 0.803664 -0.563895
O15   O     O_3   0.684960 0.360550 0.588460 -0.461436
O16   O     O_2   0.807534 0.425002 0.679112 -0.498178
O17   O     O_3   0.031263 0.728132 0.619721 -0.599725
O18   O     O_3   0.737825 0.232432 0.664153 -0.599147
O19   O     O_2   0.841490 0.235060 0.476710 -0.480283
O20   O     O_3   0.099640 0.305100 0.564190 -0.500282
O21   O     O_2   0.009604 0.117615 0.536798 -0.491325
O22   O     O_2   0.827641 0.008829 0.259950 -0.580293
O23   O     O_3   0.137930 0.137230 0.628198 -0.567448
O24   O     O_2   0.009127 0.066927 0.715267 -0.515099
O25   O     O_2   0.282660 0.442310 0.382060 -0.460949
O26   O     O_3   0.050670 0.442340 0.442260 -0.505754
O27   O     O_3   0.504750 0.639360 0.411530 -0.490157
O28   O     O_3   0.150420 0.272412 0.374965 -0.629826
O29   O     O_3   0.618400 0.630290 0.524520 -0.444903
O30   O     O_3   0.090070 0.694820 0.435810 -0.462631
P1    P     P_3+3 0.072810 0.589830 0.610360 1.032728
P2    P     P_3+3 0.661990 0.251250 0.462170 0.977284
P3    P     P_3+3 0.148874 0.168122 0.566476 0.951449
P4    P     P_3+3 0.116900 0.410080 0.389630 0.994138
P5    P     P_3+3 0.047930 0.831677 0.431374 0.954104
P6    P     P_3+3 0.673040 0.363717 0.653110 0.984770
P7    P     P_3+3 0.536536 0.766644 0.534333 0.979250
P8    P     P_3+3 0.504767 0.616411 0.346211 1.041462

loop_
_geom_bond_atom_site_label_1
_geom_bond_atom_site_label_2
_ccdc_geom_bond_type
C56   C60   S    
C46   H44   S    
C19   C24   A    
O26   P4    S    
C57   H54   S    
C33   N2    S    
O9    P8    S    
Ba1   O19   S    
C26   O14   D    
C23   I2    S    
O21   P3    D    
C47   H41   S    
C3    I4    S    
C24   C25   A    
Ba2   O29   S    
C2    N1    Am   
C45   O3    S    
O4    P1    S    
C12   H8    S    
Ba1   P2    S    
C17   C19   A    
C16   H46   S    
C32   C33   S    
C35   C38   A    
C40   H34   S    
C34   H11   S    
C36   C37   A    
C16   C61   S    
C45   H16   S    
C60   H49   S    
C54   C55   A    
Ba1   O26   S    
Ba1   Ba2   S    
C4    H35   S    
Ba1   O29   S    
C22   C27   A    
C11   C38   A    
C34   H10   S    
C4    O23   S    
C9    C13   A    
C25   C42   A    
C46   C49   A    
C21   H29   S    
C6    C7    D    
C30   P6    S    
C44   C53   A    
Ba2   O6    S    
C21   C22   A    
C63   H21   S    
C8    N1    S    
C23   O7    S    
C7    C8    S    
O1    P1    D    
C16   I3    S    
C37   C43   A    
Ba2   O30   S    
C59   H5    S    
C46   C48   A    
C52   O17   S    
C62   O9    S    
O15   P6    S    
C6    C14   D    
C60   O22   D    
C27   N2    Am   
Ba1   O20   S    
C15   C31   D    
C1    H14   S    
O7    P7    S    
C7    H26   S    
C62   H20   S    
C26   N2    Am   
O17   P1    S    
C52   C57   S    
C51   C53   A    
Ba2   O26   S    
C4    C16   S    
C12   O18   S    
O27   P8    S    
C49   C50   A    
C1    H4    S    
C31   C32   D    
C13   C39   A    
Ba1   O4    S    
C38   H31   S    
C3    C5    S    
C18   C37   A    
C42   H36   S    
O20   P3    S    
O29   P7    S    
C4    H24   S    
C10   C64   A    
C54   P5    S    
C11   H27   S    
C58   C59   S    
C9    C36   A    
C41   C42   A    
C61   O24   D    
O28   P4    S    
C35   C36   A    
C43   H38   S    
C56   H18   S    
O12   P2    S    
C29   C30   S    
C12   H1    S    
C17   C20   A    
Ba2   O5    S    
O3    P5    S    
C18   C19   A    
O23   P3    S    
C1    C12   S    
C14   H39   S    
C64   O10   D    
C61   H50   S    
C59   H6    S    
C5    C14   S    
O30   P5    S    
C40   H12   S    
C57   H52   S    
C29   C33   D    
C52   H51   S    
C17   C35   A    
C6    P4    S    
C62   H19   S    
C18   C41   A    
C1    H9    S    
C50   C51   A    
C63   H22   S    
C28   H48   S    
Ba2   O25   S    
C63   H25   S    
C57   H53   S    
O18   P6    S    
C39   H32   S    
C20   H30   S    
Ba1   O1    S    
C41   H33   S    
Ba1   O5    S    
C34   H13   S    
O16   P6    D    
C9    C10   A    
C48   P3    S    
Ba2   O27   S    
C29   H28   S    
C27   O11   D    
C5    P8    S    
C49   P2    S    
C32   H37   S    
C64   N1    Am   
O5    P2    S    
C59   H7    S    
O25   P4    D    
C40   H23   S    
C2    C13   A    
Ba1   P1    S    
O6    P7    D    
C53   P7    S    
C3    C8    D    
C15   H40   S    
C62   C63   S    
C2    O13   D    
O19   P2    D    
C22   C24   A    
C58   H3    S    
C47   C51   A    
O2    P5    D    
Ba2   O4    S    
O8    P8    D    
C52   H45   S    
C45   H15   S    
C31   P1    S    
Ba1   O15   S    
C50   C55   A    
C23   C34   S    
C28   O28   S    
C55   H42   S    
C10   C11   A    
C58   H2    S    
Ba2   P4    S    
C47   C48   A    
C44   H43   S    
C44   C54   A    
C25   C26   A    
C15   C30   S    
C39   C43   A    
C20   C21   A    
C28   C40   S    
C56   H17   S    
C23   I1    S    
C58   O12   S    
C45   C56   S    
C28   H47   S    
