data_mof_unit_56764.cif
_audit_creation_date              2012-12-11T14:25:42-0500
_audit_creation_method            fapswitch 2.2
_symmetry_space_group_name_H-M    P1
_symmetry_Int_Tables_number       1
_space_group_crystal_system       triclinic
_cell_length_a                    6.980436
_cell_length_b                    14.684609
_cell_length_c                    16.235475
_cell_angle_alpha                 90.689411
_cell_angle_beta                  90.074511
_cell_angle_gamma                 90.150935
_cell_volume                      1664.08920872

loop_
_atom_site_label
_atom_site_type_symbol
_atom_type_description
_atom_site_fract_x
_atom_site_fract_y
_atom_site_fract_z
_atom_type_partial_charge
O1    O     O_R   0.494490 0.416160 0.413410 -0.544540
O2    O     O_R   0.823830 0.407240 0.585990 -0.545215
O3    O     O_R   0.994160 0.583840 0.586590 -0.537124
C1    C     C_R   0.654440 0.384732 0.613102 0.723690
O4    O     O_R   0.824200 0.405280 0.414020 -0.541694
O5    O     O_R   0.994530 0.581860 0.413390 -0.542552
C2    C     C_R   0.654853 0.383175 0.385823 0.737324
O6    O     O_R   0.494110 0.418140 0.586610 -0.541400
O7    O     O_3   0.660810 0.557940 0.500000 -0.367102
V1    V     V_3+5 0.935650 0.489250 0.500000 1.411607
O8    O     O_R   0.324250 0.592760 0.414010 -0.545368
C3    C     C_R   0.156395 0.611246 0.383817 0.717311
O9    O     O_R   0.323880 0.594720 0.585980 -0.525252
C4    C     C_R   0.155338 0.617499 0.614447 0.699028
V2    V     V_3+5 0.435660 0.510750 0.500000 1.430948
O10   O     O_3   0.160630 0.442060 0.500000 -0.376105
C5    C     C_3   0.988689 0.657862 0.749514 0.258634
H1    H     H_    0.847998 0.654728 0.716633 0.129033
C6    C     C_3   0.965817 0.730139 0.820134 -0.372607
H2    H     H_    0.977800 0.697395 0.881413 0.165284
H3    H     H_    0.820175 0.760130 0.818474 0.113659
H4    H     H_    0.944308 0.888760 0.731745 0.141248
C7    C     C_3   0.087541 0.784039 0.652823 0.239210
C8    C     C_3   0.345360 0.703132 0.727674 0.252082
C9    C     C_3   0.144286 0.688183 0.684662 -0.067723
H5    H     H_    0.406160 0.634945 0.741228 0.115435
C10   C     C_3   0.120444 0.804893 0.812014 0.004014
C11   C     C_3   0.081287 0.852732 0.727789 -0.371374
C12   C     C_3   0.314985 0.751589 0.812627 -0.411202
H6    H     H_    0.307479 0.697916 0.860475 0.148822
H7    H     H_    0.441539 0.790146 0.835074 0.136025
H8    H     H_    0.203797 0.806592 0.612358 0.110602
H9    H     H_    0.179301 0.910634 0.717799 0.101093
C13   C     C_2   0.992644 0.699444 0.274656 -0.218192
C14   C     C_2   0.154642 0.670306 0.310810 -0.293962
H10   H     H_    0.855560 0.677637 0.299253 0.133863
H11   H     H_    0.292774 0.685823 0.283857 0.183030
C15   C     C_2   0.988761 0.756161 0.198143 0.328154
C16   C     C_2   0.121234 0.822147 0.183313 0.150405
C17   C     C_2   0.778628 0.204957 0.778274 -0.135654
C18   C     C_2   0.614547 0.176204 0.813379 -0.322429
H12   H     H_    0.914053 0.177193 0.799171 0.139376
H13   H     H_    0.477216 0.202155 0.793659 0.131959
C19   C     C_2   0.790192 0.273577 0.711482 -0.146478
C20   C     C_2   0.638098 0.316460 0.678826 -0.311104
H14   H     H_    0.932683 0.289444 0.688927 0.134699
H15   H     H_    0.494427 0.302208 0.700132 0.133963
C21   C     C_2   0.778307 0.207229 0.212834 -0.129357
C22   C     C_2   0.614482 0.179822 0.175715 -0.310367
H16   H     H_    0.913432 0.178553 0.192119 0.135870
H17   H     H_    0.477747 0.207735 0.194477 0.127531
C23   C     C_2   0.790432 0.275982 0.281218 -0.134703
C24   C     C_2   0.638102 0.314629 0.318569 -0.307467
H18   H     H_    0.933557 0.294785 0.301621 0.134968
H19   H     H_    0.493836 0.296504 0.299995 0.128981
O11   O     O_R   0.770850 0.076180 0.907410 -0.539904
O12   O     O_R   0.440600 0.088970 0.079950 -0.547197
O13   O     O_R   0.270430 0.912340 0.080550 -0.546727
C25   C     C_R   0.609345 0.111035 0.108279 0.742017
O14   O     O_R   0.441120 0.087010 0.907980 -0.546464
O15   O     O_R   0.270950 0.910370 0.907350 -0.544348
C26   C     C_R   0.609747 0.108441 0.879917 0.733153
O16   O     O_R   0.770320 0.078150 0.080620 -0.539041
O17   O     O_3   0.604200 0.936340 0.994000 -0.364407
V3    V     V_3+5 0.329300 0.004970 0.993950 1.398642
O18   O     O_R   0.941240 0.899420 0.907920 -0.545993
C27   C     C_R   0.110316 0.874720 0.881692 0.705671
O19   O     O_R   0.940720 0.901380 0.079890 -0.513489
C28   C     C_R   0.109380 0.881084 0.109075 0.692236
V4    V     V_3+5 0.829310 0.983370 0.993880 1.439144
O20   O     O_3   0.104280 0.052120 0.993920 -0.376629
O21   O     O_3   0.840531 0.743379 0.142495 -0.653648
H20   H     H_    0.758592 0.692699 0.161807 0.282360
O22   O     O_3   0.265238 0.838226 0.240421 -0.672463
H21   H     H_    0.337746 0.893520 0.224980 0.289758
O23   O     O_3   0.042672 0.573133 0.784114 -0.587042
C29   C     C_3   0.888569 0.510156 0.784788 0.079118
H22   H     H_    0.950309 0.441458 0.794332 0.148063
H23   H     H_    0.812630 0.507130 0.724642 0.116952
C30   C     C_3   0.747617 0.530535 0.855099 -0.345583
H24   H     H_    0.825855 0.531111 0.914763 0.207905
H25   H     H_    0.681072 0.598349 0.846523 0.180871
C31   C     C_3   0.587847 0.459532 0.857867 -0.808373
H26   H     H_    0.504476 0.459882 0.799536 0.231344
H27   H     H_    0.489307 0.475767 0.909593 0.234763
H28   H     H_    0.648443 0.390593 0.867420 0.240650
O24   O     O_3   0.911969 0.782760 0.608201 -0.570358
C32   C     C_3   0.943282 0.788198 0.521653 0.132160
H29   H     H_    0.814606 0.761069 0.489312 0.139428
H30   H     H_    0.063887 0.743952 0.501526 0.094300
C33   C     C_3   0.977520 0.887172 0.494434 -0.413435
H31   H     H_    0.839447 0.923666 0.489972 0.207085
H32   H     H_    0.068573 0.924477 0.539644 0.194710
C34   C     C_3   0.073448 0.891225 0.410423 -0.761569
H33   H     H_    0.211914 0.854117 0.411188 0.248493
H34   H     H_    0.101741 0.963291 0.394315 0.226445
H35   H     H_    0.977310 0.861115 0.362945 0.249499
O25   O     O_3   0.476152 0.745719 0.671070 -0.568580
C35   C     C_3   0.538593 0.836474 0.689182 0.136373
H36   H     H_    0.682951 0.830526 0.712796 0.166888
H37   H     H_    0.462238 0.875057 0.736738 0.089539
C36   C     C_3   0.535384 0.897343 0.612800 -0.288658
H38   H     H_    0.591192 0.859890 0.558621 0.219031
H39   H     H_    0.387560 0.917997 0.597722 0.154347
C37   C     C_3   0.645156 0.986323 0.627565 -0.843504
H40   H     H_    0.588939 0.022468 0.682923 0.227975
H41   H     H_    0.627201 0.031313 0.573626 0.228945
H42   H     H_    0.799930 0.973528 0.635961 0.240670

loop_
_geom_bond_atom_site_label_1
_geom_bond_atom_site_label_2
_ccdc_geom_bond_type
O24   C32   S    
C16   O22   S    
C10   C12   S    
C6    H2    S    
C1    O6    A    
C29   H22   S    
C19   C20   D    
C37   H41   S    
C8    O25   S    
C6    H3    S    
C8    H5    S    
O5    C3    A    
C15   C16   D    
C36   H39   S    
O12   C25   A    
V2    O10   S    
C36   C37   S    
O14   C26   A    
C13   C14   D    
C20   H15   S    
C8    C12   S    
O1    C2    A    
O8    V2    S    
C31   H26   S    
C19   H14   S    
O19   C28   A    
C22   H17   S    
C5    O23   S    
O16   V4    S    
V4    O20   S    
O1    V2    S    
O17   V4    S    
C6    C10   S    
O7    V1    S    
C21   H16   S    
O18   C27   A    
C7    O24   S    
O9    C4    A    
C18   H13   S    
C34   H33   S    
C18   C26   S    
C30   C31   S    
C23   H18   S    
C1    C20   S    
C24   H19   S    
C37   H42   S    
C15   O21   S    
O22   H21   S    
O23   C29   S    
C30   H25   S    
C33   H31   S    
O4    C2    A    
C30   H24   S    
C34   H35   S    
V3    O20   S    
O2    C1    A    
O5    V1    S    
C12   H6    S    
C33   H32   S    
O15   C27   A    
O13   V3    S    
C35   H36   S    
C32   C33   S    
C21   C23   S    
C31   H28   S    
C5    H1    S    
C16   C28   S    
C29   H23   S    
C7    C11   S    
C8    C9    S    
C3    C14   S    
C34   H34   S    
O3    C4    A    
C17   C18   D    
C31   H27   S    
C32   H30   S    
O14   V3    S    
O6    V2    S    
O11   V4    S    
O9    V2    S    
O11   C26   A    
C2    C24   S    
O2    V1    S    
C23   C24   D    
C29   C30   S    
C21   C22   D    
C14   H11   S    
C13   C15   S    
O12   V3    S    
O21   H20   S    
C11   H9    S    
O8    C3    A    
O13   C28   A    
C37   H40   S    
C25   O16   A    
C22   C25   S    
C5    C9    S    
C7    H8    S    
O7    V2    S    
O4    V1    S    
C12   H7    S    
O3    V1    S    
V1    O10   S    
O17   V3    S    
C33   C34   S    
O18   V4    S    
C17   H12   S    
C5    C6    S    
C13   H10   S    
C7    C9    S    
C4    C9    S    
C36   H38   S    
C10   C27   S    
O15   V3    S    
C17   C19   S    
C35   C36   S    
C32   H29   S    
O19   V4    S    
O25   C35   S    
C10   C11   S    
H4    C11   S    
C35   H37   S    
