data_mof_unit_13048.cif
_audit_creation_date              2013-03-05T16:06:55-0500
_audit_creation_method            fapswitch 2.2
_symmetry_space_group_name_H-M    P1
_symmetry_Int_Tables_number       1
_space_group_crystal_system       triclinic
_cell_length_a                    10.801992
_cell_length_b                    9.54242
_cell_length_c                    10.85742
_cell_angle_alpha                 90.22532
_cell_angle_beta                  90.823009
_cell_angle_gamma                 90.05366
_cell_volume                      1119.02718964

loop_
_atom_site_label
_atom_site_type_symbol
_atom_site_description
_atom_site_fract_x
_atom_site_fract_y
_atom_site_fract_z
_atom_type_partial_charge
O1    O     O_R   0.319640 0.618740 0.499990 -0.577179
O2    O     O_R   0.680360 0.618740 0.500010 -0.551914
O3    O     O_R   0.319620 0.381170 0.499990 -0.538565
O4    O     O_R   0.680380 0.381170 0.500010 -0.524284
C1    C     C_R   0.262165 0.500327 0.498824 0.958586
C2    C     C_R   0.737317 0.499936 0.500278 0.919543
O5    O     O_R   0.499990 0.618810 0.319660 -0.585272
O6    O     O_R   0.500010 0.618810 0.680340 -0.569444
O7    O     O_R   0.499960 0.381240 0.319650 -0.543231
O8    O     O_R   0.500040 0.381240 0.680350 -0.573466
C3    C     C_R   0.503413 0.499626 0.262814 0.873718
C4    C     C_R   0.500773 0.500044 0.737314 0.804001
Cu1   Cu    Cu3+1 0.500000 0.640660 0.500000 1.039369
Cu2   Cu    Cu3+1 0.500000 0.359340 0.500000 1.096829
C5    C     C_R   0.511296 0.620412 0.062934 0.027755
C6    C     C_R   0.506839 0.621068 0.938631 0.022785
C7    C     C_R   0.508513 0.497635 0.130324 -0.029176
C8    C     C_R   0.503614 0.498377 0.869934 -0.077592
C9    C     C_R   0.508792 0.370224 0.064079 -0.125236
C10   C     C_R   0.505610 0.370466 0.934933 -0.191086
H1    H     H_    0.511518 0.270835 0.111221 0.173098
H2    H     H_    0.504320 0.270901 0.886848 0.185779
C11   C     C_3   0.509041 0.777406 0.931328 0.080677
C12   C     C_3   0.515577 0.776096 0.073727 0.062176
H3    H     H_    0.592438 0.818764 0.884824 0.115434
H4    H     H_    0.433874 0.820148 0.121336 0.120203
C13   C     C_R   0.061799 0.420130 0.408546 0.204163
C14   C     C_R   0.932389 0.418346 0.411408 0.213392
C15   C     C_R   0.870763 0.499551 0.499342 -0.327085
C16   C     C_R   0.127757 0.502465 0.495622 -0.356409
C17   C     C_R   0.936167 0.582278 0.585184 0.358289
C18   C     C_R   0.065106 0.589335 0.579346 0.345520
C19   C     C_R   0.422260 0.074249 0.422231 0.526635
C20   C     C_R   0.580283 0.076000 0.575830 0.575666
C21   C     C_R   0.420062 0.924492 0.426217 -0.112673
C22   C     C_R   0.580833 0.925568 0.573322 -0.048459
H5    H     H_    0.355151 0.865626 0.369780 0.138648
H6    H     H_    0.646035 0.866758 0.628885 0.154336
N1    N     N_R   0.500000 0.852070 0.500000 -0.193886
N2    N     N_R   0.500000 0.147940 0.500000 -0.235156
N3    N     N_R   0.392348 0.834633 0.883471 0.133110
O9    O     O_R   0.286369 0.786962 0.920859 -0.322427
O10   O     O_R   0.394069 0.936854 0.804738 -0.419959
N4    N     N_R   0.634643 0.825253 0.123669 0.138332
O11   O     O_R   0.738549 0.778218 0.080438 -0.332254
O12   O     O_R   0.637257 0.912576 0.215895 -0.337066
N5    N     N_R   0.124930 0.348980 0.310881 0.177631
O13   O     O_R   0.208019 0.414983 0.247645 -0.377446
O14   O     O_R   0.088722 0.225348 0.274449 -0.282807
N6    N     N_R   0.863065 0.343676 0.318603 0.173330
O15   O     O_R   0.834635 0.212648 0.335177 -0.268529
O16   O     O_R   0.815428 0.411019 0.225435 -0.343204
O17   O     O_3   0.873822 0.661217 0.671700 -0.583654
C23   C     C_3   0.858140 0.579137 0.778061 -0.200351
H7    H     H_    0.803004 0.482927 0.757767 0.127710
H8    H     H_    0.806160 0.641542 0.846467 0.204675
H9    H     H_    0.949016 0.550904 0.820683 0.212383
O18   O     O_3   0.130905 0.672946 0.661779 -0.540051
C24   C     C_3   0.123361 0.813445 0.621898 -0.068327
H10   H     H_    0.152390 0.825172 0.524431 0.126877
H11   H     H_    0.187057 0.877912 0.679457 0.224140
H12   H     H_    0.028682 0.856404 0.633607 0.179104
O19   O     O_3   0.343002 0.148985 0.345321 -0.523293
C25   C     C_3   0.338498 0.090753 0.225431 -0.173150
H13   H     H_    0.271574 0.002461 0.220454 0.170447
H14   H     H_    0.431260 0.057732 0.193254 0.135810
H15   H     H_    0.304745 0.171765 0.160295 0.233466
O20   O     O_3   0.665854 0.154204 0.644260 -0.549377
C26   C     C_3   0.697112 0.092328 0.758242 -0.320808
H16   H     H_    0.766965 0.008268 0.746019 0.186366
H17   H     H_    0.614258 0.053206 0.806833 0.175300
H18   H     H_    0.740284 0.173732 0.818165 0.207534

loop_
_geom_bond_atom_site_label_1
_geom_bond_atom_site_label_2
_geom_bond_distance
_ccdc_geom_bond_type
C26   H18   1.109413 S    
C21   N1    1.360349 A    
C11   C12   1.546784 S    
C23   H8    1.109333 S    
C5    C7    1.384260 A    
O6    Cu1   1.969911 S    
C18   O18   1.384863 S    
O7    C3    1.290136 A    
N3    O9    1.302339 A    
N6    O16   1.300686 A    
C17   C18   1.396721 A    
C11   N3    1.463494 S    
O6    C4    1.293259 A    
C19   O19   1.387140 S    
C25   H13   1.110291 S    
C22   H6    1.079872 S    
N6    O15   1.301019 A    
O7    Cu2   1.970068 S    
C24   H10   1.114056 S    
N5    O14   1.300878 A    
O17   C23   1.410046 S    
C17   O17   1.384511 S    
C13   C16   1.411557 A    
C16   C18   1.408640 A    
N3    O10   1.299826 A    
C19   C21   1.430050 A    
C25   H14   1.111372 S    
O2    C2    1.290368 A    
O3    Cu2   1.959759 S    
O8    C4    1.289237 A    
C20   N2    1.373401 A    
O4    C2    1.288912 A    
C14   C15   1.403039 A    
C9    H1    1.079715 S    
C12   H4    1.111259 S    
O5    C3    1.292664 A    
C6    C11   1.494448 S    
C20   C22   1.435660 A    
C11   H3    1.111837 S    
O4    Cu2   1.959370 S    
C26   H16   1.110653 S    
C12   N4    1.464610 S    
O1    C1    1.288698 A    
Cu1   N1    2.017363 S    
C19   N2    1.373495 A    
C24   H11   1.107354 S    
C13   N5    1.437503 S    
C5    C6    1.349823 A    
C25   H15   1.108198 S    
O3    C1    1.295926 A    
O5    Cu1   1.968280 S    
C2    C15   1.441677 S    
O1    Cu1   1.959247 S    
N4    O11   1.302280 A    
C21   H5    1.080219 S    
C8    C10   1.412335 A    
C6    C8    1.385840 A    
C1    C16   1.451952 S    
O8    Cu2   1.968431 S    
C20   O20   1.392086 S    
C13   C14   1.398763 A    
C26   H17   1.110497 S    
O2    Cu1   1.959636 S    
C14   N6    1.433680 S    
C23   H7    1.113437 S    
C5    C12   1.490384 S    
C24   H12   1.110981 S    
N4    O12   1.300156 A    
Cu1   Cu2   2.684474 S    
C7    C9    1.410215 A    
O18   C24   1.412569 S    
C15   C17   1.401864 A    
Cu2   N2    2.017268 S    
O20   C26   1.410064 S    
C22   N1    1.364750 A    
C3    C7    1.440402 S    
C9    C10   1.402136 A    
C10   H2    1.082266 S    
O19   C25   1.413502 S    
N5    O13   1.301409 A    
C23   H9    1.113007 S    
C4    C8    1.439944 S    
