data_mof_unit_67707.cif
_audit_creation_date              2012-12-10T19:48:32-0500
_audit_creation_method            fapswitch 2.2
_symmetry_space_group_name_H-M    P1
_symmetry_Int_Tables_number       1
_space_group_crystal_system       triclinic
_cell_length_a                    11.599791
_cell_length_b                    10.67193
_cell_length_c                    9.846253
_cell_angle_alpha                 90.535028
_cell_angle_beta                  90.670073
_cell_angle_gamma                 90.137391
_cell_volume                      1218.74857881

loop_
_atom_site_label
_atom_site_type_symbol
_atom_type_description
_atom_site_fract_x
_atom_site_fract_y
_atom_site_fract_z
_atom_type_partial_charge
C1    C     C_R   0.499496 0.261191 0.498777 0.902914
C2    C     C_3   0.407447 0.041532 0.562963 0.369638
C3    C     C_3   0.504090 0.875382 0.503318 -0.293046
C4    C     C_3   0.499158 0.124148 0.494783 -0.285199
C5    C     C_3   0.504164 0.962904 0.629300 0.360791
C6    C     C_3   0.499496 0.036404 0.368451 0.368721
C7    C     C_3   0.511499 0.610073 0.049328 0.405466
C8    C     C_3   0.487552 0.390065 0.950144 0.382025
C9    C     C_3   0.418167 0.564660 0.949547 -0.030249
C10   C     C_3   0.581473 0.434913 0.049613 0.004264
C11   C     C_3   0.594817 0.545590 0.948509 0.345764
C12   C     C_R   0.501815 0.738631 0.500947 0.901218
C13   C     C_3   0.404723 0.452893 0.053525 0.315967
C14   C     C_R   0.262238 0.497738 0.499480 0.783723
C15   C     C_R   0.736731 0.496369 0.501345 0.782074
C16   C     C_R   0.137541 0.553114 0.066733 0.153303
C17   C     C_R   0.909494 0.211341 0.822606 0.084961
C18   C     C_R   0.117488 0.543773 0.204602 0.024675
C19   C     C_R   0.933696 0.291650 0.713818 0.040133
C20   C     C_R   0.101236 0.425737 0.262124 0.043183
C21   C     C_R   0.922270 0.423924 0.729948 0.021025
C22   C     C_R   0.103537 0.315268 0.184068 0.360497
C23   C     C_R   0.870890 0.487131 0.503295 -0.146299
C24   C     C_R   0.900296 0.473748 0.856990 0.358586
C25   C     C_R   0.122118 0.322349 0.043327 0.108713
C26   C     C_R   0.873589 0.395326 0.965309 0.029382
C27   C     C_R   0.141718 0.441520 0.985375 0.120028
C28   C     C_R   0.876195 0.262278 0.946943 0.135568
C29   C     C_R   0.932462 0.422402 0.402871 0.145910
C30   C     C_R   0.057904 0.550607 0.599252 0.116845
C31   C     C_R   0.126161 0.488389 0.501091 -0.104425
C32   C     C_R   0.940296 0.513146 0.617737 0.138004
C33   C     C_R   0.057230 0.427612 0.398124 0.112113
C34   C     C_3   0.594369 0.045095 0.559620 -0.047560
C35   C     C_3   0.408950 0.954267 0.437799 -0.033784
C36   C     C_3   0.595782 0.957506 0.434951 0.338194
Cl1   Cl    Cl    0.527863 0.766333 0.113334 -0.410639
Cl2   Cl    Cl    0.497356 0.073468 0.193030 -0.369963
Cl3   Cl    Cl    0.470498 0.233881 0.884273 -0.420565
Cl4   Cl    Cl    0.678001 0.663523 0.873156 -0.411522
Cl5   Cl    Cl    0.348918 0.325775 0.144188 -0.462935
Cl6   Cl    Cl    0.114233 0.169691 0.267781 -0.624053
Cl7   Cl    Cl    0.924468 0.635310 0.883616 -0.572243
Cl8   Cl    Cl    0.723822 0.903097 0.355296 -0.490643
Cl9   Cl    Cl    0.280113 0.094698 0.644070 -0.532014
Cl10  Cl    Cl    0.512163 0.922144 0.803609 -0.389657
Cu1   Cu    Cu3+1 0.500030 0.499990 0.643150 1.054186
Cu2   Cu    Cu3+1 0.499970 0.500010 0.356850 1.074570
H1    H     H_    0.182809 0.536153 0.816843 0.314441
H2    H     H_    0.078554 0.731053 0.033677 0.285948
H3    H     H_    0.955409 0.045793 0.720339 0.246093
H4    H     H_    0.852713 0.031113 0.837728 0.286753
H5    H     H_    0.029992 0.705571 0.248934 0.262838
H6    H     H_    0.174857 0.710202 0.285294 0.242920
H7    H     H_    0.057607 0.197049 0.612862 0.297530
H8    H     H_    0.920665 0.173496 0.552782 0.250260
H9    H     H_    0.135065 0.219996 0.865764 0.266495
H10   H     H_    0.105548 0.133906 0.000046 0.270561
H11   H     H_    0.923119 0.504543 0.123242 0.242936
H12   H     H_    0.250090 0.399602 0.834084 0.284602
H13   H     H_    0.789009 0.520193 0.083993 0.297285
H14   H     H_    0.790374 0.311264 0.359577 0.227443
H15   H     H_    0.913193 0.243809 0.339148 0.264921
H16   H     H_    0.038092 0.737619 0.620494 0.273175
H17   H     H_    0.175887 0.694290 0.620076 0.220148
H18   H     H_    0.751573 0.020252 0.642071 0.260856
H19   H     H_    0.674772 0.134746 0.716902 0.285468
H20   H     H_    0.256364 0.976210 0.339236 0.322032
H21   H     H_    0.333805 0.854503 0.284497 0.267248
H22   H     H_    0.929251 0.129668 0.081696 0.267691
H23   H     H_    0.819621 0.213940 0.137996 0.284237
H24   H     H_    0.352916 0.659282 0.785374 0.294157
H25   H     H_    0.365373 0.747276 0.922846 0.305567
H26   H     H_    0.622188 0.305791 0.192906 0.305138
H27   H     H_    0.655635 0.264055 0.035761 0.287770
H28   H     H_    0.216489 0.721571 0.066118 0.231717
N1    N     N_3   0.500090 0.499970 0.858290 -0.273838
N2    N     N_3   0.978858 0.240009 0.591417 -0.576741
N3    N     N_3   0.153992 0.210463 0.968857 -0.410355
N4    N     N_3   0.852412 0.452107 0.094560 -0.503634
N5    N     N_3   0.872870 0.329289 0.323655 -0.564295
N6    N     N_3   0.094821 0.669002 0.656060 -0.502445
N7    N     N_3   0.697873 0.096472 0.623087 -0.564086
N8    N     N_3   0.306759 0.901470 0.371967 -0.541164
N9    N     N_3   0.499910 0.500030 0.141710 -0.254939
N10   N     N_3   0.170942 0.444650 0.845288 -0.561259
N11   N     N_3   0.853021 0.173617 0.052471 -0.513758
N12   N     N_3   0.342161 0.657649 0.889635 -0.548475
N13   N     N_3   0.656427 0.339525 0.103572 -0.531052
N14   N     N_3   0.150407 0.676553 0.011547 -0.492019
N15   N     N_3   0.929402 0.077685 0.815367 -0.552356
N16   N     N_3   0.100565 0.655150 0.285967 -0.599664
O1    O     O_R   0.500060 0.316850 0.620870 -0.526138
O2    O     O_R   0.499940 0.683150 0.379130 -0.527731
O3    O     O_R   0.500000 0.316860 0.379090 -0.551476
O4    O     O_R   0.500000 0.683140 0.620910 -0.554451
O5    O     O_R   0.319670 0.500010 0.620890 -0.613766
O6    O     O_R   0.680330 0.499990 0.379110 -0.553963
O7    O     O_R   0.319620 0.500010 0.379110 -0.540435
O8    O     O_R   0.680380 0.499990 0.620890 -0.545834

loop_
_geom_bond_atom_site_label_1
_geom_bond_atom_site_label_2
_ccdc_geom_bond_type
C2    C35   S    
C10   N9    S    
C16   N14   S    
C8    C13   S    
Cu2   O3    S    
C19   N2    S    
H9    N3    S    
C17   N15   S    
C14   C31   S    
C13   Cl5   S    
C14   O7    A    
C22   Cl6   S    
C7    C11   S    
Cu2   O2    S    
H15   N5    S    
C23   C29   A    
H26   N13   S    
C19   C21   A    
C24   C26   A    
C9    N12   S    
C30   C31   A    
H13   N4    S    
C29   C33   A    
H8    N2    S    
C6    C35   S    
C9    C13   S    
C3    C12   S    
C11   N1    S    
H3    N15   S    
H18   N7    S    
H2    N14   S    
C10   N13   S    
C22   C25   A    
Cu1   O4    S    
C31   C33   A    
C8    Cl3   S    
C15   O8    A    
C18   C20   A    
C16   C27   A    
C15   C23   S    
C12   O2    A    
C28   N11   S    
H22   N11   S    
H24   N12   S    
C2    Cl9   S    
Cu1   O1    S    
C21   C32   S    
C4    C34   S    
H20   N8    S    
C4    C6    S    
H7    N2    S    
H12   N10   S    
C26   N4    S    
Cu1   O8    S    
C30   N6    S    
C27   N10   S    
C2    C4    S    
H25   N12   S    
H6    N16   S    
Cu1   Cu2   S    
C3    C35   S    
C1    O3    A    
C5    C34   S    
H5    N16   S    
C6    Cl2   S    
C7    Cl1   S    
C16   C18   A    
C9    N1    S    
H19   N7    S    
H16   N6    S    
H10   N3    S    
H23   N11   S    
C20   C33   S    
C1    O1    A    
H14   N5    S    
C20   C22   A    
C29   N5    S    
C8    N1    S    
C36   Cl8   S    
C2    C5    S    
C34   N7    S    
Cu1   N1    S    
C15   O6    A    
C14   O5    A    
C7    C9    S    
Cu2   O7    S    
C25   N3    S    
C17   C28   A    
H1    N10   S    
C3    C5    S    
H11   N4    S    
C35   N8    S    
C25   C27   A    
Cu2   O6    S    
C5    Cl10  S    
C26   C28   A    
Cu1   O5    S    
C1    C4    S    
C18   N16   S    
C23   C32   A    
H21   N8    S    
C30   C32   A    
H17   N6    S    
C7    N9    S    
C3    C36   S    
C17   C19   A    
C6    C36   S    
C34   C36   S    
C11   Cl4   S    
C10   C11   S    
H27   N13   S    
C8    C10   S    
C21   C24   A    
C13   N9    S    
C24   Cl7   S    
Cu2   N9    S    
C12   O4    A    
H4    N15   S    
H28   N14   S    
