data_mof_unit_68420.cif
_audit_creation_date              2012-12-10T16:47:28-0500
_audit_creation_method            fapswitch 2.2
_symmetry_space_group_name_H-M    P1
_symmetry_Int_Tables_number       1
_space_group_crystal_system       triclinic
_cell_length_a                    10.597174
_cell_length_b                    8.728116
_cell_length_c                    7.515536
_cell_angle_alpha                 102.849151
_cell_angle_beta                  94.942674
_cell_angle_gamma                 94.025486
_cell_volume                      672.346596486

loop_
_atom_site_label
_atom_site_type_symbol
_atom_type_description
_atom_site_fract_x
_atom_site_fract_y
_atom_site_fract_z
_atom_type_partial_charge
C1    C     C_R   0.494655 0.200328 0.454387 0.848083
C2    C     C_R   0.505345 0.799672 0.545613 0.848083
C3    C     C_R   0.259682 0.498802 0.500850 0.839828
C4    C     C_R   0.740318 0.501198 0.499150 0.839828
C5    C     C_3   0.051750 0.515161 0.674126 -0.171078
C6    C     C_3   0.948250 0.484839 0.325874 -0.171078
C7    C     C_3   0.953473 0.378998 0.566746 -0.217343
C8    C     C_3   0.046527 0.621002 0.433254 -0.217343
C9    C     C_3   0.876971 0.501041 0.497625 -0.112890
C10   C     C_3   0.123029 0.498959 0.502374 -0.112891
C11   C     C_3   0.973262 0.635826 0.603868 0.314654
C12   C     C_3   0.026738 0.364174 0.396132 0.314654
C13   C     C_2   0.474640 0.033636 0.434108 0.040657
C14   C     C_2   0.525359 0.966364 0.565892 0.040657
Cu1   Cu    Cu3+1 0.514140 0.517380 0.684380 1.139009
Cu2   Cu    Cu3+1 0.485860 0.482620 0.315620 1.139009
H1    H     H_    0.912643 0.279468 0.619938 0.214001
H2    H     H_    0.087357 0.720532 0.380062 0.214001
H3    H     H_    0.096039 0.528545 0.816765 0.209281
H4    H     H_    0.903960 0.471455 0.183235 0.209281
N1    N     N_2   0.464560 0.456420 0.038510 0.065578
N2    N     N_2   0.535440 0.543580 0.961490 0.065579
O1    O     O_R   0.509190 0.286130 0.619780 -0.559957
O2    O     O_R   0.490810 0.713870 0.380220 -0.559957
O3    O     O_R   0.485310 0.256770 0.308360 -0.527324
O4    O     O_R   0.514690 0.743230 0.691640 -0.527324
O5    O     O_R   0.328790 0.514640 0.655680 -0.572750
O6    O     O_R   0.671210 0.485360 0.344320 -0.572750
O7    O     O_R   0.304910 0.485280 0.344260 -0.554049
O8    O     O_R   0.695090 0.514720 0.655740 -0.554049
Br1   Br    Br    0.934120 0.833536 0.754635 -0.338003
Br2   Br    Br    0.065880 0.166464 0.245365 -0.338003
Br3   Br    Br    0.336864 0.304569 0.902588 -0.264991
Br4   Br    Br    0.663136 0.695430 0.097412 -0.264991
Br5   Br    Br    0.353436 0.926381 0.227938 -0.352704
Br6   Br    Br    0.646564 0.073619 0.772062 -0.352704

loop_
_geom_bond_atom_site_label_1
_geom_bond_atom_site_label_2
_ccdc_geom_bond_type
Cu2   O6    S    
C13   Br5   S    
Cu2   N1    S    
C5    H3    S    
C6    H4    S    
C2    O2    A    
Cu1   O5    S    
C6    C9    S    
C3    O5    A    
Cu2   O7    S    
C11   Br1   S    
C5    C10   S    
C2    O4    A    
C3    C10   S    
C13   C14   D    
C12   Br2   S    
C1    O3    A    
C9    C11   S    
C10   C12   S    
C8    C11   S    
C2    C14   S    
C6    C12   S    
Cu1   O1    S    
C4    O6    A    
C1    O1    A    
C5    C7    S    
Cu1   N2    S    
C5    C11   S    
C14   Br6   S    
C7    C12   S    
N2    Br4   S    
C4    O8    A    
N1    Br3   S    
Cu1   Cu2   S    
C7    C9    S    
C1    C13   S    
Cu1   O8    S    
Cu2   O2    S    
Cu2   O3    S    
C3    O7    A    
Cu1   O4    S    
C6    C8    S    
C4    C9    S    
N1    N2    D    
C8    C10   S    
C8    H2    S    
C7    H1    S    
