data_mof_unit_16599.cif
_audit_creation_date              2013-03-05T16:20:47-0500
_audit_creation_method            fapswitch 2.2
_symmetry_space_group_name_H-M    P1
_symmetry_Int_Tables_number       1
_space_group_crystal_system       triclinic
_cell_length_a                    8.298055
_cell_length_b                    18.750201
_cell_length_c                    19.018646
_cell_angle_alpha                 103.695215
_cell_angle_beta                  92.272538
_cell_angle_gamma                 91.555609
_cell_volume                      2870.68782011

loop_
_atom_site_label
_atom_site_type_symbol
_atom_site_description
_atom_site_fract_x
_atom_site_fract_y
_atom_site_fract_z
_atom_type_partial_charge
P1    P     P_3+3 0.941030 0.670050 0.569830 0.463330
O1    O     O_2   0.114280 0.679350 0.549180 -0.367646
O2    O     O_3   0.866400 0.589600 0.543550 -0.398540
O3    O     O_3   0.362150 0.623490 0.415650 -0.372213
O4    O     O_2   0.242539 0.753270 0.472455 -0.376881
O5    O     O_3   0.951789 0.696542 0.664667 -0.575563
O6    O     O_3   0.327070 0.735494 0.340112 -0.523191
H1    H     H_    0.363692 0.631051 0.278558 0.121236
C1    C     C_3   0.392491 0.712097 0.216263 -0.957479
H2    H     H_    0.263178 0.708000 0.197963 0.267961
H3    H     H_    0.438486 0.769717 0.223735 0.283973
P2    P     P_3+3 0.370400 0.428500 0.331430 0.472774
P3    P     P_3+3 0.916074 0.581314 0.285458 0.446042
O7    O     O_2   0.197490 0.449210 0.322030 -0.362968
O8    O     O_3   0.950520 0.583920 0.376610 -0.341885
O9    O     O_2   0.023212 0.519673 0.246552 -0.407918
O10   O     O_3   0.361660 0.332300 0.307918 -0.565374
O11   O     O_3   0.999613 0.662220 0.269365 -0.515430
C2    C     C_3   0.886336 0.717222 0.287145 0.207830
H4    H     H_    0.841633 0.721164 0.342399 0.085162
H5    H     H_    0.783896 0.705576 0.246193 0.078861
C3    C     C_3   0.965208 0.791100 0.285719 0.039567
H6    H     H_    0.057376 0.807934 0.331012 0.175205
H7    H     H_    0.023822 0.787244 0.233542 0.147799
C4    C     C_3   0.809636 0.366978 0.309787 0.452150
H8    H     H_    0.693472 0.386628 0.331844 0.078135
H9    H     H_    0.903221 0.411948 0.325340 0.137302
C5    C     C_3   0.791272 0.344853 0.227555 -1.000425
H10   H     H_    0.690664 0.303314 0.210265 0.271455
H11   H     H_    0.765200 0.393560 0.206040 0.223268
H12   H     H_    0.904825 0.321390 0.204773 0.267788
Ba1   Ba    Ba6+2 0.155460 0.532000 0.467920 1.577326
C6    C     C_3   0.999674 0.637742 0.692779 0.421750
H13   H     H_    0.122522 0.623449 0.675848 0.089103
H14   H     H_    0.914593 0.589565 0.674455 0.132822
C7    C     C_3   0.001553 0.661047 0.775084 -0.964494
H15   H     H_    0.089477 0.707853 0.795301 0.272020
H16   H     H_    0.036563 0.614780 0.798843 0.215433
H17   H     H_    0.879512 0.677912 0.792881 0.269513
C8    C     C_3   0.307524 0.305886 0.366188 0.459222
H18   H     H_    0.185784 0.325767 0.379877 0.096918
H19   H     H_    0.391761 0.323370 0.414441 0.141640
C9    C     C_3   0.299102 0.222353 0.344144 -1.008435
H20   H     H_    0.211881 0.203132 0.297190 0.275797
H21   H     H_    0.259434 0.199679 0.389622 0.215992
H22   H     H_    0.420063 0.201482 0.329060 0.267120
P4    P     P_3+3 0.869270 0.329940 0.430110 0.495957
O12   O     O_2   0.696020 0.320600 0.450800 -0.373291
O13   O     O_3   0.943900 0.410390 0.456390 -0.339489
O14   O     O_3   0.448150 0.376500 0.584290 -0.301730
O15   O     O_3   0.854084 0.305781 0.335259 -0.573628
P5    P     P_3+3 0.878300 0.420210 0.714995 0.449592
O16   O     O_3   0.365880 0.544470 0.588730 -0.357102
O17   O     O_3   0.859790 0.416060 0.623340 -0.312599
O18   O     O_2   0.751978 0.474746 0.748924 -0.420544
O19   O     O_3   0.818505 0.334011 0.727574 -0.531104
Ba2   Ba    Ba6+2 0.654730 0.467990 0.532020 1.604916
P6    P     P_3+3 0.378363 0.718090 0.424352 0.456985
C10   C     C_3   0.412567 0.688445 0.287186 0.507092
H23   H     H_    0.543271 0.691183 0.302938 -0.003162
H24   H     H_    0.460944 0.676180 0.173749 0.220036
O20   O     O_3   0.444420 0.455520 0.411210 -0.394885
C11   C     C_3   0.495652 0.697003 0.652812 0.425900
H25   H     H_    0.618980 0.677970 0.639910 0.097923
H26   H     H_    0.414258 0.680762 0.603416 0.118309
C12   C     C_3   0.503703 0.780416 0.676308 -0.976470
H27   H     H_    0.586169 0.798873 0.725084 0.275469
H28   H     H_    0.549651 0.803603 0.632041 0.215749
H29   H     H_    0.381463 0.801118 0.688969 0.261448
P7    P     P_3+3 0.431363 0.572282 0.681354 0.450119
O21   O     O_2   0.612810 0.550740 0.677950 -0.357854
O22   O     O_3   0.436748 0.668323 0.709175 -0.566802
C13   C     C_3   0.896372 0.279947 0.676911 0.323266
H30   H     H_    0.821162 0.263825 0.625632 0.153355
H31   H     H_    0.016364 0.299323 0.663514 -0.020941
C14   C     C_3   0.925832 0.212831 0.707526 -0.131787
H32   H     H_    0.012767 0.177222 0.673910 0.080471
H33   H     H_    0.980939 0.231080 0.763443 0.123172
P8    P     P_3+3 0.430612 0.281606 0.576588 0.500242
C15   C     C_3   0.406597 0.306599 0.714180 0.462074
H34   H     H_    0.274891 0.297853 0.701681 0.002620
O23   O     O_2   0.558080 0.245493 0.523951 -0.385142
O24   O     O_3   0.494330 0.263734 0.659166 -0.481048
H35   H     H_    0.441509 0.365697 0.721917 0.110039
H36   H     H_    0.371613 0.314927 0.827841 0.191703
C16   C     C_3   0.444528 0.283754 0.784358 -0.878846
H37   H     H_    0.574181 0.295061 0.800987 0.293031
H38   H     H_    0.415065 0.224239 0.777075 0.277437
C17   C     C_R   0.998263 0.953813 0.534046 0.046220
C18   C     C_R   0.079832 0.909281 0.573246 -0.189210
C19   C     C_R   0.218616 0.050059 0.557978 -0.205867
C20   C     C_R   0.061527 0.024328 0.530522 0.052100
C21   C     C_R   0.274793 0.120762 0.558953 -0.110142
C22   C     C_R   0.177595 0.169189 0.532299 -0.089621
C23   C     C_R   0.025484 0.142959 0.497979 0.012356
C24   C     C_R   0.967257 0.070184 0.496844 0.080809
C25   C     C_R   0.225987 0.243614 0.540616 0.031818
C26   C     C_R   0.118041 0.291237 0.518651 0.084251
C27   C     C_R   0.980760 0.264511 0.473934 0.138120
C28   C     C_R   0.932691 0.189213 0.464047 -0.100921
C29   C     C_R   0.845338 0.927922 0.500177 0.058869
C30   C     C_R   0.785728 0.855592 0.500345 0.018882
C31   C     C_R   0.878868 0.809454 0.534213 -0.039566
C32   C     C_R   0.020596 0.839399 0.573887 -0.051741
H39   H     H_    0.394690 0.137102 0.582296 0.213041
H40   H     H_    0.088886 0.809390 0.606054 0.161739
C33   C     C_R   0.792792 0.158967 0.423029 -0.022936
C34   C     C_R   0.734214 0.088634 0.422852 -0.156733
C35   C     C_R   0.815008 0.044128 0.462420 0.066073
C36   C     C_R   0.751236 0.973769 0.466368 0.096655
C37   C     C_R   0.593697 0.948313 0.439436 -0.114990
C38   C     C_R   0.631895 0.829898 0.467689 -0.007482
C39   C     C_R   0.536013 0.878115 0.439879 -0.110296
C40   C     C_R   0.578022 0.756929 0.464459 0.147841
C41   C     C_R   0.678018 0.710267 0.492253 -0.512639
C42   C     C_R   0.826157 0.735323 0.528201 0.259976
H41   H     H_    0.724167 0.189570 0.391549 0.159411
H42   H     H_    0.414689 0.862470 0.417959 0.171796
H43   H     H_    0.636654 0.654221 0.488577 0.178676
H44   H     H_    0.302849 0.016497 0.578752 0.145812
H45   H     H_    0.189265 0.927422 0.605672 0.129323
H46   H     H_    0.625486 0.070225 0.389951 0.128851
H47   H     H_    0.510082 0.981930 0.418354 0.123096
C43   C     C_R   0.380634 0.515963 0.809087 -0.275212
H48   H     H_    0.488357 0.547994 0.831761 0.160675
C44   C     C_R   0.322957 0.522267 0.739883 0.261396
C45   C     C_R   0.144363 0.440446 0.816997 -0.373318
H49   H     H_    0.063925 0.410612 0.842670 0.154800
C46   C     C_R   0.082448 0.452641 0.751650 0.239429
C47   C     C_R   0.639957 0.554170 0.187639 -0.353582
H50   H     H_    0.694375 0.591061 0.158727 0.143219
C48   C     C_R   0.703227 0.555105 0.257366 0.197083
C49   C     C_R   0.450335 0.457483 0.197647 -0.304144
H51   H     H_    0.369002 0.411104 0.174799 0.158300
C50   C     C_R   0.485119 0.473696 0.272417 0.308738
C51   C     C_R   0.298569 0.469316 0.847590 0.096252
C52   C     C_R   0.174443 0.490555 0.712771 -0.379392
H52   H     H_    0.125578 0.499100 0.662259 0.175647
C53   C     C_R   0.517875 0.501247 0.153885 0.108797
C54   C     C_R   0.615300 0.521084 0.301745 -0.444312
H53   H     H_    0.656376 0.526553 0.357545 0.158393
C55   C     C_R   0.151926 0.376505 0.952888 -0.179395
C56   C     C_R   0.044549 0.363746 0.003583 -0.078022
C57   C     C_R   0.054427 0.408501 0.073408 -0.119014
C58   C     C_R   0.181855 0.460205 0.094064 -0.192193
C59   C     C_R   0.307221 0.462855 0.047183 0.067699
C60   C     C_R   0.271052 0.433866 0.972011 0.100277
C61   C     C_R   0.467838 0.487845 0.073266 -0.062158
C62   C     C_R   0.583098 0.488682 0.019485 0.106160
C63   C     C_R   0.531494 0.473737 0.944427 0.052560
C64   C     C_R   0.367662 0.456434 0.920670 -0.080245
C65   C     C_R   0.750803 0.501439 0.036891 -0.173168
C66   C     C_R   0.857056 0.512024 0.985392 -0.118814
C67   C     C_R   0.805665 0.495691 0.913364 -0.077880
C68   C     C_R   0.649276 0.468404 0.893302 -0.145675
H54   H     H_    0.147769 0.338026 0.900654 0.119399
H55   H     H_    0.951802 0.320491 0.988239 0.136603
H56   H     H_    0.966172 0.401979 0.111950 0.143719
H57   H     H_    0.188762 0.494734 0.147885 0.193156
H58   H     H_    0.805337 0.501569 0.088907 0.144635
H59   H     H_    0.982040 0.528270 0.000736 0.142725
H60   H     H_    0.888635 0.501941 0.873282 0.147064
H61   H     H_    0.617702 0.441912 0.837913 0.184296
Cl1   Cl    Cl    0.817495 0.859368 0.294752 -0.679173
N1    N     N_R   0.776265 0.170230 0.707624 0.294473
O25   O     O_R   0.705341 0.134854 0.646612 -0.394024
O26   O     O_R   0.724733 0.159769 0.768230 -0.374961
Cl2   Cl    Cl    0.147718 0.385699 0.553204 -0.590919

loop_
_geom_bond_atom_site_label_1
_geom_bond_atom_site_label_2
_geom_bond_distance
_ccdc_geom_bond_type
C12   H28   1.110391 S    
C65   H58   1.070856 S    
C44   C52   1.379421 A    
C29   C30   1.431683 A    
C13   H30   1.110813 S    
C30   C38   1.417521 A    
C23   C24   1.430153 A    
C15   H35   1.111509 S    
O14   P8    1.751953 S    
C38   C40   1.414348 A    
C58   C59   1.404065 A    
O13   Ba2   2.944831 S    
Ba2   O20   2.790143 S    
P4    O13   1.573688 S    
H36   C16   1.105270 S    
C4    C5    1.520425 S    
N1    O25   1.301138 A    
O4    P6    1.542323 D    
C1    H24   1.108744 S    
P5    C46   1.837162 S    
C5    H10   1.110580 S    
C2    H5    1.110747 S    
C14   H33   1.112556 S    
O11   C2    1.405054 S    
H1    C10   1.112165 S    
C58   H57   1.072262 S    
C16   H38   1.110665 S    
C12   H29   1.110877 S    
P4    Ba2   3.431375 S    
C47   C53   1.419595 A    
C56   C57   1.390821 A    
C25   C26   1.401643 A    
C20   C24   1.420912 A    
C6    C7    1.521592 S    
P4    C27   1.881562 S    
C34   C35   1.414190 A    
O1    Ba1   2.865278 S    
P1    O1    1.521528 D    
C36   C37   1.412937 A    
C15   C16   1.519420 S    
C21   H39   1.079271 S    
C8    C9    1.521387 S    
P4    O12   1.521885 D    
P2    C50   1.837207 S    
P2    O10   1.751347 S    
C33   C34   1.392256 A    
P7    O21   1.569302 D    
C45   C51   1.422376 A    
P1    C42   1.869674 S    
C1    H2    1.109825 S    
O6    P6    1.748019 S    
P5    O18   1.536288 D    
P7    C44   1.858937 S    
C8    H19   1.110174 S    
C12   H27   1.110566 S    
C11   C12   1.520312 S    
C10   H23   1.110244 S    
N1    O26   1.300585 A    
P2    Ba1   3.443174 S    
C49   C50   1.398514 A    
C13   H31   1.110241 S    
O2    Ba1   2.944062 S    
Ba1   Ba2   4.544571 S    
C15   O24   1.401676 S    
O16   P7    1.773155 S    
O6    C10   1.401742 S    
C38   C39   1.400794 A    
P5    O17   1.726888 S    
C56   H55   1.082347 S    
C59   C61   1.430240 A    
C7    H17   1.110867 S    
C50   C54   1.390319 A    
C53   C61   1.532262 S    
C55   C56   1.395181 A    
C43   C51   1.440630 A    
C37   H47   1.077420 S    
P1    O5    1.751724 S    
O12   Ba2   2.865817 S    
C2    C3    1.522475 S    
C14   H32   1.111542 S    
C62   C65   1.418215 A    
O7    Ba1   2.880377 S    
C19   C20   1.413233 A    
O16   Ba2   2.936671 S    
C23   C28   1.422451 A    
C15   H34   1.108627 S    
P4    O15   1.751334 S    
C22   C25   1.411962 A    
C68   H61   1.071613 S    
C4    H8    1.104111 S    
P1    Ba1   3.430862 S    
Ba2   O21   2.880624 S    
C11   H25   1.110475 S    
C66   H59   1.081821 S    
P1    O2    1.573685 S    
O10   C8    1.400901 S    
C60   C64   1.419311 A    
C9    H20   1.110569 S    
C45   C46   1.396836 A    
C19   C21   1.388971 A    
P2    O20   1.575233 S    
C27   C28   1.423229 A    
C6    H13   1.102132 S    
C14   N1    1.457897 S    
C37   C39   1.390331 A    
C21   C22   1.399038 A    
C54   H53   1.082025 S    
C17   C20   1.426631 A    
C9    H21   1.107385 S    
C18   C32   1.389873 A    
C67   C68   1.386971 A    
O3    Ba1   2.766887 S    
P3    O11   1.747885 S    
C8    H18   1.105713 S    
P2    O7    1.511368 D    
C49   C53   1.419732 A    
C22   C23   1.417771 A    
C41   H43   1.082022 S    
C63   C68   1.394730 A    
C1    H3    1.110742 S    
C49   H51   1.080051 S    
C13   C14   1.528013 S    
C3    H7    1.110291 S    
C4    H9    1.108900 S    
C57   H56   1.081088 S    
C45   H49   1.063835 S    
C17   C18   1.413017 A    
O2    Ba2   2.801395 S    
Ba1   O16   2.790682 S    
C51   C64   1.556332 S    
C16   H37   1.109656 S    
C43   C44   1.414972 A    
C59   C60   1.420793 A    
C52   H52   1.076338 S    
C7    H15   1.110659 S    
C28   C33   1.400289 A    
O19   C13   1.412781 S    
C17   C29   1.419354 A    
C19   H44   1.077204 S    
O14   Ba2   2.766321 S    
C55   C60   1.412354 A    
P8    C25   1.862823 S    
C5    H12   1.110748 S    
C34   H46   1.077382 S    
C57   C58   1.394038 A    
O8    Ba1   2.740753 S    
C67   H60   1.071634 S    
P8    O23   1.543161 D    
C40   C41   1.398949 A    
C32   H40   1.079256 S    
C48   C54   1.389314 A    
C24   C35   1.418749 A    
C31   C42   1.422741 A    
C4    O15   1.399797 S    
C63   C64   1.419691 A    
O5    C6    1.394748 S    
C47   C48   1.402787 A    
C2    H4    1.114889 S    
P3    O8    1.734715 S    
C3    Cl1   1.779939 S    
C29   C36   1.421463 A    
Ba1   O20   2.937442 S    
C62   C63   1.433618 A    
C7    H16   1.109078 S    
P8    O24   1.746812 S    
C6    H14   1.110264 S    
C41   C42   1.396114 A    
C5    H11   1.108583 S    
C18   H45   1.077088 S    
P3    C48   1.843953 S    
C47   H50   1.080523 S    
C61   C62   1.430244 A    
C30   C31   1.421726 A    
C9    H22   1.110834 S    
C11   H26   1.111094 S    
Ba1   O13   2.800843 S    
C39   H42   1.079886 S    
C46   C52   1.378065 A    
C11   O22   1.406196 S    
C26   C27   1.400879 A    
P3    O9    1.541669 D    
O3    P6    1.742984 S    
C31   C32   1.400311 A    
P6    C40   1.851580 S    
C3    H6    1.110176 S    
P7    O22   1.751404 S    
C65   C66   1.388193 A    
C55   H54   1.079431 S    
C66   C67   1.378462 A    
C35   C36   1.427654 A    
C1    C10   1.520946 S    
C33   H41   1.079512 S    
C26   Cl2   1.744127 S    
P5    O19   1.750623 S    
C43   H48   1.078594 S    
O17   Ba2   2.741584 S    
