data_mof_unit_53840.cif
_audit_creation_date              2012-12-10T20:31:50-0500
_audit_creation_method            fapswitch 2.2
_symmetry_space_group_name_H-M    P1
_symmetry_Int_Tables_number       1
_space_group_crystal_system       triclinic
_cell_length_a                    9.948971
_cell_length_b                    10.691492
_cell_length_c                    15.085786
_cell_angle_alpha                 90.209338
_cell_angle_beta                  67.558795
_cell_angle_gamma                 88.951972
_cell_volume                      1482.80033833

loop_
_atom_site_label
_atom_site_type_symbol
_atom_type_description
_atom_site_fract_x
_atom_site_fract_y
_atom_site_fract_z
_atom_type_partial_charge
C1    C     C_R   0.503816 0.738847 0.491611 0.910671
C2    C     C_R   0.337687 0.486686 0.939705 -0.064491
C3    C     C_R   0.258658 0.601892 0.973063 -0.305075
C4    C     C_R   0.393738 0.421633 0.000695 -0.102840
C5    C     C_R   0.402810 0.487100 0.079558 -0.200079
C6    C     C_R   0.299761 0.584216 0.120886 0.643057
C7    C     C_R   0.225469 0.638916 0.068952 0.607886
C8    C     C_R   0.445836 0.296682 0.985622 0.780637
C9    C     C_R   0.542850 0.254104 0.025608 -0.211245
C10   C     C_R   0.587721 0.334054 0.082752 -0.075244
C11   C     C_R   0.511668 0.449967 0.114190 0.030776
C12   C     C_R   0.408030 0.503719 0.676882 1.012231
C13   C     C_R   0.707042 0.301374 0.108459 -0.071737
C14   C     C_R   0.739914 0.379390 0.173580 -0.280091
C15   C     C_R   0.552353 0.526569 0.175287 0.706372
C16   C     C_R   0.389100 0.937664 0.482325 -0.074344
C17   C     C_R   0.515481 0.868366 0.466946 -0.125572
C18   C     C_R   0.651198 0.928173 0.433673 -0.092994
C19   C     C_R   0.651716 0.058759 0.445631 -0.280356
C20   C     C_R   0.516148 0.126232 0.480689 -0.138844
C21   C     C_R   0.389869 0.064825 0.489001 -0.044114
C22   C     C_3   0.242351 0.069384 0.567996 1.058830
C23   C     C_R   0.503709 0.259444 0.496822 0.914992
C24   C     C_3   0.240440 0.928543 0.559060 0.435487
C25   C     C_R   0.889948 0.569543 0.565662 0.016829
C26   C     C_R   0.968979 0.436229 0.432272 0.614421
C27   C     C_R   0.112138 0.435587 0.432355 0.683852
C28   C     C_R   0.032276 0.572892 0.563982 0.038370
C29   C     C_3   0.977970 0.578000 0.671821 0.421138
C30   C     C_3   0.822746 0.563139 0.673679 -0.406441
C31   C     C_R   0.591581 0.499403 0.322310 0.925016
C32   C     C_R   0.345260 0.529998 0.779813 -0.352298
C33   C     C_R   0.644856 0.480290 0.217509 -0.200632
C34   C     C_R   0.218235 0.676835 0.909350 -0.096604
C35   C     C_R   0.264305 0.640536 0.813021 0.539149
C36   C     C_R   0.376431 0.451040 0.842562 0.640637
H1    H     H_    0.237381 0.877186 0.623597 0.163580
H2    H     H_    0.585099 0.159138 0.009326 0.204321
N1    N     N_R   0.856900 0.500860 0.500610 -0.169832
N2    N     N_R   0.142540 0.500820 0.500610 -0.197681
O1    O     O_R   0.385310 0.683210 0.499990 -0.568319
O2    O     O_R   0.614650 0.683240 0.500000 -0.588577
O3    O     O_R   0.319830 0.499970 0.632240 -0.588220
O4    O     O_R   0.549170 0.500000 0.632250 -0.596641
O5    O     O_R   0.385350 0.316760 0.500000 -0.545265
O6    O     O_R   0.614690 0.316790 0.500010 -0.573816
O7    O     O_R   0.450830 0.500000 0.367750 -0.549515
O8    O     O_R   0.680170 0.500030 0.367760 -0.562603
Zn1   Zn    Zn3+2 0.346870 0.499980 0.499990 1.144215
Zn2   Zn    Zn3+2 0.653130 0.500020 0.500010 1.106810
F1    F     F_    0.122819 0.728353 0.113195 -0.593259
C37   C     C_2   0.798284 0.188949 0.065140 1.002481
O9    O     O_2   0.867943 0.183614 0.978569 -0.553639
O10   O     O_R   0.801944 0.088604 0.123320 -0.757168
H3    H     H_    0.867125 0.016962 0.085622 0.380173
C38   C     C_2   0.790114 0.854390 0.390198 0.969468
O11   O     O_2   0.888349 0.867752 0.419139 -0.488711
O12   O     O_R   0.805928 0.767057 0.317513 -0.733054
H4    H     H_    0.903177 0.720702 0.295029 0.408606
C39   C     C_2   0.793639 0.118953 0.424907 1.110677
O13   O     O_2   0.824696 0.156894 0.490996 -0.414679
O14   O     O_R   0.897870 0.122015 0.331475 -0.643447
H5    H     H_    0.862263 0.083818 0.283091 0.342860
F2    F     F_    0.245164 0.108409 0.654834 -0.667479
F3    F     F_    0.139379 0.131980 0.542730 -0.527929
F4    F     F_    0.140480 0.888644 0.522144 -0.513853
F5    F     F_    0.941806 0.366709 0.366491 -0.595159
F6    F     F_    0.218374 0.365880 0.365773 -0.575455
C40   C     C_2   0.027459 0.474215 0.720912 0.926632
O15   O     O_2   0.018961 0.490208 0.803172 -0.531774
O16   O     O_R   0.070854 0.357495 0.676157 -0.753416
H6    H     H_    0.092459 0.295283 0.719655 0.414820
F7    F     F_    0.502463 0.646242 0.197409 -0.573147
F8    F     F_    0.001321 0.695269 0.702213 -0.535099
C41   C     C_2   0.758049 0.437404 0.713682 0.916802
O17   O     O_2   0.752977 0.352225 0.660731 -0.475995
O18   O     O_R   0.717419 0.415988 0.811724 -0.749989
H7    H     H_    0.697608 0.324609 0.828040 0.387452
C42   C     C_2   0.720520 0.672190 0.719968 1.087834
O19   O     O_2   0.677697 0.688982 0.806724 -0.539420
O20   O     O_R   0.675007 0.753742 0.664192 -0.745740
H8    H     H_    0.605553 0.821795 0.703883 0.360388
C43   C     C_2   0.883035 0.373323 0.183512 1.067258
O21   O     O_2   0.956045 0.276620 0.167480 -0.546011
O22   O     O_R   0.938686 0.482743 0.205883 -0.734340
H9    H     H_    0.038692 0.468810 0.207363 0.369680
C44   C     C_2   0.145246 0.801164 0.936596 1.133375
O23   O     O_2   0.034679 0.824604 0.922059 -0.500185
O24   O     O_R   0.206694 0.893239 0.974554 -0.699300
H10   H     H_    0.148363 0.974778 0.988583 0.381665
F9    F     F_    0.240240 0.718397 0.749397 -0.625669
F10   F     F_    0.456362 0.346209 0.804239 -0.592546
F11   F     F_    0.257193 0.616573 0.214912 -0.569078
F12   F     F_    0.395392 0.212461 0.938902 -0.560440

loop_
_geom_bond_atom_site_label_1
_geom_bond_atom_site_label_2
_ccdc_geom_bond_type
C8    C9    A    
C44   O23   D    
C16   C21   A    
C23   O5    A    
C19   C20   A    
C4    C8    A    
C14   C33   A    
O20   H8    S    
O7    Zn1   S    
O18   H7    S    
C25   C28   A    
C26   C27   A    
O14   H5    S    
C26   F5    S    
C32   C36   A    
C28   C29   S    
C5    C11   A    
C12   O3    A    
C3    C7    A    
C5    C6    A    
C26   N1    A    
C28   N2    A    
C2    C36   A    
N2    Zn1   S    
C38   O11   D    
C39   O14   S    
C34   C35   A    
C40   O16   S    
C27   F6    S    
C11   C15   A    
C16   C17   A    
C31   C33   S    
C9    C10   A    
C18   C38   S    
C36   F10   S    
O8    Zn2   S    
C16   C24   S    
C23   O6    A    
C31   O7    A    
C13   C14   A    
C12   C32   S    
C14   C43   S    
O1    Zn1   S    
C37   O10   S    
C24   H1    S    
C29   C40   S    
C32   C35   A    
C8    F12   S    
C42   O20   S    
C18   C19   A    
C29   F8    S    
C3    C34   A    
O12   H4    S    
O22   H9    S    
C39   O13   D    
C2    C4    A    
C41   O17   D    
C22   F3    S    
C29   C30   S    
C13   C37   S    
C43   O21   D    
C20   C23   S    
O5    Zn1   S    
C27   N2    A    
C6    F11   S    
C17   C18   A    
C41   O18   S    
O2    Zn2   S    
C30   C42   S    
C1    O1    A    
C43   O22   S    
C31   O8    A    
C44   O24   S    
C22   C24   S    
C37   O9    D    
O4    Zn2   S    
C25   C30   S    
O10   H3    S    
C15   F7    S    
O3    Zn1   S    
C4    C5    A    
C10   C13   A    
C6    C7    A    
C24   F4    S    
C19   C39   S    
O6    Zn2   S    
C1    C17   S    
C2    C3    A    
C7    F1    S    
O16   H6    S    
C12   O4    A    
C25   N1    A    
C30   C41   S    
C9    H2    S    
C38   O12   S    
C34   C44   S    
C40   O15   D    
C10   C11   A    
C22   F2    S    
C42   O19   D    
C1    O2    A    
N1    Zn2   S    
C20   C21   A    
O24   H10   S    
C21   C22   S    
C15   C33   A    
C35   F9    S    
