data_mof_unit_29803.cif
_audit_creation_date              2012-12-10T18:23:50-0500
_audit_creation_method            fapswitch 2.2
_symmetry_space_group_name_H-M    P1
_symmetry_Int_Tables_number       1
_space_group_crystal_system       triclinic
_cell_length_a                    15.792151
_cell_length_b                    14.987263
_cell_length_c                    14.126694
_cell_angle_alpha                 89.99508
_cell_angle_beta                  90.927696
_cell_angle_gamma                 86.974306
_cell_volume                      3338.42164632

loop_
_atom_site_label
_atom_site_type_symbol
_atom_type_description
_atom_site_fract_x
_atom_site_fract_y
_atom_site_fract_z
_atom_type_partial_charge
C1    C     C_R   0.503293 0.326992 0.499704 0.988192
C2    C     C_R   0.502381 0.046678 0.497288 -0.075639
C3    C     C_R   0.421795 0.913180 0.516698 -0.066892
C4    C     C_R   0.581169 0.087324 0.488534 -0.055625
C5    C     C_R   0.653139 0.940671 0.484142 -0.286543
C6    C     C_R   0.349089 0.059627 0.515820 -0.304689
C7    C     C_R   0.656270 0.033013 0.475310 0.506776
C8    C     C_R   0.346807 0.967721 0.529450 0.484538
C9    C     C_R   0.441003 0.551301 0.798026 0.579876
C10   C     C_R   0.558546 0.447689 0.202103 0.557658
C11   C     C_R   0.557005 0.444086 0.799163 -0.048508
C12   C     C_R   0.497271 0.673004 0.500475 0.968028
C13   C     C_R   0.436366 0.546541 0.200083 -0.018507
C14   C     C_R   0.551209 0.432191 0.899930 -0.110207
C15   C     C_R   0.426544 0.537506 0.099044 -0.112503
C16   C     C_R   0.337986 0.501531 0.499358 0.920181
C17   C     C_R   0.662055 0.500907 0.501001 0.893035
C18   C     C_R   0.488854 0.484127 0.949006 0.050714
C19   C     C_R   0.487797 0.484147 0.050103 0.050993
C20   C     C_R   0.428626 0.537802 0.896972 -0.159506
C21   C     C_R   0.549355 0.432433 0.102293 -0.166556
C22   C     C_R   0.602701 0.367931 0.953088 -0.086804
C23   C     C_R   0.497113 0.768565 0.503055 -0.291060
C24   C     C_R   0.356494 0.577071 0.045156 -0.089204
C25   C     C_R   0.600729 0.367266 0.053661 -0.095672
C26   C     C_R   0.357123 0.576014 0.944530 -0.099819
C27   C     C_3   0.981465 0.422308 0.517204 0.265137
C28   C     C_3   0.018958 0.593603 0.489709 0.263624
C29   C     C_3   0.029358 0.456670 0.431628 0.268986
C30   C     C_3   0.971324 0.559104 0.575416 0.274941
C31   C     C_1   0.249121 0.506894 0.498153 -0.123054
C32   C     C_1   0.750954 0.502021 0.504226 -0.161891
C33   C     C_3   0.034467 0.477637 0.585597 0.277554
C34   C     C_R   0.504617 0.231404 0.496949 -0.256509
C35   C     C_3   0.966258 0.538171 0.421022 0.263529
C36   C     C_3   0.083260 0.512241 0.499930 -0.165858
C37   C     C_3   0.917022 0.503844 0.506841 -0.163142
C38   C     C_1   0.173934 0.510960 0.498084 0.135729
C39   C     C_1   0.826195 0.502423 0.506886 0.101243
C40   C     C_R   0.421133 0.819487 0.516949 0.349865
C41   C     C_R   0.582158 0.180823 0.495251 0.385814
C42   C     C_3   0.002946 0.368033 0.301377 0.122967
C43   C     C_3   0.041677 0.292969 0.241026 -0.856188
C44   C     C_3   0.002507 0.648989 0.703436 0.128482
C45   C     C_R   0.574782 0.808041 0.499242 0.395034
C46   C     C_3   0.964867 0.721792 0.767499 -0.875397
C47   C     C_2   0.649267 0.292875 0.905159 0.953404
C48   C     C_2   0.276497 0.606689 0.091580 0.972229
C49   C     C_2   0.644816 0.292098 0.107344 0.971435
C50   C     C_2   0.278162 0.602581 0.889309 0.968653
C51   C     C_3   0.028909 0.273916 0.531406 0.115371
C52   C     C_3   0.007258 0.185364 0.575148 -0.853433
C53   C     C_3   0.968967 0.741368 0.475412 0.109448
C54   C     C_3   0.989249 0.830497 0.431949 -0.878370
C55   C     C_3   0.985927 0.603073 0.274711 0.124749
C56   C     C_R   0.427125 0.191458 0.489867 0.378763
C57   C     C_3   0.946772 0.615998 0.176250 -0.851356
C58   C     C_3   0.019562 0.414642 0.733742 0.118542
C59   C     C_3   0.062995 0.403052 0.830171 -0.771137
C60   C     C_3   0.307568 0.754149 0.452325 0.107286
C61   C     C_3   0.216024 0.736072 0.470923 -0.649520
C62   C     C_3   0.692195 0.261070 0.442819 0.119976
C63   C     C_3   0.784480 0.274802 0.467641 -0.699381
C64   C     C_3   0.676212 0.740344 0.595245 0.054643
C65   C     C_3   0.772273 0.734343 0.601106 -0.772915
C66   C     C_3   0.330220 0.240412 0.379486 0.034488
C67   C     C_R   0.576247 0.900686 0.495622 -0.019417
C68   C     C_3   0.248927 0.296769 0.361473 -0.690067
C69   C     C_3   0.758577 0.040624 0.362604 0.071283
C70   C     C_3   0.839592 0.084298 0.335252 -0.853933
C71   C     C_3   0.241469 0.958248 0.637942 0.127260
C72   C     C_3   0.167339 0.903439 0.665798 -0.822311
C73   C     C_3   0.438377 0.702264 0.777506 0.091293
C74   C     C_3   0.373960 0.781237 0.770993 -0.756539
C75   C     C_3   0.697754 0.472690 0.223242 0.111102
C76   C     C_3   0.782494 0.429820 0.254961 -0.794877
C77   C     C_2   0.633248 0.410228 0.749502 0.981586
C78   C     C_R   0.425750 0.099246 0.500526 -0.018804
C79   C     C_2   0.390149 0.619886 0.248452 0.963479
C80   C     C_R   0.499962 0.953471 0.502326 -0.081745
H1    H     H_    0.711608 0.900039 0.479766 0.193132
H2    H     H_    0.917146 0.693823 0.814478 0.272152
H3    H     H_    0.015863 0.749514 0.811888 0.221001
H4    H     H_    0.934084 0.776652 0.724329 0.251110
H5    H     H_    0.761632 0.238939 0.861639 0.348156
H6    H     H_    0.200052 0.709574 0.136369 0.341140
H7    H     H_    0.751861 0.215261 0.130684 0.329661
H8    H     H_    0.179490 0.691648 0.867472 0.329650
H9    H     H_    0.084161 0.298916 0.571394 0.181799
H10   H     H_    0.047814 0.260690 0.457379 0.176083
H11   H     H_    0.956831 0.154633 0.532668 0.257966
H12   H     H_    0.290428 0.100265 0.519252 0.189247
H13   H     H_    0.064388 0.138817 0.576539 0.212761
H14   H     H_    0.985090 0.195758 0.648692 0.262111
H15   H     H_    0.949146 0.754269 0.549173 0.186258
H16   H     H_    0.914687 0.715318 0.434635 0.183431
H17   H     H_    0.013395 0.820606 0.359144 0.258547
H18   H     H_    0.931001 0.875387 0.428773 0.222427
H19   H     H_    0.037690 0.862953 0.475734 0.255740
H20   H     H_    0.044199 0.558468 0.268597 0.196825
H21   H     H_    0.004602 0.669247 0.299895 0.187610
H22   H     H_    0.886446 0.657325 0.180185 0.265409
H23   H     H_    0.975049 0.419752 0.252645 0.185057
H24   H     H_    0.991256 0.650363 0.130269 0.228865
H25   H     H_    0.934192 0.550394 0.144071 0.247682
H26   H     H_    0.999140 0.348423 0.710443 0.184309
H27   H     H_    0.962236 0.460216 0.742129 0.186925
H28   H     H_    0.083454 0.468432 0.856595 0.267792
H29   H     H_    0.018339 0.375909 0.881399 0.214823
H30   H     H_    0.119407 0.355943 0.824785 0.268707
H31   H     H_    0.339120 0.692044 0.425759 0.171544
H32   H     H_    0.307812 0.808063 0.397874 0.140102
H33   H     H_    0.179458 0.799647 0.484891 0.276200
H34   H     H_    0.951603 0.340421 0.343677 0.159633
H35   H     H_    0.188443 0.703990 0.407503 0.241345
H36   H     H_    0.211725 0.691601 0.533281 0.253845
H37   H     H_    0.688663 0.220462 0.377009 0.180872
H38   H     H_    0.660106 0.327157 0.428845 0.169104
H39   H     H_    0.817204 0.210565 0.488785 0.301543
H40   H     H_    0.817354 0.301707 0.406264 0.189647
H41   H     H_    0.788431 0.321214 0.528401 0.258836
H42   H     H_    0.652811 0.675916 0.619764 0.185300
H43   H     H_    0.653704 0.793835 0.645465 0.131435
H44   H     H_    0.797464 0.800349 0.585205 0.223202
H45   H     H_    0.070400 0.238886 0.286777 0.244546
H46   H     H_    0.792991 0.713780 0.673651 0.256227
H47   H     H_    0.797817 0.684559 0.549576 0.274606
H48   H     H_    0.318848 0.170830 0.356700 0.149354
H49   H     H_    0.380707 0.267129 0.334912 0.177381
H50   H     H_    0.259933 0.368132 0.373941 0.270149
H51   H     H_    0.228103 0.288867 0.286702 0.218286
H52   H     H_    0.198456 0.275299 0.408884 0.248302
H53   H     H_    0.708608 0.058647 0.308269 0.152790
H54   H     H_    0.772990 0.967260 0.360713 0.146504
H55   H     H_    0.888160 0.075237 0.392623 0.261369
H56   H     H_    0.991647 0.264871 0.195519 0.224572
H57   H     H_    0.865021 0.052899 0.269671 0.221495
H58   H     H_    0.826655 0.156463 0.320984 0.243948
H59   H     H_    0.218915 0.029803 0.637157 0.132520
H60   H     H_    0.292494 0.948032 0.692870 0.145325
H61   H     H_    0.186463 0.831096 0.665716 0.268722
H62   H     H_    0.146215 0.922734 0.737888 0.215736
H63   H     H_    0.113533 0.915978 0.615224 0.243818
H64   H     H_    0.491019 0.714058 0.728823 0.162403
H65   H     H_    0.465666 0.701751 0.850943 0.112277
H66   H     H_    0.336536 0.786499 0.836645 0.263076
H67   H     H_    0.091155 0.318977 0.195027 0.274827
H68   H     H_    0.407244 0.844086 0.762209 0.195850
H69   H     H_    0.329814 0.773095 0.710421 0.312242
H70   H     H_    0.689233 0.539768 0.256610 0.178093
H71   H     H_    0.701157 0.482151 0.145170 0.132068
H72   H     H_    0.788223 0.358603 0.233585 0.258380
H73   H     H_    0.833905 0.465560 0.221940 0.238004
H74   H     H_    0.789399 0.434633 0.332480 0.251792
H75   H     H_    0.689866 0.313975 0.670193 0.360467
H76   H     H_    0.380712 0.753147 0.269841 0.322717
H77   H     H_    0.050263 0.679335 0.658052 0.174838
H78   H     H_    0.035618 0.597715 0.749149 0.194533
N1    N     N_R   0.500040 0.500070 0.750030 -0.193979
N2    N     N_R   0.499960 0.499930 0.249970 -0.187464
O1    O     O_R   0.500020 0.367860 0.580280 -0.560956
O2    O     O_3   0.936704 0.611321 0.650042 -0.620745
O3    O     O_2   0.610322 0.230838 0.873469 -0.590959
O4    O     O_R   0.737259 0.293495 0.896179 -0.743194
O5    O     O_2   0.228560 0.551082 0.119142 -0.615439
O6    O     O_R   0.256134 0.697871 0.103476 -0.751509
O7    O     O_2   0.606477 0.252239 0.167360 -0.630459
O8    O     O_R   0.729520 0.266932 0.089427 -0.789491
O9    O     O_2   0.253810 0.554161 0.825818 -0.587480
O10   O     O_R   0.231343 0.681668 0.910196 -0.798195
O11   O     O_3   0.957073 0.334347 0.533578 -0.625148
O12   O     O_R   0.499980 0.632140 0.419720 -0.613729
O13   O     O_3   0.041817 0.682220 0.474265 -0.638170
O14   O     O_3   0.925816 0.568003 0.335881 -0.628460
O15   O     O_3   0.077527 0.448161 0.669254 -0.596263
O16   O     O_3   0.347746 0.777637 0.537549 -0.588673
O17   O     O_3   0.656427 0.219779 0.521173 -0.579300
O18   O     O_3   0.649786 0.755718 0.500014 -0.616245
O19   O     O_3   0.352767 0.243629 0.476729 -0.615732
O20   O     O_3   0.732706 0.069491 0.453963 -0.591689
O21   O     O_3   0.269953 0.931004 0.547491 -0.590316
O22   O     O_3   0.399335 0.622331 0.751434 -0.567370
O23   O     O_R   0.500020 0.367840 0.419730 -0.637471
O24   O     O_3   0.631606 0.417824 0.249837 -0.599891
O25   O     O_2   0.698654 0.449927 0.757866 -0.621948
O26   O     O_R   0.632191 0.331551 0.696849 -0.733745
O27   O     O_2   0.321920 0.607899 0.284506 -0.646903
O28   O     O_R   0.421668 0.705146 0.244573 -0.794125
O29   O     O_R   0.499980 0.632160 0.580270 -0.626781
O30   O     O_R   0.376770 0.500000 0.580260 -0.560908
O31   O     O_R   0.623230 0.500000 0.419740 -0.592236
O32   O     O_R   0.376780 0.499980 0.419710 -0.610834
O33   O     O_R   0.623220 0.500020 0.580290 -0.625051
O34   O     O_3   0.066720 0.404156 0.358752 -0.614061
Zn1   Zn    Zn3+2 0.499990 0.500020 0.607200 1.035560
Zn2   Zn    Zn3+2 0.500010 0.499980 0.392800 1.008850

loop_
_geom_bond_atom_site_label_1
_geom_bond_atom_site_label_2
_ccdc_geom_bond_type
C8    O21   S    
C72   H63   S    
C66   C68   S    
C13   C79   S    
C34   C56   A    
C69   H54   S    
C23   C45   A    
C10   N2    A    
C27   C29   S    
C77   O25   D    
C73   C74   S    
C71   O21   S    
C17   O33   A    
C58   O15   S    
H6    O6    S    
C5    C67   A    
C42   H23   S    
C33   C36   S    
C62   O17   S    
C1    O23   A    
C53   O13   S    
C12   O12   A    
C53   C54   S    
C17   O31   A    
C16   C31   S    
C15   C19   A    
C12   O29   A    
C29   C36   S    
C79   O27   D    
C2    C78   A    
O32   Zn2   S    
C74   H68   S    
C35   C37   S    
C24   C26   A    
C55   H21   S    
C49   O7    D    
C26   C50   S    
C51   H10   S    
C11   C14   A    
C64   H42   S    
C28   O13   S    
C6    C78   A    
C53   H15   S    
C4    C41   A    
C9    N1    A    
C75   H70   S    
C23   C40   A    
C76   H73   S    
C59   H30   S    
C44   H78   S    
O1    Zn1   S    
C68   H52   S    
C18   C19   A    
C32   C39   T    
C76   H74   S    
C42   O34   S    
C14   C18   A    
O31   Zn2   S    
C62   H37   S    
C63   H40   S    
C9    O22   S    
C11   C77   S    
C46   H2    S    
C42   H34   S    
C48   O5    D    
C28   C35   S    
C75   H71   S    
O33   Zn1   S    
C22   C25   A    
C55   H20   S    
C45   C67   A    
C54   H17   S    
C52   H14   S    
C16   O32   A    
C13   N2    A    
C56   C78   A    
N2    Zn2   S    
C66   H49   S    
C47   O3    D    
C22   C47   S    
N1    Zn1   S    
C1    O1    A    
C53   H16   S    
C77   O26   S    
C43   H45   S    
C69   C70   S    
C34   C41   A    
C44   H77   S    
C4    C7    A    
C3    C80   A    
C63   H41   S    
C44   C46   S    
C1    C34   S    
H76   O28   S    
C10   C21   A    
C72   H61   S    
H8    O10   S    
C79   O28   S    
C11   N1    A    
C51   C52   S    
C24   C48   S    
C43   H67   S    
C49   O8    S    
C3    C8    A    
C51   O11   S    
C5    C7    A    
C71   H59   S    
C58   C59   S    
C27   C33   S    
C30   C37   S    
C73   H65   S    
C60   C61   S    
C58   H26   S    
C68   H51   S    
C72   H62   S    
C75   C76   S    
C55   O14   S    
C61   H35   S    
C62   C63   S    
C60   H32   S    
C5    H1    S    
O29   Zn1   S    
C9    C20   A    
H7    O8    S    
C12   C23   S    
C61   H36   S    
O23   Zn2   S    
C52   H13   S    
C50   O10   S    
C55   C57   S    
C68   H50   S    
C57   H22   S    
C16   O30   A    
C45   O18   S    
C46   H4    S    
C47   O4    S    
O30   Zn1   S    
C15   C24   A    
C3    C40   A    
C70   H58   S    
C13   C15   A    
C61   H33   S    
C70   H55   S    
C60   O16   S    
C54   H19   S    
O12   Zn2   S    
C42   C43   S    
C30   O2    S    
C27   O11   S    
C58   H27   S    
C74   H69   S    
C40   O16   S    
C41   O17   S    
H5    O4    S    
C57   H24   S    
C21   C25   A    
C69   H53   S    
C30   C33   S    
C19   C21   A    
C35   O14   S    
C74   H66   S    
C67   C80   A    
H75   O26   S    
C44   O2    S    
C6    C8    A    
C71   H60   S    
C64   H43   S    
C66   O19   S    
C29   C35   S    
C59   H28   S    
C31   C38   T    
C65   H46   S    
C14   C22   A    
C28   C30   S    
C65   H47   S    
C71   C72   S    
C69   O20   S    
C60   H31   S    
C64   C65   S    
C73   O22   S    
C64   O18   S    
C75   O24   S    
C20   C26   A    
C57   H25   S    
C27   C37   S    
C6    H12   S    
C2    C4    A    
C36   C38   S    
C59   H29   S    
C66   H48   S    
C7    O20   S    
C50   O9    D    
C18   C20   A    
C43   H56   S    
C33   O15   S    
C25   C49   S    
C62   H38   S    
C2    C80   A    
C46   H3    S    
C65   H44   S    
C48   O6    S    
C28   C36   S    
C70   H57   S    
C37   C39   S    
C63   H39   S    
C17   C32   S    
C76   H72   S    
C54   H18   S    
C52   H11   S    
C73   H64   S    
C51   H9    S    
C10   O24   S    
C29   O34   S    
C56   O19   S    
