data_mof_unit_28967.cif
_audit_creation_date              2012-12-11T15:06:46-0500
_audit_creation_method            fapswitch 2.2
_symmetry_space_group_name_H-M    P1
_symmetry_Int_Tables_number       1
_space_group_crystal_system       triclinic
_cell_length_a                    7.228301
_cell_length_b                    14.979757
_cell_length_c                    22.543619
_cell_angle_alpha                 90.000571
_cell_angle_beta                  90.000236
_cell_angle_gamma                 92.808321
_cell_volume                      2438.050777

loop_
_atom_site_label
_atom_site_type_symbol
_atom_type_description
_atom_site_fract_x
_atom_site_fract_y
_atom_site_fract_z
_atom_type_partial_charge
O1    O     O_R   0.390810 0.844810 0.447340 -0.529434
O2    O     O_R   0.109190 0.155190 0.947340 -0.529433
O3    O     O_R   0.890810 0.655190 0.552660 -0.523562
O4    O     O_R   0.609190 0.344810 0.052660 -0.523557
O5    O     O_R   0.720550 0.655820 0.440420 -0.513895
O6    O     O_R   0.779450 0.344180 0.940420 -0.513905
O7    O     O_R   0.220550 0.844180 0.559580 -0.540726
O8    O     O_R   0.279450 0.155820 0.059580 -0.540735
C1    C     C_R   0.548668 0.626836 0.426297 0.780548
C2    C     C_R   0.951331 0.373166 0.926298 0.780567
C3    C     C_R   0.055188 0.873008 0.574115 0.763780
C4    C     C_R   0.444813 0.126992 0.074116 0.763800
O9    O     O_R   0.720530 0.844130 0.440420 -0.535207
O10   O     O_R   0.779470 0.155870 0.940420 -0.535194
O11   O     O_R   0.220530 0.655870 0.559580 -0.532482
O12   O     O_R   0.279470 0.344130 0.059580 -0.532488
O13   O     O_R   0.890830 0.844810 0.552660 -0.505229
O14   O     O_R   0.609170 0.155190 0.052660 -0.505224
O15   O     O_R   0.390830 0.655190 0.447340 -0.539225
O16   O     O_R   0.109170 0.344810 0.947340 -0.539227
C5    C     C_R   0.555770 0.874041 0.426535 0.743556
C6    C     C_R   0.944229 0.125958 0.926536 0.743581
C7    C     C_R   0.048936 0.626043 0.573202 0.740612
C8    C     C_R   0.451064 0.373960 0.073200 0.740625
O17   O     O_3   0.557310 0.749980 0.536820 -0.359089
O18   O     O_3   0.942690 0.250020 0.036820 -0.359098
O19   O     O_3   0.057310 0.750020 0.463180 -0.379669
O20   O     O_3   0.442690 0.249980 0.963180 -0.379673
V1    V     V_3+5 0.832160 0.749980 0.493170 1.605733
V2    V     V_3+5 0.667840 0.250020 0.993170 1.605740
V3    V     V_3+5 0.332160 0.750020 0.506830 1.570030
V4    V     V_3+5 0.167840 0.249980 0.006830 1.570002
C9    C     C_R   0.112265 0.594033 0.859894 -0.191698
C10   C     C_R   0.387755 0.405968 0.359886 -0.191673
C11   C     C_R   0.288355 0.914260 0.151842 -0.187558
C12   C     C_R   0.211642 0.085739 0.651847 -0.187544
C13   C     C_R   0.974146 0.447093 0.882684 -0.179131
C14   C     C_R   0.525849 0.552912 0.382682 -0.179128
C15   C     C_R   0.440592 0.053165 0.118347 -0.185568
C16   C     C_R   0.059412 0.946833 0.618348 -0.185547
C17   C     C_R   0.931396 0.469046 0.589883 -0.035193
C18   C     C_R   0.568556 0.530968 0.089872 -0.035201
C19   C     C_R   0.695249 0.023365 0.399072 -0.040731
C20   C     C_R   0.804764 0.976628 0.899075 -0.040724
C21   C     C_R   0.839885 0.410179 0.629543 -0.127280
C22   C     C_R   0.660048 0.589853 0.129529 -0.127286
C23   C     C_R   0.777959 0.072613 0.352627 -0.138294
C24   C     C_R   0.722073 0.927371 0.852631 -0.138307
C25   C     C_R   0.852012 0.423421 0.690411 -0.129859
C26   C     C_R   0.647955 0.576609 0.190397 -0.129828
C27   C     C_R   0.721712 0.058581 0.294405 -0.145080
C28   C     C_R   0.778326 0.941399 0.794410 -0.145151
C29   C     C_R   0.975121 0.489391 0.714917 0.096644
C30   C     C_R   0.524872 0.510626 0.214910 0.096612
C31   C     C_R   0.562322 0.004564 0.280838 0.102181
C32   C     C_R   0.937707 0.995420 0.780843 0.102189
C33   C     C_R   0.056011 0.554713 0.675114 0.040211
C34   C     C_R   0.443997 0.445293 0.175108 0.040234
C35   C     C_R   0.491687 0.945848 0.326580 0.019853
C36   C     C_R   0.008328 0.054142 0.826584 0.019847
C37   C     C_R   0.007885 0.497029 0.777944 0.032498
C38   C     C_R   0.492119 0.502984 0.277938 0.032481
C39   C     C_R   0.481005 0.001399 0.222282 0.023558
C40   C     C_R   0.019019 0.998589 0.722287 0.023581
C41   C     C_R   0.099129 0.576578 0.799092 0.081021
C42   C     C_R   0.400893 0.423427 0.299085 0.081062
C43   C     C_R   0.353146 0.929243 0.209500 0.085487
C44   C     C_R   0.146864 0.070750 0.709505 0.085481
C45   C     C_R   0.179964 0.638764 0.759448 -0.149319
C46   C     C_R   0.320080 0.361231 0.259442 -0.149455
C47   C     C_R   0.288264 0.871580 0.254459 -0.104848
C48   C     C_R   0.211741 0.128414 0.754464 -0.104880
C49   C     C_R   0.160526 0.627774 0.698612 -0.162335
C50   C     C_R   0.339517 0.372218 0.198607 -0.162418
C51   C     C_R   0.353101 0.880745 0.312131 -0.154666
C52   C     C_R   0.146905 0.119249 0.812136 -0.154767
C53   C     C_R   0.961009 0.428376 0.820721 -0.068666
C54   C     C_R   0.539004 0.571634 0.320720 -0.068615
C55   C     C_R   0.514221 0.067757 0.176665 -0.069576
C56   C     C_R   0.985799 0.932234 0.676666 -0.069581
C57   C     C_R   0.045553 0.532096 0.902173 -0.049654
C58   C     C_R   0.454439 0.467908 0.402168 -0.049679
C59   C     C_R   0.335571 0.972896 0.105458 -0.058740
C60   C     C_R   0.164425 0.027104 0.605460 -0.058742
C61   C     C_R   0.025056 0.547094 0.612744 -0.146951
C62   C     C_R   0.474936 0.452910 0.112738 -0.146951
C63   C     C_R   0.567095 0.951608 0.385131 -0.144498
C64   C     C_R   0.932910 0.048388 0.885134 -0.144482
H1    H     H_    0.760418 0.381605 0.717403 0.139247
H2    H     H_    0.739566 0.618430 0.217383 0.139265
H3    H     H_    0.806664 0.090741 0.260624 0.140891
H4    H     H_    0.693375 0.909236 0.760629 0.140887
H5    H     H_    0.753382 0.354257 0.613411 0.171735
H6    H     H_    0.746518 0.645789 0.113393 0.171736
H7    H     H_    0.890662 0.121297 0.361085 0.170217
H8    H     H_    0.609377 0.878684 0.861088 0.170217
C65   C     C_2   0.063431 0.557427 0.966317 0.823335
O21   O     O_2   0.998192 0.508708 0.005325 -0.565799
O22   O     O_R   0.154210 0.638594 0.982239 -0.645775
H9    H     H_    0.157573 0.648405 0.026744 0.316859
C66   C     C_2   0.436538 0.442578 0.466311 0.823367
O23   O     O_2   0.501744 0.491303 0.505322 -0.565787
O24   O     O_R   0.345773 0.361405 0.482228 -0.645774
H10   H     H_    0.342390 0.351595 0.526733 0.316870
C67   C     C_2   0.267643 0.948353 0.044509 0.840657
O25   O     O_2   0.317133 0.992399 0.001178 -0.551501
O26   O     O_R   0.149794 0.872365 0.036399 -0.652398
H11   H     H_    0.116144 0.861571 0.993232 0.323037
C68   C     C_2   0.232343 0.051651 0.544511 0.840655
O27   O     O_2   0.182864 0.007602 0.501181 -0.551508
O28   O     O_R   0.350171 0.127643 0.536402 -0.652396
H12   H     H_    0.383819 0.138438 0.493235 0.323044
H13   H     H_    0.257081 0.697689 0.775700 0.156619
H14   H     H_    0.242994 0.302294 0.275694 0.156632
H15   H     H_    0.185080 0.818506 0.244960 0.150345
H16   H     H_    0.314916 0.181492 0.744966 0.150398
H17   H     H_    0.176605 0.657234 0.874348 0.174019
H18   H     H_    0.323435 0.342759 0.374338 0.174015
H19   H     H_    0.198764 0.855523 0.143180 0.165552
H20   H     H_    0.301223 0.144480 0.643186 0.165558
C69   C     C_2   0.935914 0.333473 0.802230 0.674889
O29   O     O_2   0.045234 0.302766 0.767297 -0.561950
O30   O     O_R   0.786269 0.280065 0.823458 -0.668215
H21   H     H_    0.782975 0.217324 0.806516 0.285229
C70   C     C_2   0.564212 0.666532 0.302238 0.674852
O31   O     O_2   0.454941 0.697281 0.267309 -0.561967
O32   O     O_R   0.713923 0.719887 0.323470 -0.668198
H22   H     H_    0.717313 0.782628 0.306534 0.285228
C71   C     C_2   0.598859 0.157540 0.191306 0.677261
O33   O     O_2   0.726329 0.190060 0.161499 -0.552841
O34   O     O_R   0.539716 0.202514 0.241546 -0.666075
H23   H     H_    0.620442 0.258262 0.250209 0.302140
C72   C     C_2   0.901153 0.842444 0.691303 0.677142
O35   O     O_2   0.773599 0.809935 0.661501 -0.552803
O36   O     O_R   0.960358 0.797452 0.741537 -0.666047
H24   H     H_    0.879466 0.741764 0.750235 0.302110
C73   C     C_2   0.923151 0.448061 0.524958 0.808592
O37   O     O_2   0.835758 0.381085 0.507556 -0.535879
O38   O     O_R   0.019467 0.502298 0.483652 -0.664851
H25   H     H_    0.002752 0.480135 0.441396 0.293170
C74   C     C_2   0.576784 0.551944 0.024946 0.808593
O39   O     O_2   0.664140 0.618928 0.007540 -0.535872
O40   O     O_R   0.480494 0.497687 0.983643 -0.664854
H26   H     H_    0.497192 0.519846 0.941386 0.293161
C75   C     C_2   0.749225 0.046710 0.461423 0.798644
O41   O     O_2   0.865759 0.107014 0.470915 -0.531733
O42   O     O_R   0.662193 0.003106 0.509495 -0.660217
H27   H     H_    0.710384 0.026008 0.549196 0.301760
C76   C     C_2   0.750776 0.953291 0.961426 0.798634
O43   O     O_2   0.634235 0.892992 0.970917 -0.531731
O44   O     O_R   0.837804 0.996899 0.009498 -0.660221
H28   H     H_    0.789605 0.974002 0.049199 0.301761
H29   H     H_    0.224916 0.678613 0.670308 0.137086
H30   H     H_    0.275154 0.321363 0.170306 0.137073
H31   H     H_    0.295621 0.834515 0.344762 0.148511
H32   H     H_    0.204376 0.165482 0.844766 0.148540

loop_
_geom_bond_atom_site_label_1
_geom_bond_atom_site_label_2
_ccdc_geom_bond_type
O17   V3    S    
C5    C63   S    
O1    C5    A    
C66   O23   D    
C31   C35   A    
O19   V1    S    
O13   V1    S    
C16   C60   A    
C67   O25   D    
C11   H19   S    
O28   H12   S    
C48   C52   A    
O15   V3    S    
C10   C42   A    
C65   O21   D    
C36   C64   A    
C9    C41   A    
O30   H21   S    
C39   C55   A    
C46   H14   S    
O7    C3    A    
C73   O38   S    
C45   H13   S    
C26   C30   A    
C2    C13   S    
C40   C44   A    
O9    V1    S    
C76   O44   S    
C30   C34   A    
O4    C8    A    
C25   C29   A    
O40   H26   S    
C55   C71   S    
C23   H7    S    
O1    V3    S    
C50   H30   S    
O2    V4    S    
C18   C22   A    
C33   C49   A    
O3    V1    S    
C68   O28   S    
C27   H3    S    
C29   C37   A    
C26   H2    S    
O42   H27   S    
C2    O16   A    
C31   C39   A    
C46   C50   A    
O26   H11   S    
C16   C56   A    
C45   C49   A    
O14   V2    S    
C11   C43   A    
C19   C23   A    
C17   C73   S    
C44   C48   A    
O11   C7    A    
O44   H28   S    
C21   H5    S    
C66   O24   S    
C14   C58   A    
C40   C56   A    
C13   C57   A    
O10   V2    S    
C34   C62   A    
C65   O22   S    
C1    O15   A    
C75   O41   D    
O5    V1    S    
C9    H17   S    
C39   C43   A    
O7    V3    S    
C38   C42   A    
C47   H15   S    
O8    V4    S    
O36   H24   S    
C37   C53   A    
C11   C59   A    
O18   V4    S    
C23   C27   A    
C14   C54   A    
C27   C31   A    
O3    C7    A    
C13   C53   A    
C10   H18   S    
C52   H32   S    
C56   C72   S    
C32   C36   A    
C8    C62   S    
C15   C55   A    
O5    C1    A    
C19   C75   S    
C51   H31   S    
C67   O26   S    
O22   H9    S    
C22   H6    S    
C21   C25   A    
O8    C4    A    
C18   C74   S    
C32   C40   A    
O9    C5    A    
C69   O29   D    
C18   C62   A    
O6    V2    S    
C6    C64   S    
C74   O39   D    
C70   O31   D    
C28   H4    S    
C49   H29   S    
O34   H23   S    
C35   C51   A    
C34   C50   A    
C70   O32   S    
C71   O33   D    
O16   V4    S    
C48   H16   S    
C3    O13   A    
C29   C33   A    
C24   H8    S    
C38   C54   A    
C20   C76   S    
C25   H1    S    
O6    C2    A    
O38   H25   S    
C12   C44   A    
O11   V3    S    
O32   H22   S    
O12   V4    S    
C17   C61   A    
C73   O37   D    
C22   C26   A    
C60   C68   S    
C19   C63   A    
O2    C6    A    
C4    C15   S    
C74   O40   S    
C15   C59   A    
C20   C64   A    
C76   O43   D    
C47   C51   A    
O10   C6    A    
C72   O35   D    
C57   C65   S    
C12   C60   A    
C41   C45   A    
C75   O42   S    
O20   V2    S    
C1    C14   S    
C58   C66   S    
C36   C52   A    
C43   C47   A    
C37   C41   A    
C3    C16   S    
C12   H20   S    
C35   C63   A    
C69   O30   S    
C53   C69   S    
C20   C24   A    
C24   C28   A    
C42   C46   A    
O12   C8    A    
C7    C61   S    
C4    O14   A    
O24   H10   S    
C72   O36   S    
C17   C21   A    
C30   C38   A    
C59   C67   S    
C10   C58   A    
C68   O27   D    
C54   C70   S    
C9    C57   A    
C33   C61   A    
O4    V2    S    
C28   C32   A    
C71   O34   S    
