data_mof_unit_57685.cif
_audit_creation_date              2012-12-10T18:15:14-0500
_audit_creation_method            fapswitch 2.2
_symmetry_space_group_name_H-M    P1
_symmetry_Int_Tables_number       1
_space_group_crystal_system       triclinic
_cell_length_a                    12.58762
_cell_length_b                    13.126082
_cell_length_c                    23.425439
_cell_angle_alpha                 90.70545
_cell_angle_beta                  102.919178
_cell_angle_gamma                 81.974082
_cell_volume                      3734.85018705

loop_
_atom_site_label
_atom_site_type_symbol
_atom_type_description
_atom_site_fract_x
_atom_site_fract_y
_atom_site_fract_z
_atom_type_partial_charge
C1    C     C_R   0.438202 0.691619 0.493983 0.904158
C2    C     C_R   0.377425 0.664637 0.016908 -0.158368
C3    C     C_R   0.380500 0.667512 0.957914 -0.160349
C4    C     C_R   0.442433 0.587501 0.934191 -0.014805
C5    C     C_R   0.501869 0.503993 0.970227 -0.021582
C6    C     C_R   0.564342 0.423334 0.946848 -0.015477
C7    C     C_R   0.623159 0.340409 0.983088 -0.158655
C8    C     C_R   0.619954 0.337465 0.042056 -0.159427
C9    C     C_R   0.446209 0.588288 0.875055 0.500215
C10   C     C_R   0.565351 0.427478 0.887426 0.503406
C11   C     C_R   0.409781 0.490214 0.752010 -0.104597
C12   C     C_R   0.500848 0.500883 0.610551 0.854937
C13   C     C_R   0.408380 0.487635 0.692633 -0.211645
C14   C     C_R   0.502460 0.503712 0.673057 -0.037031
C15   C     C_R   0.597609 0.523106 0.713663 -0.227119
C16   C     C_R   0.598714 0.525539 0.773090 -0.101493
C17   C     C_R   0.504899 0.508883 0.792171 0.321870
C18   C     C_R   0.590994 0.510666 0.248271 -0.104381
C19   C     C_R   0.592427 0.511778 0.307649 -0.220831
C20   C     C_R   0.497400 0.497826 0.326919 -0.040503
C21   C     C_R   0.401209 0.482218 0.285986 -0.207828
C22   C     C_R   0.400109 0.481107 0.226548 -0.100502
C23   C     C_R   0.561524 0.308812 0.507212 0.863222
C24   C     C_R   0.494932 0.495479 0.207767 0.318300
C25   C     C_R   0.697991 0.066794 0.588674 -0.182374
C26   C     C_R   0.598923 0.200384 0.519486 -0.057390
C27   C     C_R   0.300821 0.837176 0.444883 0.507421
C28   C     C_R   0.280179 0.941176 0.427657 -0.251547
C29   C     C_R   0.353865 0.007977 0.451520 -0.257386
C30   C     C_R   0.449974 0.973614 0.494763 0.096358
C31   C     C_R   0.464919 0.872176 0.516917 0.022861
C32   C     C_R   0.531882 0.036585 0.516812 0.103509
C33   C     C_R   0.619265 0.002551 0.565382 0.167010
C34   C     C_R   0.499087 0.499441 0.389441 0.872148
C35   C     C_R   0.624723 0.906467 0.591147 -0.226364
C36   C     C_R   0.548037 0.842352 0.567568 -0.178103
C37   C     C_R   0.528980 0.133113 0.492074 -0.247629
C38   C     C_R   0.686494 0.166711 0.566489 -0.191064
C39   C     C_R   0.397713 0.801905 0.487307 -0.227934
C40   C     C_R   0.087239 0.348274 0.417745 -0.306129
C41   C     C_R   0.800160 0.627789 0.570510 -0.114220
C42   C     C_R   0.907081 0.652608 0.587802 0.500555
C43   C     C_R   0.987652 0.604360 0.560387 -0.290156
C44   C     C_R   0.963491 0.528493 0.517898 -0.067894
C45   C     C_R   0.553922 0.416472 0.124855 0.501083
C46   C     C_R   0.854949 0.503629 0.504030 0.211306
C47   C     C_R   0.042339 0.476234 0.488857 0.020040
C48   C     C_R   0.011199 0.399998 0.447172 0.190592
C49   C     C_R   0.904718 0.375518 0.435498 -0.286189
C50   C     C_R   0.828068 0.426242 0.463822 -0.184412
C51   C     C_R   0.151558 0.496157 0.499305 -0.043313
C52   C     C_R   0.193502 0.372313 0.429766 0.013938
C53   C     C_R   0.435150 0.577493 0.112574 0.504176
C54   C     C_R   0.436222 0.581695 0.053151 -0.015909
C55   C     C_R   0.498653 0.501029 0.029759 -0.021733
C56   C     C_R   0.557962 0.417448 0.065767 -0.014150
H1    H     H_    0.328979 0.727509 0.033978 0.192994
H2    H     H_    0.667775 0.523660 0.338290 0.169504
H3    H     H_    0.326954 0.471158 0.299768 0.165459
H4    H     H_    0.325819 0.469246 0.195038 0.143234
H5    H     H_    0.741170 0.219152 0.588203 0.161850
H6    H     H_    0.688570 0.880659 0.629432 0.154121
H7    H     H_    0.764555 0.041744 0.625917 0.153012
H8    H     H_    0.468644 0.161190 0.453221 0.138269
H9    H     H_    0.331817 0.086529 0.435727 0.153609
H10   H     H_    0.210147 0.970464 0.393313 0.148737
H11   H     H_    0.334183 0.732427 0.931016 0.192296
H12   H     H_    0.553722 0.769274 0.589726 0.148513
H13   H     H_    0.253747 0.333185 0.407558 0.126046
H14   H     H_    0.880446 0.316671 0.404312 0.160592
H15   H     H_    0.064724 0.289949 0.385903 0.147664
H16   H     H_    0.183469 0.551296 0.530511 0.118679
H17   H     H_    0.734908 0.666281 0.589338 0.144927
H18   H     H_    0.068227 0.627434 0.573772 0.165393
H19   H     H_    0.748312 0.402778 0.453508 0.211170
H20   H     H_    0.671632 0.277549 0.966024 0.192761
H21   H     H_    0.666204 0.272509 0.068940 0.192310
H22   H     H_    0.337359 0.477015 0.766995 0.139673
H23   H     H_    0.333859 0.472872 0.662237 0.164031
H24   H     H_    0.671057 0.536149 0.699645 0.156497
H25   H     H_    0.672268 0.540051 0.804363 0.139215
H26   H     H_    0.664236 0.522082 0.233566 0.141543
N1    N     N_R   0.493695 0.495958 0.146859 -0.358434
N2    N     N_R   0.506526 0.508830 0.853102 -0.358911
N3    N     N_R   0.222200 0.444670 0.469780 -0.099222
N4    N     N_R   0.776960 0.554790 0.529910 -0.149575
O1    O     O_R   0.366740 0.627150 0.485570 -0.566888
O2    O     O_2   0.377325 0.654628 0.136212 -0.553960
O3    O     O_2   0.390270 0.667558 0.839641 -0.558119
O4    O     O_2   0.623372 0.350451 0.863814 -0.556840
O5    O     O_R   0.544830 0.662520 0.504870 -0.612845
O6    O     O_R   0.410930 0.482340 0.574190 -0.623399
O7    O     O_R   0.589010 0.517710 0.593490 -0.630088
O8    O     O_R   0.455170 0.337480 0.495130 -0.610330
O9    O     O_R   0.633260 0.372850 0.514430 -0.636121
O10   O     O_R   0.410990 0.482290 0.406510 -0.612038
O11   O     O_R   0.589070 0.517660 0.425810 -0.635498
O12   O     O_2   0.609447 0.336911 0.160165 -0.561323
Zn1   Zn    Zn3+2 0.381090 0.476380 0.487110 0.965244
Zn2   Zn    Zn3+2 0.618910 0.523620 0.512890 0.930503
O13   O     O_3   0.235363 0.766491 0.416393 -0.626919
C57   C     C_3   0.122192 0.795530 0.415745 0.100353
H27   H     H_    0.077654 0.734340 0.392487 0.178059
H28   H     H_    0.087119 0.867296 0.389728 0.123658
C58   C     C_3   0.099314 0.803507 0.477601 -0.398788
H29   H     H_    0.137815 0.731983 0.503097 0.228857
H30   H     H_    0.135560 0.869265 0.500715 0.219509
C59   C     C_3   0.975886 0.819950 0.475052 -0.895761
H31   H     H_    0.935806 0.890850 0.449187 0.260945
H32   H     H_    0.961834 0.828635 0.520087 0.293422
H33   H     H_    0.937750 0.752990 0.454768 0.264071
O14   O     O_3   0.933408 0.729025 0.627693 -0.606413
C60   C     C_3   0.908592 0.705884 0.681532 -0.318294
H34   H     H_    0.940048 0.624595 0.696102 0.161253
H35   H     H_    0.818760 0.722885 0.679149 0.144357
H36   H     H_    0.949675 0.755933 0.715506 0.208818

loop_
_geom_bond_atom_site_label_1
_geom_bond_atom_site_label_2
_ccdc_geom_bond_type
C1    O1    A    
C55   C56   A    
C13   H23   S    
O13   C57   S    
C40   H15   S    
C41   C42   A    
C35   C36   A    
C51   N3    A    
C2    H1    S    
C7    C8    A    
C53   C54   A    
C41   N4    A    
C58   H30   S    
C28   C29   A    
C23   O9    A    
C18   C24   A    
C52   N3    A    
C24   N1    S    
C34   O10   A    
C21   H3    S    
C45   O12   S    
C22   H4    S    
C5    C6    A    
C15   C16   A    
O10   Zn1   S    
C34   O11   A    
C59   H31   S    
C57   C58   S    
C18   C19   A    
C25   H7    S    
C23   C26   S    
C42   O14   S    
C52   H13   S    
C18   H26   S    
C15   H24   S    
C45   C56   A    
C27   C39   A    
C16   C17   A    
O5    Zn2   S    
C35   H6    S    
N4    Zn2   S    
C44   C47   A    
C12   O6    A    
C38   H5    S    
C20   C34   S    
C43   H18   S    
C1    O5    A    
C21   C22   A    
C8    C56   A    
C45   N1    A    
O14   C60   S    
C44   C46   A    
O1    Zn1   S    
C19   H2    S    
C58   C59   S    
C2    C54   A    
C9    O3    S    
O9    Zn2   S    
C26   C38   A    
C47   C51   A    
C40   C52   A    
C27   O13   S    
C37   H8    S    
C28   H10   S    
C43   C44   A    
C29   C30   A    
N3    Zn1   S    
C11   H22   S    
C25   C38   A    
C47   C48   A    
C32   C37   A    
C57   H28   S    
O7    Zn2   S    
C6    C7    A    
C29   H9    S    
C48   C49   A    
C12   C14   S    
C49   H14   S    
C8    H21   S    
C22   C24   A    
C12   O7    A    
C42   C43   A    
C3    C4    A    
O11   Zn2   S    
C60   H34   S    
C40   C48   A    
C54   C55   A    
C11   C17   A    
C31   C36   A    
C5    C55   A    
C3    H11   S    
C4    C5    A    
C6    C10   A    
C36   H12   S    
C26   C37   A    
C7    H20   S    
C58   H29   S    
C46   C50   A    
C59   H33   S    
C53   N1    A    
C17   N2    S    
C32   C33   A    
C60   H36   S    
C19   C20   A    
C2    C3    A    
C50   H19   S    
C30   C32   A    
C11   C13   A    
C30   C31   A    
O8    Zn1   S    
C10   N2    A    
C16   H25   S    
C33   C35   A    
C59   H32   S    
C53   O2    S    
C57   H27   S    
C1    C39   S    
C9    N2    A    
C41   H17   S    
C23   O8    A    
C20   C21   A    
C10   O4    S    
C49   C50   A    
C51   H16   S    
C27   C28   A    
C31   C39   A    
C14   C15   A    
C46   N4    A    
C4    C9    A    
C13   C14   A    
O6    Zn1   S    
C25   C33   A    
C60   H35   S    
