data_mof_unit_49288.cif
_audit_creation_date              2012-12-10T17:50:46-0500
_audit_creation_method            fapswitch 2.2
_symmetry_space_group_name_H-M    P1
_symmetry_Int_Tables_number       1
_space_group_crystal_system       triclinic
_cell_length_a                    14.710113
_cell_length_b                    14.719147
_cell_length_c                    15.85769
_cell_angle_alpha                 76.920206
_cell_angle_beta                  102.749064
_cell_angle_gamma                 114.830132
_cell_volume                      3004.44647188

loop_
_atom_site_label
_atom_site_type_symbol
_atom_type_description
_atom_site_fract_x
_atom_site_fract_y
_atom_site_fract_z
_atom_type_partial_charge
C1    C     C_R   0.880317 0.312324 0.515087 0.795372
C2    C     C_R   0.360946 0.920045 0.504527 0.089158
C3    C     C_R   0.679377 0.001108 0.546226 0.163350
C4    C     C_R   0.321840 0.995229 0.496625 0.161903
C5    C     C_R   0.533652 0.049987 0.520778 0.065161
C6    C     C_R   0.467517 0.946394 0.520999 0.064348
C7    C     C_R   0.510127 0.872500 0.539699 -0.221521
C8    C     C_R   0.491447 0.122336 0.514289 -0.219646
C9    C     C_R   0.614027 0.899646 0.552894 -0.226491
C10   C     C_R   0.387593 0.095047 0.502954 -0.227805
C11   C     C_R   0.715880 0.668795 0.355752 -0.320246
C12   C     C_R   0.119664 0.687661 0.486159 0.794315
C13   C     C_R   0.283733 0.330616 0.643765 -0.323188
C14   C     C_R   0.797184 0.638925 0.378260 0.077449
C15   C     C_R   0.202611 0.360773 0.621480 0.077515
C16   C     C_R   0.999681 0.500080 0.660005 0.823663
C17   C     C_R   0.000324 0.499928 0.339993 0.823918
C18   C     C_R   0.714630 0.508959 0.487896 0.014022
C19   C     C_R   0.285386 0.491019 0.512132 0.013078
C20   C     C_R   0.628657 0.534945 0.467638 -0.022367
C21   C     C_R   0.371164 0.464724 0.532151 -0.021556
C22   C     C_R   0.631727 0.617576 0.400408 0.161362
C23   C     C_R   0.784113 0.027084 0.556372 -0.197495
C24   C     C_R   0.367925 0.381852 0.599160 0.162621
C25   C     C_R   0.541034 0.483142 0.511628 0.077150
C26   C     C_R   0.458739 0.516441 0.488102 0.073869
C27   C     C_R   0.466932 0.600352 0.421563 -0.227315
C28   C     C_R   0.532730 0.399071 0.578012 -0.230175
C29   C     C_R   0.551372 0.649202 0.378499 -0.192606
C30   C     C_R   0.448152 0.350027 0.620897 -0.201074
C31   C     C_3   0.943012 0.405320 0.036003 -0.301796
C32   C     C_3   0.057008 0.594753 0.963972 -0.302248
C33   C     C_3   0.906565 0.473029 0.959067 0.601152
C34   C     C_R   0.216951 0.969620 0.483017 -0.197796
C35   C     C_3   0.093456 0.527044 0.040909 0.601193
C36   C     C_1   0.999304 0.500453 0.749572 -0.173205
C37   C     C_1   0.000711 0.499579 0.250418 -0.174004
C38   C     C_3   0.038954 0.433445 0.993582 -0.301623
C39   C     C_3   0.961066 0.566628 0.006395 -0.302221
C40   C     C_3   0.000677 0.500623 0.917069 0.053024
C41   C     C_3   0.999344 0.499449 0.082909 0.053150
C42   C     C_1   0.999690 0.500617 0.825186 0.010442
C43   C     C_1   0.000330 0.499438 0.174799 0.010479
C44   C     C_R   0.812685 0.204769 0.526618 -0.050495
C45   C     C_R   0.850490 0.128364 0.547266 -0.195533
C46   C     C_R   0.187328 0.794882 0.484263 -0.051168
C47   C     C_3   0.737147 0.423854 0.964092 -0.320116
C48   C     C_3   0.262874 0.576259 0.035855 -0.319840
C49   C     C_R   0.150007 0.869784 0.477709 -0.195214
C50   C     C_R   0.708322 0.178889 0.517082 -0.251767
C51   C     C_R   0.291743 0.821032 0.494734 -0.246668
C52   C     C_R   0.639966 0.077440 0.528732 0.088893
Cu1   Cu    Cu3+1 0.081740 0.475690 0.522610 0.942185
Cu2   Cu    Cu3+1 0.918260 0.524310 0.477390 0.941922
H1    H     H_    0.280035 0.551264 0.460955 0.125468
H2    H     H_    0.104225 0.671439 0.933564 0.154168
H3    H     H_    0.928385 0.619892 0.012958 0.153611
H4    H     H_    0.071636 0.380181 0.987017 0.153827
H5    H     H_    0.643361 0.840581 0.567232 0.150388
H6    H     H_    0.358575 0.152841 0.498641 0.152664
H7    H     H_    0.317115 0.762516 0.494122 0.146105
H8    H     H_    0.681846 0.239484 0.497949 0.151019
H9    H     H_    0.069399 0.851100 0.469563 0.154856
H10   H     H_    0.931028 0.146761 0.555175 0.153353
H11   H     H_    0.814619 0.968940 0.570748 0.135185
H12   H     H_    0.720128 0.448939 0.539278 0.125692
H13   H     H_    0.186738 0.026698 0.477610 0.135407
H14   H     H_    0.465487 0.792275 0.547283 0.146242
H15   H     H_    0.536637 0.200679 0.520484 0.142319
H16   H     H_    0.553952 0.712993 0.327568 0.144299
H17   H     H_    0.445399 0.285980 0.671585 0.145334
H18   H     H_    0.750552 0.491806 0.992269 0.156868
H19   H     H_    0.735810 0.359309 0.016949 0.156426
H20   H     H_    0.661173 0.401790 0.924226 0.192946
H21   H     H_    0.264218 0.640842 0.983038 0.156386
H22   H     H_    0.249457 0.508340 0.007622 0.157051
H23   H     H_    0.137169 0.320732 0.655307 0.125598
H24   H     H_    0.338849 0.598288 0.075719 0.192874
H25   H     H_    0.862576 0.678910 0.344366 0.126460
H26   H     H_    0.719036 0.731995 0.304070 0.137663
H27   H     H_    0.280407 0.267185 0.695238 0.137477
H28   H     H_    0.409153 0.630691 0.400964 0.136713
H29   H     H_    0.590465 0.368667 0.598521 0.134474
H30   H     H_    0.895791 0.328632 0.066407 0.154195
N1    N     N_R   0.795440 0.560790 0.443380 -0.178319
N2    N     N_R   0.204560 0.439210 0.556620 -0.177871
O1    O     O_R   0.977900 0.338120 0.529810 -0.590204
O2    O     O_3   0.190690 0.555115 0.090540 -0.570555
O3    O     O_R   0.022100 0.661880 0.470190 -0.590305
O4    O     O_R   0.839850 0.379180 0.491620 -0.590947
O5    O     O_R   0.160150 0.620820 0.508380 -0.590339
O6    O     O_R   0.069010 0.479460 0.640020 -0.580524
O7    O     O_R   0.930990 0.520540 0.359980 -0.580378
O8    O     O_R   0.930960 0.520530 0.601820 -0.570630
O9    O     O_R   0.069040 0.479470 0.398180 -0.569960
O10   O     O_3   0.809335 0.444954 0.909426 -0.570552

loop_
_geom_bond_atom_site_label_1
_geom_bond_atom_site_label_2
_ccdc_geom_bond_type
C1    O1    A    
C21   C26   A    
C1    O4    A    
C23   C45   A    
C22   C29   A    
C27   C29   A    
C48   H22   S    
C12   O5    A    
C3    C23   A    
C51   H7    S    
C19   N2    A    
C30   H17   S    
C39   C41   S    
Cu1   Cu2   S    
C25   C28   A    
C46   C49   A    
C26   C27   A    
C33   C39   S    
C49   H9    S    
C19   C21   A    
Cu2   O4    S    
C5    C6    A    
C11   C14   A    
Cu1   O9    S    
C20   C25   A    
C19   H1    S    
C39   H3    S    
C13   H27   S    
C32   C39   S    
C48   H24   S    
Cu2   O7    S    
C7    H14   S    
C38   H4    S    
C36   C42   T    
Cu1   O5    S    
C50   C52   A    
C47   O10   S    
C48   O2    S    
C5    C52   A    
Cu1   N2    S    
C17   O9    A    
C40   C42   S    
C28   H29   S    
C41   C43   S    
C48   H21   S    
C2    C6    A    
C4    C34   A    
C33   C40   S    
C18   N1    A    
C32   C35   S    
C12   O3    A    
C35   C38   S    
C47   H19   S    
Cu2   O3    S    
C12   C46   S    
C2    C51   A    
C25   C26   A    
C46   C51   A    
C31   H30   S    
C13   C24   A    
C9    H5    S    
C37   C43   T    
C2    C4    A    
C3    C9    A    
C5    C8    A    
C35   O2    S    
C1    C44   S    
C47   H20   S    
Cu1   O6    S    
C31   C33   S    
C8    H15   S    
Cu1   O1    S    
C17   C37   S    
C14   H25   S    
C15   N2    A    
C20   C22   A    
C16   O6    A    
C13   C15   A    
C50   H8    S    
C17   O7    A    
C4    C10   A    
C33   O10   S    
C44   C45   A    
C29   H16   S    
C44   C50   A    
C7    C9    A    
C10   H6    S    
C34   C49   A    
C31   C41   S    
C27   H28   S    
C14   N1    A    
C34   H13   S    
Cu2   N1    S    
C3    C52   A    
C6    C7    A    
C18   H12   S    
C45   H10   S    
C16   O8    A    
C31   C38   S    
C23   H11   S    
C28   C30   A    
C16   C36   S    
C38   C40   S    
C15   H23   S    
C18   C20   A    
C32   C40   S    
C35   C41   S    
C24   C30   A    
C47   H18   S    
Cu2   O8    S    
C11   H26   S    
C11   C22   A    
C8    C10   A    
C21   C24   A    
C32   H2    S    
