data_mof_unit_36536.cif
_audit_creation_date              2013-03-05T15:51:39-0500
_audit_creation_method            fapswitch 2.2
_symmetry_space_group_name_H-M    P1
_symmetry_Int_Tables_number       1
_space_group_crystal_system       triclinic
_cell_length_a                    10.689544
_cell_length_b                    10.813074
_cell_length_c                    9.669802
_cell_angle_alpha                 89.44842
_cell_angle_beta                  90.682246
_cell_angle_gamma                 94.230033
_cell_volume                      1114.5351743

loop_
_atom_site_label
_atom_site_type_symbol
_atom_site_description
_atom_site_fract_x
_atom_site_fract_y
_atom_site_fract_z
_atom_type_partial_charge
O1    O     O_R   0.499990 0.319640 0.618810 -0.576840
O2    O     O_R   0.500000 0.319660 0.381240 -0.554518
C1    C     C_R   0.494284 0.262539 0.500500 0.836815
O3    O     O_R   0.316850 0.499960 0.618770 -0.605687
O4    O     O_R   0.316860 0.499980 0.381190 -0.583360
C2    C     C_R   0.259867 0.494810 0.499478 0.797051
Cu1   Cu    Cu3+1 0.499990 0.499990 0.640660 1.025536
Cu2   Cu    Cu3+1 0.500010 0.500010 0.359340 0.998886
O5    O     O_R   0.500000 0.680340 0.618760 -0.586898
O6    O     O_R   0.500010 0.680360 0.381190 -0.611058
O7    O     O_R   0.683140 0.500020 0.618810 -0.506270
O8    O     O_R   0.683150 0.500040 0.381230 -0.589549
C3    C     C_R   0.490718 0.736051 0.499641 0.847063
C4    C     C_R   0.740685 0.502045 0.500309 0.930688
C5    C     C_3   0.030581 0.378350 0.476306 -0.165070
C6    C     C_3   0.953961 0.457918 0.375964 -0.154681
H1    H     H_    0.913863 0.427020 0.274522 0.229237
H2    H     H_    0.055978 0.281893 0.459945 0.189120
C7    C     C_3   0.878092 0.501101 0.499644 -0.189184
C8    C     C_3   0.954466 0.423419 0.597485 0.345061
C9    C     C_3   0.049726 0.534846 0.623645 -0.209642
C10   C     C_3   0.974964 0.610807 0.521287 0.318697
C11   C     C_3   0.050370 0.571053 0.397744 -0.214739
C12   C     C_3   0.123621 0.492450 0.499009 -0.132445
H3    H     H_    0.089193 0.566086 0.725278 0.201427
H4    H     H_    0.091715 0.633513 0.315821 0.188320
C13   C     C_R   0.314053 0.115411 0.673623 -0.245005
H5    H     H_    0.303944 0.213751 0.665979 0.166337
C14   C     C_R   0.235564 0.046194 0.765545 0.379865
C15   C     C_R   0.239793 0.917364 0.770002 -0.123772
H6    H     H_    0.179830 0.861411 0.839367 0.200341
C16   C     C_R   0.317400 0.858226 0.681374 -0.225703
H7    H     H_    0.309107 0.758168 0.683019 0.170782
C17   C     C_R   0.399905 0.927073 0.591430 0.094576
C18   C     C_R   0.400477 0.058054 0.589858 0.014946
C19   C     C_R   0.484465 0.127575 0.500683 -0.181884
C20   C     C_R   0.557558 0.066977 0.406321 0.342084
H8    H     H_    0.609790 0.893748 0.334020 0.185208
C21   C     C_R   0.551865 0.939165 0.405035 -0.200787
C22   C     C_R   0.478993 0.869089 0.499361 -0.123806
H9    H     H_    0.386222 0.333821 0.128031 0.152626
C23   C     C_R   0.643177 0.687384 0.144100 -0.237366
H10   H     H_    0.676061 0.676388 0.247949 0.225042
C24   C     C_R   0.684031 0.796974 0.076082 0.092539
C25   C     C_R   0.648312 0.813088 0.939298 0.080583
C26   C     C_R   0.623661 0.705220 0.862187 0.255854
C27   C     C_R   0.561934 0.598584 0.926745 0.063436
C28   C     C_R   0.565633 0.595104 0.075480 0.154684
N1    N     N_R   0.501210 0.501210 0.147910 -0.191561
C29   C     C_R   0.437747 0.408800 0.073650 0.034937
H11   H     H_    0.389643 0.332092 0.872206 0.157174
C30   C     C_R   0.439300 0.407929 0.926370 0.022751
N2    N     N_R   0.501250 0.501290 0.852040 -0.201779
I1    I     I_    0.828706 0.917785 0.163663 -0.023810
I2    I     I_    0.680448 0.988861 0.838399 0.004099
N3    N     N_R   0.718601 0.688804 0.764168 0.164980
O9    O     O_R   0.815564 0.631332 0.804834 -0.327573
O10   O     O_R   0.730280 0.764013 0.658874 -0.310735
N4    N     N_R   0.899250 0.342061 0.704755 0.176315
O11   O     O_R   0.921722 0.366092 0.834565 -0.252859
O12   O     O_R   0.822764 0.247898 0.670901 -0.284116
N5    N     N_R   0.952057 0.739864 0.541706 0.179819
O13   O     O_R   0.997878 0.798717 0.649644 -0.300458
O14   O     O_R   0.894911 0.799882 0.446140 -0.322511
N6    N     N_R   0.640681 0.134501 0.312770 0.146769
O15   O     O_R   0.618021 0.130463 0.180367 -0.331009
O16   O     O_R   0.736547 0.203221 0.359818 -0.318141
N7    N     N_R   0.150202 0.106451 0.852134 0.141119
O17   O     O_R   0.149854 0.226753 0.852946 -0.352033
O18   O     O_R   0.072275 0.041569 0.931497 -0.279922

loop_
_geom_bond_atom_site_label_1
_geom_bond_atom_site_label_2
_geom_bond_distance
_ccdc_geom_bond_type
C5    H2    1.110198 S    
C29   C30   1.424595 A    
C11   C12   1.535667 S    
C14   C15   1.397342 A    
C10   N5    1.450262 S    
C14   N7    1.440358 S    
Cu1   Cu2   2.720309 S    
N5    O14   1.296841 A    
C18   C19   1.421654 A    
N6    O16   1.300913 A    
C27   N2    1.397227 A    
C15   H6    1.082600 S    
Cu2   O8    1.966562 S    
C2    C12   1.454704 S    
C16   H7    1.079005 S    
C7    C8    1.527961 S    
O2    C1    1.302897 A    
O8    C4    1.298553 A    
N4    O11   1.300287 A    
C20   C21   1.379055 A    
C23   C28   1.414458 A    
C25   C26   1.397357 A    
N3    O9    1.302213 A    
C8    N4    1.455564 S    
Cu1   O7    1.971632 S    
C19   C20   1.405861 A    
N5    O13   1.299581 A    
C23   C24   1.393932 A    
C1    C19   1.455382 S    
O1    Cu1   1.963571 S    
C6    C7    1.547834 S    
C17   C22   1.416792 A    
C4    C7    1.469703 S    
O3    C2    1.297791 A    
C5    C12   1.542249 S    
N3    O10   1.298352 A    
N6    O15   1.300725 A    
C6    C11   1.554614 S    
Cu1   O5    1.959566 S    
O3    Cu1   1.966563 S    
O4    C2    1.301134 A    
C17   C18   1.415804 A    
O7    C4    1.306228 A    
N4    O12   1.299830 A    
O4    Cu2   1.971634 S    
C13   C14   1.402324 A    
C23   H10   1.068442 S    
Cu1   N2    2.044065 S    
H11   C30   1.079795 S    
C15   C16   1.391881 A    
C27   C28   1.438515 A    
C24   I1    2.123089 S    
H9    C29   1.081669 S    
C21   C22   1.389049 A    
C7    C10   1.530261 S    
H8    C21   1.075927 S    
C8    C9    1.539917 S    
C25   I2    2.135029 S    
Cu2   O6    1.963571 S    
N1    C29   1.369867 A    
N7    O17   1.301214 A    
C9    C12   1.540568 S    
C26   N3    1.418648 S    
C13   H5    1.078485 S    
C11   H4    1.110413 S    
N7    O18   1.301412 A    
O5    C3    1.300867 A    
C26   C27   1.427703 A    
C28   N1    1.374856 A    
C3    C22   1.453151 S    
C9    H3    1.110597 S    
C13   C18   1.416414 A    
C16   C17   1.413304 A    
C9    C10   1.534719 S    
Cu2   N1    2.044589 S    
C5    C8    1.537781 S    
C10   C11   1.531530 S    
O2    Cu2   1.959568 S    
C24   C25   1.385268 A    
C5    C6    1.556112 S    
C30   N2    1.368581 A    
C6    H1    1.110277 S    
O1    C1    1.303900 A    
O6    C3    1.307384 A    
C20   N6    1.432365 S    
