data_mof_unit_9942.cif
_audit_creation_date              2012-12-10T17:29:16-0500
_audit_creation_method            fapswitch 2.2
_symmetry_space_group_name_H-M    P1
_symmetry_Int_Tables_number       1
_space_group_crystal_system       triclinic
_cell_length_a                    12.037523
_cell_length_b                    12.887216
_cell_length_c                    13.119663
_cell_angle_alpha                 87.126776
_cell_angle_beta                  113.523094
_cell_angle_gamma                 93.039963
_cell_volume                      1862.56582156

loop_
_atom_site_label
_atom_site_type_symbol
_atom_type_description
_atom_site_fract_x
_atom_site_fract_y
_atom_site_fract_z
_atom_type_partial_charge
C1    C     C_R   0.477633 0.299609 0.498177 0.878602
C2    C     C_R   0.555588 0.473948 0.989003 0.113540
C3    C     C_R   0.529928 0.446734 0.879344 0.097493
C4    C     C_R   0.461159 0.462570 0.027687 0.039585
C5    C     C_R   0.350053 0.408934 0.964675 0.134055
C6    C     C_R   0.336430 0.367109 0.863511 -0.235284
C7    C     C_R   0.424840 0.385773 0.821662 -0.218657
C8    C     C_R   0.473879 0.506719 0.126076 -0.311795
C9    C     C_R   0.278236 0.434388 0.111445 0.085870
C10   C     C_R   0.609628 0.482292 0.829521 -0.121953
C11   C     C_R   0.535430 0.811636 0.502321 -0.054504
C12   C     C_R   0.566286 0.491266 0.708652 0.862972
C13   C     C_R   0.464772 0.188402 0.498228 -0.051959
C14   C     C_R   0.360395 0.030076 0.519928 -0.220110
C15   C     C_R   0.367132 0.137576 0.514492 -0.207754
C16   C     C_R   0.554419 0.132618 0.485490 -0.287131
C17   C     C_R   0.549019 0.025833 0.491714 0.189499
C18   C     C_R   0.451331 0.974215 0.509181 0.186615
C19   C     C_R   0.445725 0.867400 0.515015 -0.280948
C20   C     C_R   0.633332 0.862511 0.486545 -0.206233
C21   C     C_R   0.640077 0.970006 0.481168 -0.220561
C22   C     C_R   0.006394 0.598828 0.393940 -0.327381
C23   C     C_R   0.522411 0.700401 0.501957 0.888171
C24   C     C_R   0.127442 0.589759 0.405760 0.022453
C25   C     C_R   0.158513 0.456656 0.543813 -0.024671
C26   C     C_R   0.038100 0.463948 0.535377 0.054756
C27   C     C_R   0.960449 0.535624 0.459740 0.088949
C28   C     C_R   0.839540 0.541844 0.452568 -0.100702
C29   C     C_R   0.876116 0.411235 0.595669 0.349533
C30   C     C_R   0.994775 0.401509 0.602029 -0.329058
C31   C     C_R   0.432860 0.502252 0.291199 0.906644
C32   C     C_R   0.256082 0.397860 0.004750 0.178757
C33   C     C_R   0.389628 0.485962 0.172236 -0.112686
C34   C     C_R   0.725716 0.522096 0.895200 -0.202653
C35   C     C_R   0.759194 0.533163 0.008468 -0.150044
C36   C     C_R   0.674456 0.511976 0.055029 -0.187825
H1    H     H_    0.703053 0.819467 0.476560 0.159728
H2    H     H_    0.285123 0.990824 0.533157 0.139361
H3    H     H_    0.715434 0.009282 0.468102 0.140244
H4    H     H_    0.297552 0.180664 0.524675 0.156663
H5    H     H_    0.629255 0.172062 0.471519 0.161156
H6    H     H_    0.778942 0.596470 0.393907 0.128435
H7    H     H_    0.949620 0.654947 0.334145 0.139650
H8    H     H_    0.054366 0.346037 0.660471 0.139368
H9    H     H_    0.161820 0.638819 0.354727 0.128795
H10   H     H_    0.256889 0.321199 0.814414 0.151330
H11   H     H_    0.217666 0.400517 0.601105 0.114539
H12   H     H_    0.552155 0.555522 0.171477 0.159435
H13   H     H_    0.789138 0.547483 0.858463 0.155607
H14   H     H_    0.705301 0.523490 0.143124 0.132257
H15   H     H_    0.849392 0.562594 0.059508 0.140381
H16   H     H_    0.410733 0.351089 0.743825 0.153375
H17   H     H_    0.370615 0.827906 0.528496 0.162855
N1    N     N_R   0.798200 0.480260 0.519790 -0.093690
N2    N     N_R   0.201820 0.519740 0.480210 -0.095979
O1    O     O_R   0.579910 0.341070 0.505280 -0.625467
O2    O     O_R   0.388440 0.353740 0.492580 -0.628899
O3    O     O_R   0.643280 0.490550 0.663120 -0.617245
O4    O     O_R   0.451810 0.503220 0.650420 -0.608760
O5    O     O_R   0.611560 0.646260 0.507420 -0.623639
O6    O     O_R   0.420090 0.658930 0.494720 -0.624752
O7    O     O_R   0.548190 0.496780 0.349580 -0.620664
O8    O     O_R   0.356720 0.509450 0.336880 -0.592132
Zn1   Zn    Zn3+2 0.627850 0.491540 0.508480 0.936800
Zn2   Zn    Zn3+2 0.372150 0.508460 0.491520 0.948544
N3    N     N_3   0.191488 0.416356 0.160730 -0.435497
H18   H     H_    0.112366 0.454909 0.112399 0.184371
H19   H     H_    0.172220 0.336481 0.163814 0.193484
C37   C     C_3   0.840935 0.345938 0.677289 -0.849207
H20   H     H_    0.915508 0.295789 0.731106 0.201428
H21   H     H_    0.822220 0.395836 0.734179 0.250428
H22   H     H_    0.764664 0.291384 0.634963 0.255320
C38   C     C_3   0.134897 0.346815 0.934555 -0.985837
H23   H     H_    0.095210 0.390761 0.854112 0.252766
H24   H     H_    0.147389 0.265035 0.919679 0.243888
H25   H     H_    0.067279 0.345316 0.972104 0.245975

loop_
_geom_bond_atom_site_label_1
_geom_bond_atom_site_label_2
_ccdc_geom_bond_type
N3    H19   S    
O8    Zn2   S    
C38   H23   S    
C14   C18   A    
C35   C36   A    
C4    C8    A    
C24   N2    A    
C11   C19   A    
C26   C27   A    
C24   H9    S    
C1    O1    A    
C7    H16   S    
C18   C19   A    
C3    C7    A    
C5    C6    A    
C29   N1    A    
C34   C35   A    
C11   C23   S    
C37   H21   S    
C9    N3    S    
O7    Zn1   S    
C9    C32   A    
C12   O4    A    
C16   C17   A    
O1    Zn1   S    
C25   H11   S    
C5    C32   A    
C12   O3    A    
C19   H17   S    
N3    H18   S    
C9    C33   A    
C38   H24   S    
C31   O7    A    
C30   H8    S    
N2    Zn2   S    
C29   C37   S    
O3    Zn1   S    
C23   O5    A    
C11   C20   A    
C31   O8    A    
C32   C38   S    
C28   N1    A    
C25   C26   A    
C17   C21   A    
C37   H22   S    
C2    C4    A    
C8    H12   S    
C29   C30   A    
C1    O2    A    
C14   H2    S    
C22   H7    S    
C21   H3    S    
C31   C33   S    
C17   C18   A    
C10   C34   A    
C10   C12   S    
C26   C30   A    
C22   C27   A    
C13   C15   A    
C35   H15   S    
C38   H25   S    
C22   C24   A    
C1    C13   S    
C36   H14   S    
C2    C36   A    
C34   H13   S    
C6    H10   S    
C25   N2    A    
O2    Zn2   S    
C4    C5    A    
C6    C7    A    
O5    Zn1   S    
C2    C3    A    
C3    C10   A    
O4    Zn2   S    
C20   H1    S    
N1    Zn1   S    
C28   H6    S    
C8    C33   A    
C37   H20   S    
C15   H4    S    
O6    Zn2   S    
C23   O6    A    
C20   C21   A    
C13   C16   A    
C27   C28   A    
C14   C15   A    
C16   H5    S    
