data_mof_unit_48701.cif
_audit_creation_date              2012-12-11T18:40:05-0500
_audit_creation_method            fapswitch 2.2
_symmetry_space_group_name_H-M    P1
_symmetry_Int_Tables_number       1
_space_group_crystal_system       triclinic
_cell_length_a                    8.295968
_cell_length_b                    14.223757
_cell_length_c                    18.881321
_cell_angle_alpha                 96.986866
_cell_angle_beta                  91.232353
_cell_angle_gamma                 90.983916
_cell_volume                      2210.49667086

loop_
_atom_site_label
_atom_site_type_symbol
_atom_type_description
_atom_site_fract_x
_atom_site_fract_y
_atom_site_fract_z
_atom_type_partial_charge
Ba1   Ba    Ba6+2 0.843770 0.541130 0.463760 1.699902
Ba2   Ba    Ba6+2 0.346040 0.458940 0.536250 1.750724
C1    C     C_3   0.525901 0.859958 0.255603 -0.371845
C2    C     C_R   0.017804 0.533540 0.727485 -0.033874
C3    C     C_R   0.816006 0.471617 0.830723 -0.239446
C4    C     C_3   0.030288 0.739141 0.262933 0.332993
C5    C     C_R   0.768468 0.460557 0.758458 0.020243
C6    C     C_R   0.375693 0.530864 0.170526 -0.137322
C7    C     C_R   0.426152 0.537379 0.242169 0.022391
C8    C     C_R   0.118014 0.466103 0.202028 -0.137633
C9    C     C_R   0.174959 0.466134 0.273237 0.064949
C10   C     C_R   0.973716 0.503593 0.851864 -0.019668
C11   C     C_R   0.872153 0.487441 0.707243 0.375543
C12   C     C_3   0.549072 0.769567 0.289842 0.339288
C13   C     C_R   0.217232 0.500611 0.149807 -0.019014
C14   C     C_R   0.325243 0.506798 0.293024 -0.283789
C15   C     C_R   0.970145 0.331297 0.925835 -0.068534
C16   C     C_3   0.975525 0.769151 0.191861 -0.326590
C17   C     C_R   0.974147 0.247513 0.957085 -0.032488
C18   C     C_R   0.046484 0.246094 0.023597 -0.061035
C19   C     C_R   0.110945 0.329049 0.060461 -0.078076
C20   C     C_R   0.099347 0.416901 0.032565 0.032655
C21   C     C_R   0.032496 0.417823 0.962002 0.027361
C22   C     C_R   0.158590 0.501650 0.073047 0.016213
C23   C     C_3   0.500727 0.307894 0.321275 0.299266
C24   C     C_R   0.159594 0.586909 0.039946 0.034148
C25   C     C_R   0.092995 0.587930 0.969299 -0.041875
C26   C     C_R   0.032523 0.503185 0.928858 0.038521
C27   C     C_R   0.223533 0.673050 0.076188 -0.189154
C28   C     C_3   0.181994 0.752552 0.611588 0.279561
C29   C     C_R   0.221838 0.756746 0.044908 -0.114009
C30   C     C_R   0.149786 0.758483 0.978237 0.630968
C31   C     C_R   0.083549 0.675792 0.941338 -0.129050
C32   C     C_R   0.699655 0.937164 0.533359 -0.021778
C33   C     C_R   0.512248 0.800601 0.496526 0.026189
C34   C     C_3   0.479303 0.275235 0.241799 -0.379083
C35   C     C_R   0.370601 0.765730 0.460733 -0.295770
C36   C     C_R   0.267518 0.826154 0.430107 0.017378
C37   C     C_R   0.312154 0.920805 0.428818 -0.145699
C38   C     C_R   0.458966 0.956249 0.460710 -0.004625
C39   C     C_R   0.558512 0.897299 0.497348 -0.028691
C40   C     C_3   0.191112 0.860120 0.626139 -0.361284
C41   C     C_R   0.645279 0.089957 0.493453 -0.027727
C42   C     C_R   0.746425 0.031589 0.529594 -0.006541
C43   C     C_R   0.687217 0.186640 0.495296 0.011547
C44   C     C_R   0.825341 0.224161 0.532315 -0.289181
C45   C     C_3   0.157177 0.264361 0.735961 0.349657
C46   C     C_R   0.931261 0.165770 0.562939 0.029353
C47   C     C_R   0.891881 0.069396 0.562577 -0.109129
C48   C     C_R   0.503564 0.050923 0.458424 -0.037282
C49   C     C_3   0.013239 0.245225 0.386036 0.303911
C50   C     C_3   0.016064 0.137709 0.370665 -0.374617
C51   C     C_3   0.708422 0.689980 0.675603 0.890846
C52   C     C_3   0.758204 0.736643 0.749869 -0.320184
C53   C     C_2   0.710654 0.177100 0.789238 0.815897
C54   C     C_3   0.209529 0.235369 0.807689 -0.294422
C55   C     C_3   0.648387 0.231233 0.731010 0.334100
C56   C     C_3   0.562079 0.162144 0.674102 -0.333693
C57   C     C_R   0.072729 0.537679 0.799357 -0.221135
F1    F     F_    0.604991 0.614917 0.681990 -0.679862
F2    F     F_    0.826763 0.473245 0.637320 -0.687384
F3    F     F_    0.141745 0.841166 0.949469 -0.695913
H1    H     H_    0.614456 0.787753 0.341864 0.064027
H2    H     H_    0.817679 0.664342 0.647561 -0.026622
H3    H     H_    0.643860 0.896270 0.250681 0.124945
H4    H     H_    0.845040 0.795942 0.745766 0.088517
H5    H     H_    0.816145 0.684470 0.780827 0.040400
H6    H     H_    0.650663 0.764650 0.778828 0.133884
H7    H     H_    0.427333 0.740098 0.299066 -0.060508
H8    H     H_    0.447343 0.908681 0.289088 0.077805
H9    H     H_    0.381995 0.329270 0.342878 0.016634
H10   H     H_    0.586609 0.369308 0.328597 0.051668
H11   H     H_    0.392113 0.214564 0.233127 0.129772
H12   H     H_    0.284684 0.882458 0.668045 0.142578
H13   H     H_    0.432825 0.333538 0.213660 0.057175
H14   H     H_    0.596889 0.252992 0.218925 0.128739
H15   H     H_    0.467954 0.843016 0.201872 0.118245
H16   H     H_    0.957994 0.705889 0.151745 0.092262
H17   H     H_    0.241452 0.320631 0.722861 0.089320
H18   H     H_    0.033199 0.292571 0.739803 -0.055594
H19   H     H_    0.233064 0.299321 0.846594 0.086596
H20   H     H_    0.114764 0.189801 0.827136 0.118781
H21   H     H_    0.321343 0.193839 0.802897 0.171063
H22   H     H_    0.755017 0.262488 0.706900 -0.114524
H23   H     H_    0.222279 0.891044 0.576981 0.061263
H24   H     H_    0.642619 0.103788 0.655188 0.086605
H25   H     H_    0.525449 0.199743 0.628515 0.138133
H26   H     H_    0.955084 0.677553 0.273517 0.111385
H27   H     H_    0.453994 0.130188 0.695934 0.135724
H28   H     H_    0.190153 0.568817 0.814615 0.136943
H29   H     H_    0.733468 0.450443 0.869827 0.111631
H30   H     H_    0.457152 0.553703 0.131625 0.087417
H31   H     H_    0.999342 0.436890 0.186735 0.109404
H32   H     H_    0.367111 0.510996 0.348013 0.062626
H33   H     H_    0.922511 0.325308 0.872006 0.071170
H34   H     H_    0.072658 0.887585 0.644495 0.122413
H35   H     H_    0.926267 0.182266 0.928399 0.113027
H36   H     H_    0.054727 0.180042 0.046405 0.091178
H37   H     H_    0.158541 0.718184 0.259571 -0.055409
H38   H     H_    0.172231 0.322466 0.110599 0.070348
H39   H     H_    0.271232 0.678835 0.130060 0.095671
H40   H     H_    0.271932 0.821434 0.073834 0.098957
H41   H     H_    0.022934 0.682404 0.891064 0.104338
H42   H     H_    0.334259 0.692360 0.461154 0.059807
H43   H     H_    0.231295 0.966818 0.404041 0.077826
H44   H     H_    0.973454 0.024650 0.588132 0.087267
H45   H     H_    0.889355 0.267366 0.398934 -0.001011
H46   H     H_    0.856160 0.298606 0.533510 0.108776
H47   H     H_    0.774727 0.896377 0.565041 0.095313
H48   H     H_    0.859504 0.806388 0.197061 0.159511
H49   H     H_    0.424776 0.093593 0.429728 0.093598
H50   H     H_    0.066391 0.818529 0.173710 0.096887
H51   H     H_    0.302673 0.725886 0.597090 0.023714
H52   H     H_    0.094636 0.732312 0.566745 0.054539
H53   H     H_    0.858824 0.075512 0.816262 0.316295
H54   H     H_    0.096579 0.268004 0.431937 0.062750
H55   H     H_    0.927526 0.112626 0.327219 0.131904
H56   H     H_    0.985053 0.104667 0.418874 0.064978
H57   H     H_    0.138465 0.114993 0.354100 0.115464
O1    O     O_2   0.890230 0.433890 0.328780 -0.464625
O2    O     O_2   0.261359 0.170026 0.555872 -0.496534
O3    O     O_3   0.161787 0.184379 0.684928 -0.594305
O4    O     O_3   0.136580 0.442380 0.417110 -0.494321
O5    O     O_3   0.551510 0.615640 0.531790 -0.424964
O6    O     O_2   0.394780 0.268760 0.474430 -0.470427
O7    O     O_3   0.560467 0.232746 0.354794 -0.649476
O8    O     O_2   0.433808 0.470498 0.758228 -0.467244
O9    O     O_3   0.537353 0.299038 0.759527 -0.639103
O10   O     O_3   0.636390 0.607640 0.365630 -0.488152
O11   O     O_2   0.763835 0.536789 0.241700 -0.502410
O12   O     O_3   0.628967 0.756407 0.639503 -0.674739
O13   O     O_3   0.060919 0.283424 0.324912 -0.638291
O14   O     O_3   0.639706 0.705636 0.244739 -0.609534
O15   O     O_2   0.794910 0.731270 0.525620 -0.490872
O16   O     O_3   0.045950 0.658760 0.399470 -0.497531
O17   O     O_2   0.942339 0.830040 0.449346 -0.483153
O18   O     O_2   0.657133 0.191286 0.849378 -0.603424
O19   O     O_R   0.828718 0.109178 0.773684 -0.777571
O20   O     O_3   0.010644 0.815492 0.316072 -0.600966
O21   O     O_2   0.299470 0.566150 0.671260 -0.384458
O22   O     O_3   0.053110 0.557700 0.582890 -0.435077
O23   O     O_3   0.553300 0.392440 0.634370 -0.374136
O24   O     O_3   0.132426 0.716771 0.673553 -0.641547
O25   O     O_3   0.638180 0.384440 0.468210 -0.447421
O26   O     O_3   0.143740 0.341320 0.600540 -0.484722
P1    P     P_3+3 0.064140 0.407250 0.340900 0.979169
P2    P     P_3+3 0.622060 0.719380 0.547490 1.020598
P3    P     P_3+3 0.067451 0.781533 0.398738 0.937998
P4    P     P_3+3 0.125560 0.592830 0.659110 1.062941
P5    P     P_3+3 0.123801 0.217340 0.600076 0.949381
P6    P     P_3+3 0.618834 0.593464 0.272735 0.938814
P7    P     P_3+3 0.572065 0.266875 0.446964 0.941432
P8    P     P_3+3 0.572538 0.407828 0.727847 1.082865

loop_
_geom_bond_atom_site_label_1
_geom_bond_atom_site_label_2
_ccdc_geom_bond_type
C42   C47   A    
O1    P1    D    
C46   P5    S    
Ba2   O25   S    
C17   C18   A    
O14   P6    S    
C45   H17   S    
C41   C42   A    
C56   H25   S    
O8    P8    D    
C55   O9    S    
C17   H35   S    
O22   P4    S    
C54   H19   S    
C43   C44   A    
C25   C31   A    
Ba2   O26   S    
O15   P2    D    
C24   C25   A    
C15   C21   A    
C53   O19   S    
C10   C26   S    
C40   H34   S    
O3    P5    S    
O6    P7    D    
C7    C14   A    
C16   H50   S    
O10   P6    S    
Ba1   O10   S    
C8    C13   A    
C36   C37   A    
C51   H2    S    
C38   C48   A    
C52   H6    S    
C2    C11   A    
C4    H26   S    
O2    P5    D    
Ba1   Ba2   S    
C4    O20   S    
C34   H14   S    
C10   C57   A    
O7    P7    S    
C7    P6    S    
C6    C7    A    
C44   H46   S    
O4    P1    S    
O12   P2    S    
C51   O12   S    
O26   P5    S    
C50   H55   S    
Ba2   P4    S    
C19   C20   A    
C11   F2    S    
Ba1   P1    S    
C1    H3    S    
C32   C39   A    
C45   H18   S    
C56   H24   S    
C51   F1    S    
C4    C16   S    
O5    P2    S    
C44   C46   A    
O20   P3    S    
C40   H12   S    
C49   C50   S    
C29   H40   S    
C1    H8    S    
C32   C42   A    
C3    C10   A    
C8    C9    A    
C37   C38   A    
C3    C5    A    
C19   H38   S    
C45   O3    S    
C52   H5    S    
C8    H31   S    
C51   C52   S    
C28   O24   S    
C57   H28   S    
C23   O7    S    
Ba1   O4    S    
C35   C36   A    
C2    P4    S    
C34   H13   S    
C9    C14   A    
C23   H9    S    
C29   C30   A    
C5    P8    S    
H53   O19   S    
O24   P4    S    
C16   H16   S    
C55   H22   S    
C27   H39   S    
C9    P1    S    
C40   H23   S    
C33   P2    S    
C21   C26   A    
C41   C43   A    
C36   P3    S    
C3    H29   S    
C1    C12   S    
O9    P8    S    
C6    H30   S    
Ba2   O6    S    
C49   H45   S    
C38   C39   A    
C6    C13   A    
C53   C55   S    
Ba2   O23   S    
C12   H7    S    
C20   C22   A    
Ba1   P2    S    
Ba1   O15   S    
C1    H15   S    
C25   C26   A    
C54   H21   S    
C28   H52   S    
C37   H43   S    
C13   C22   S    
C33   C35   A    
C31   H41   S    
C15   H33   S    
C16   H48   S    
C22   C24   A    
C35   H42   S    
C49   O13   S    
C41   C48   A    
C54   H20   S    
C47   H44   S    
C52   H4    S    
C12   O14   S    
Ba2   O5    S    
C14   H32   S    
C49   H54   S    
C53   O18   D    
C43   P7    S    
O13   P1    S    
C4    H37   S    
Ba1   O5    S    
Ba2   O21   S    
C27   C29   A    
Ba1   O25   S    
C30   C31   A    
C55   C56   S    
C23   H10   S    
C46   C47   A    
C12   H1    S    
Ba2   O22   S    
C2    C57   A    
C48   H49   S    
C15   C17   A    
O23   P8    S    
C33   C39   A    
C56   H27   S    
Ba1   O22   S    
C34   H11   S    
C23   C34   S    
C30   F3    S    
C50   H57   S    
C5    C11   A    
C18   H36   S    
C18   C19   A    
C24   C27   A    
O25   P7    S    
O16   P3    S    
O17   P3    D    
O11   P6    D    
C32   H47   S    
C20   C21   A    
C28   C40   S    
Ba1   O16   S    
O21   P4    D    
Ba1   O1    S    
Ba2   O4    S    
C45   C54   S    
C28   H51   S    
C50   H56   S    
