data_mof_unit_36939.cif
_audit_creation_date              2012-10-26T19:02:38-0400
_audit_creation_method            fapswitch 2.2
_symmetry_space_group_name_H-M    P1
_symmetry_Int_Tables_number       1
_space_group_crystal_system       triclinic
_cell_length_a                    17.262188
_cell_length_b                    8.689189
_cell_length_c                    7.437828
_cell_angle_alpha                 102.958787
_cell_angle_beta                  90.024408
_cell_angle_gamma                 92.986121
_cell_volume                      1085.65901859

loop_
_atom_site_label
_atom_site_type_symbol
_atom_type_description
_atom_site_fract_x
_atom_site_fract_y
_atom_site_fract_z
_atom_type_partial_charge
C1    C     C_R   0.497622 0.199730 0.453632 0.548544
C2    C     C_R   0.774768 0.413438 0.577947 0.087880
C3    C     C_R   0.144871 0.588959 0.436099 -0.102017
C4    C     C_R   0.855129 0.411041 0.563901 -0.102017
C5    C     C_R   0.106458 0.527492 0.572641 0.023065
C6    C     C_R   0.893542 0.472508 0.427359 0.023065
C7    C     C_R   0.149228 0.474434 0.704473 -0.130508
C8    C     C_R   0.850772 0.525566 0.295527 -0.130508
C9    C     C_R   0.229590 0.471793 0.691893 -0.162422
C10   C     C_R   0.770410 0.528207 0.308107 -0.162422
C11   C     C_2   0.021635 0.514933 0.577601 -0.133783
C12   C     C_R   0.502378 0.800269 0.546368 0.548544
C13   C     C_2   0.978365 0.485067 0.422399 -0.133783
C14   C     C_2   0.496459 0.031873 0.427489 -0.150647
C15   C     C_2   0.503541 0.968127 0.572511 -0.150647
C16   C     C_R   0.351375 0.507768 0.527222 0.567371
C17   C     C_R   0.648625 0.492232 0.472778 0.567371
C18   C     C_R   0.267784 0.522833 0.547562 0.056150
C19   C     C_R   0.732216 0.477167 0.452438 0.056150
C20   C     C_R   0.225232 0.586562 0.422053 0.087880
Cu1   Cu    Cu3+1 0.508700 0.517250 0.683000 0.976497
Cu2   Cu    Cu3+1 0.491300 0.482750 0.317000 0.976497
H1    H     H_    0.738397 0.575063 0.208863 0.121234
H2    H     H_    0.510238 0.039616 0.712316 0.136694
H3    H     H_    0.439073 0.379452 0.958299 0.237266
H4    H     H_    0.560927 0.620548 0.041701 0.237266
H5    H     H_    0.249667 0.769184 0.300574 0.223670
H6    H     H_    0.240829 0.589808 0.153596 0.224411
H7    H     H_    0.750333 0.230816 0.699426 0.223670
H8    H     H_    0.759171 0.410192 0.846404 0.224411
H9    H     H_    0.261603 0.424937 0.791136 0.121234
H10   H     H_    0.005303 0.474763 0.288602 0.113438
H11   H     H_    0.994696 0.525237 0.711398 0.113438
H12   H     H_    0.120206 0.429641 0.812945 0.105187
H13   H     H_    0.879794 0.570359 0.187055 0.105187
H14   H     H_    0.887153 0.361136 0.660385 0.100416
H15   H     H_    0.112847 0.638865 0.339615 0.100416
H16   H     H_    0.489762 0.960384 0.287684 0.136694
N1    N     N_2   0.478180 0.456750 0.041980 -0.251926
N2    N     N_2   0.521820 0.543250 0.958020 -0.251926
N3    N     N_3   0.263344 0.650857 0.281850 -0.599252
N4    N     N_3   0.736656 0.349143 0.718150 -0.599252
O1    O     O_R   0.505650 0.286040 0.618880 -0.502643
O2    O     O_R   0.494350 0.713960 0.381120 -0.502643
O3    O     O_R   0.490960 0.256910 0.309800 -0.502070
O4    O     O_R   0.509040 0.743090 0.690200 -0.502070
O5    O     O_R   0.394600 0.516230 0.672450 -0.520907
O6    O     O_R   0.605400 0.483770 0.327550 -0.520907
O7    O     O_R   0.379910 0.487100 0.363380 -0.465648
O8    O     O_R   0.620090 0.512900 0.636620 -0.465647

loop_
_geom_bond_atom_site_label_1
_geom_bond_atom_site_label_2
_ccdc_geom_bond_type
C17   O8    A    
Cu2   O6    S    
C17   O6    A    
H7    N4    S    
C14   H16   S    
H5    N3    S    
C13   H10   S    
C2    C4    A    
C12   C15   S    
C10   C19   A    
C1    O3    A    
C4    H14   S    
C20   N3    S    
C3    C20   A    
C12   O2    A    
Cu1   Cu2   S    
H3    N1    S    
C6    C13   S    
C11   C13   D    
H4    N2    S    
Cu1   N2    S    
C2    N4    S    
Cu2   O7    S    
Cu2   N1    S    
C16   O5    A    
C8    C10   A    
C15   H2    S    
C17   C19   S    
C5    C11   S    
C18   C20   A    
C10   H1    S    
C7    H12   S    
Cu2   O2    S    
C4    C6    A    
C9    H9    S    
C7    C9    A    
C9    C18   A    
C11   H11   S    
Cu2   O3    S    
C16   O7    A    
C3    H15   S    
C16   C18   S    
Cu1   O4    S    
N1    N2    D    
C5    C7    A    
C14   C15   D    
Cu1   O8    S    
C12   O4    A    
C6    C8    A    
C1    C14   S    
C3    C5    A    
C2    C19   A    
Cu1   O1    S    
C1    O1    A    
H8    N4    S    
H6    N3    S    
Cu1   O5    S    
C8    H13   S    
