data_mof_unit_42097.cif
_audit_creation_date              2012-12-11T14:14:51-0500
_audit_creation_method            fapswitch 2.2
_symmetry_space_group_name_H-M    P1
_symmetry_Int_Tables_number       1
_space_group_crystal_system       triclinic
_cell_length_a                    24.399938
_cell_length_b                    17.267947
_cell_length_c                    15.566714
_cell_angle_alpha                 89.823114
_cell_angle_beta                  128.925538
_cell_angle_gamma                 90.116889
_cell_volume                      5102.50386758

loop_
_atom_site_label
_atom_site_type_symbol
_atom_type_description
_atom_site_fract_x
_atom_site_fract_y
_atom_site_fract_z
_atom_type_partial_charge
C1    C     C_R   0.332996 0.394844 0.199120 -0.132088
C2    C     C_R   0.636413 0.687224 0.497516 0.146397
C3    C     C_R   0.816009 0.110920 0.500392 0.155982
C4    C     C_R   0.177613 0.130357 0.497992 0.182918
C5    C     C_R   0.353073 0.627664 0.137991 0.137888
C6    C     C_R   0.625735 0.670174 0.813326 0.150994
C7    C     C_R   0.882017 0.182296 0.209990 0.147187
C8    C     C_R   0.117963 0.181995 0.790232 0.147482
C9    C     C_2   0.646054 0.804310 0.414895 -0.039361
C10   C     C_2   0.259703 0.646572 0.581441 -0.022543
C11   C     C_2   0.244812 0.145170 0.427844 -0.034181
C12   C     C_R   0.666927 0.393811 0.800107 -0.121276
C13   C     C_2   0.757860 0.140171 0.582122 -0.028978
C14   C     C_2   0.663327 0.764300 0.503176 -0.247981
C15   C     C_2   0.255238 0.629421 0.493124 -0.247577
C16   C     C_2   0.232286 0.164030 0.498464 -0.302564
C17   C     C_2   0.754478 0.125559 0.494001 -0.249570
C18   C     C_2   0.287187 0.199692 0.418157 -0.148025
C19   C     C_2   0.713496 0.202481 0.574731 -0.157488
C20   C     C_2   0.701974 0.846920 0.423969 -0.127498
C21   C     C_2   0.217989 0.711963 0.573386 -0.170405
C22   C     C_2   0.341960 0.236109 0.507922 -0.206821
C23   C     C_R   0.834089 0.890506 0.202933 -0.116445
C24   C     C_2   0.686118 0.258659 0.497985 -0.211407
C25   C     C_2   0.770251 0.827332 0.499509 -0.182946
C26   C     C_2   0.195706 0.769398 0.499554 -0.206298
C27   C     C_2   0.692459 0.346097 0.976974 -0.217750
C28   C     C_2   0.307903 0.346346 0.023209 -0.209459
C29   C     C_2   0.146562 0.750947 0.863488 -0.220329
C30   C     C_2   0.809717 0.838873 0.029438 -0.212247
C31   C     C_2   0.762418 0.345610 0.036974 -0.101831
C32   C     C_2   0.237919 0.345191 0.963293 -0.099801
C33   C     C_2   0.196330 0.709507 0.873239 -0.096472
C34   C     C_R   0.153375 0.865074 0.767291 -0.123524
C35   C     C_2   0.739918 0.839720 0.969824 -0.100358
C36   C     C_2   0.307389 0.655315 0.024063 -0.177643
C37   C     C_2   0.652434 0.740594 0.878457 -0.209305
C38   C     C_2   0.856989 0.254876 0.147985 -0.202372
C39   C     C_2   0.143221 0.254372 0.852383 -0.208143
C40   C     C_R   0.595771 0.364968 0.407186 -0.143604
C41   C     C_R   0.413543 0.357122 0.593173 -0.107772
C42   C     C_R   0.100036 0.870359 0.406613 -0.099547
C43   C     C_R   0.889476 0.886153 0.591554 -0.110887
C44   C     C_2   0.237538 0.655532 0.964746 -0.110345
C45   C     C_R   0.385983 0.601251 0.591580 -0.083779
C46   C     C_2   0.698953 0.784015 0.881694 -0.103696
C47   C     C_2   0.803781 0.293675 0.131370 -0.113997
C48   C     C_2   0.196728 0.293052 0.869379 -0.106287
C49   C     C_R   0.669253 0.363357 0.592372 -0.126407
C50   C     C_R   0.339129 0.356340 0.408794 -0.110922
C51   C     C_R   0.175978 0.871627 0.591249 -0.112951
C52   C     C_R   0.815723 0.886312 0.407233 -0.128862
C53   C     C_R   0.576688 0.392230 0.801378 -0.161783
C54   C     C_R   0.423873 0.391739 0.199452 -0.147973
C55   C     C_R   0.060677 0.861971 0.763582 -0.137405
C56   C     C_R   0.586820 0.642606 0.406231 -0.075825
C57   C     C_R   0.924675 0.889014 0.201578 -0.148926
C58   C     C_R   0.353374 0.373707 0.137314 0.155125
C59   C     C_R   0.646883 0.373258 0.862670 0.154410
C60   C     C_R   0.854874 0.868494 0.141827 0.147764
C61   C     C_R   0.121002 0.822681 0.800047 0.148988
C62   C     C_R   0.650771 0.325057 0.499521 0.147189
C63   C     C_R   0.364238 0.312798 0.502048 0.136857
C64   C     C_R   0.159089 0.835068 0.498829 0.151862
C65   C     C_R   0.824070 0.861777 0.499076 0.146515
C66   C     C_R   0.312106 0.600619 0.408476 -0.139309
C67   C     C_R   0.885793 0.100128 0.591856 -0.094327
C68   C     C_R   0.662303 0.642850 0.589677 -0.147277
C69   C     C_R   0.811721 0.098794 0.409159 -0.167207
C70   C     C_R   0.185233 0.109937 0.590533 -0.142532
C71   C     C_R   0.423304 0.608392 0.198284 -0.093879
C72   C     C_R   0.562518 0.634773 0.770038 -0.139135
C73   C     C_R   0.940854 0.141366 0.241068 -0.136823
C74   C     C_R   0.058677 0.141324 0.758095 -0.138070
C75   C     C_R   0.657732 0.629001 0.779025 -0.128695
C76   C     C_R   0.332830 0.607788 0.200747 -0.107108
C77   C     C_R   0.150925 0.139214 0.758593 -0.114591
C78   C     C_R   0.110665 0.109668 0.406975 -0.078699
C79   C     C_R   0.849380 0.139584 0.242507 -0.118806
C80   C     C_2   0.573597 0.805932 0.307672 0.986841
C81   C     C_2   0.304471 0.601804 0.686071 0.984914
C82   C     C_2   0.214491 0.075806 0.355346 1.010882
C83   C     C_2   0.804528 0.095620 0.686586 0.990687
C84   C     C_R   0.316458 0.613217 0.499674 0.150136
H1    H     H_    0.279931 0.398720 0.171489 0.082005
H2    H     H_    0.707868 0.205916 0.638567 0.158622
H3    H     H_    0.686519 0.890716 0.362144 0.153543
H4    H     H_    0.209219 0.715704 0.633662 0.148934
H5    H     H_    0.364364 0.214448 0.589695 0.140180
H6    H     H_    0.690806 0.258607 0.433259 0.133847
H7    H     H_    0.788226 0.783519 0.562112 0.125209
H8    H     H_    0.203475 0.768955 0.438212 0.141790
H9    H     H_    0.212544 0.628211 0.995102 0.121662
H10   H     H_    0.715289 0.769512 0.832844 0.129609
H11   H     H_    0.782825 0.276950 0.172974 0.127097
H12   H     H_    0.719822 0.396716 0.826878 0.084195
H13   H     H_    0.217834 0.276377 0.828099 0.128421
H14   H     H_    0.787653 0.371851 0.006380 0.127014
H15   H     H_    0.212527 0.371176 0.993577 0.123693
H16   H     H_    0.214935 0.724987 0.827754 0.138492
H17   H     H_    0.714762 0.869000 0.998446 0.130474
H18   H     H_    0.331739 0.683495 0.992959 0.159942
H19   H     H_    0.636408 0.755059 0.927752 0.139270
H20   H     H_    0.877128 0.271757 0.105089 0.138922
H21   H     H_    0.122851 0.271285 0.894807 0.135616
H22   H     H_    0.667853 0.319000 0.008304 0.130246
H23   H     H_    0.781482 0.891001 0.177529 0.087588
H24   H     H_    0.332637 0.319447 0.992165 0.130919
H25   H     H_    0.128480 0.735400 0.909744 0.132989
H26   H     H_    0.834170 0.808562 0.000122 0.129700
H27   H     H_    0.570167 0.351980 0.321719 0.098664
H28   H     H_    0.443080 0.340448 0.678573 0.095186
H29   H     H_    0.074750 0.858325 0.321012 0.087628
H30   H     H_    0.908014 0.886110 0.675487 0.106821
H31   H     H_    0.711916 0.349528 0.677711 0.105596
H32   H     H_    0.300209 0.339326 0.323750 0.095439
H33   H     H_    0.223384 0.863458 0.674956 0.100546
H34   H     H_    0.204757 0.854879 0.791164 0.092620
H35   H     H_    0.768126 0.885015 0.322225 0.102334
H36   H     H_    0.547287 0.394686 0.831872 0.097751
H37   H     H_    0.453985 0.393186 0.170157 0.092941
H38   H     H_    0.024159 0.846671 0.778032 0.094874
H39   H     H_    0.954554 0.889657 0.171863 0.098795
H40   H     H_    0.264079 0.595602 0.324170 0.092188
H41   H     H_    0.705858 0.658529 0.672911 0.089823
H42   H     H_    0.763496 0.092366 0.325322 0.097236
H43   H     H_    0.234081 0.108787 0.674350 0.099578
H44   H     H_    0.452195 0.606067 0.166915 0.094333
H45   H     H_    0.710149 0.780476 0.585088 0.138859
H46   H     H_    0.525578 0.649945 0.783676 0.104240
H47   H     H_    0.977132 0.157850 0.226571 0.102535
H48   H     H_    0.021519 0.157831 0.770740 0.104588
H49   H     H_    0.711508 0.634883 0.810640 0.084778
H50   H     H_    0.280189 0.606708 0.175239 0.080152
H51   H     H_    0.199479 0.152525 0.773625 0.089031
H52   H     H_    0.801563 0.153210 0.229708 0.091097
H53   H     H_    0.407374 0.598801 0.676750 0.107403
H54   H     H_    0.558507 0.656594 0.320452 0.107010
H55   H     H_    0.907399 0.097375 0.677126 0.109283
H56   H     H_    0.208818 0.646946 0.411461 0.132476
H57   H     H_    0.090157 0.109592 0.322001 0.091751
H58   H     H_    0.511892 0.820584 0.142616 0.324955
H59   H     H_    0.351181 0.499972 0.760827 0.314983
H60   H     H_    0.179143 0.965948 0.331928 0.314962
H61   H     H_    0.853773 0.994475 0.760449 0.313957
H62   H     H_    0.258715 0.213021 0.553908 0.152233
H63   H     H_    0.707580 0.141581 0.412078 0.134312
H64   H     H_    0.266614 0.217668 0.335936 0.153239
N1    N     N_R   0.389060 0.424180 0.294540 -0.044955
N2    N     N_R   0.374530 0.423490 0.443400 -0.047154
N3    N     N_R   0.125470 0.923490 0.556600 -0.045410
N4    N     N_R   0.874530 0.923490 0.443400 -0.045333
N5    N     N_R   0.555250 0.423100 0.705420 -0.042073
N6    N     N_R   0.444750 0.423100 0.294580 -0.041192
N7    N     N_R   0.055250 0.923100 0.705420 -0.043799
N8    N     N_R   0.944750 0.923100 0.294580 -0.044300
N9    N     N_R   0.375210 0.577180 0.443400 -0.041915
N10   N     N_R   0.624790 0.577180 0.556600 -0.043446
N11   N     N_R   0.875210 0.077180 0.443400 -0.042158
N12   N     N_R   0.610940 0.424180 0.705460 -0.044275
N13   N     N_R   0.124790 0.077180 0.556600 -0.046759
N14   N     N_R   0.445430 0.577570 0.294580 -0.044751
N15   N     N_R   0.554570 0.577570 0.705420 -0.043246
N16   N     N_R   0.945430 0.077570 0.294580 -0.045228
N17   N     N_R   0.054570 0.077570 0.705420 -0.045488
N18   N     N_R   0.611620 0.576500 0.705460 -0.040857
N19   N     N_R   0.388380 0.576500 0.294540 -0.043240
N20   N     N_R   0.111620 0.076500 0.705460 -0.046516
N21   N     N_R   0.888380 0.076500 0.294540 -0.045953
N22   N     N_R   0.421010 0.576890 0.556640 -0.049424
N23   N     N_R   0.889060 0.924180 0.294540 -0.045986
N24   N     N_R   0.578990 0.576890 0.443360 -0.054341
N25   N     N_R   0.921010 0.076890 0.556640 -0.049068
N26   N     N_R   0.078990 0.076890 0.443360 -0.048935
N27   N     N_R   0.110940 0.924180 0.705460 -0.046263
N28   N     N_R   0.579670 0.423790 0.443360 -0.044237
N29   N     N_R   0.420330 0.423790 0.556640 -0.039951
N30   N     N_R   0.079670 0.923790 0.443360 -0.039696
N31   N     N_R   0.920330 0.923790 0.556640 -0.045054
N32   N     N_R   0.625470 0.423490 0.556600 -0.046841
Ni1   Ni    Ni4+2 0.383200 0.500680 0.370150 0.213988
Ni2   Ni    Ni4+2 0.616800 0.500680 0.629850 0.213238
Ni3   Ni    Ni4+2 0.883200 0.000680 0.370150 0.209544
Ni4   Ni    Ni4+2 0.116800 0.000680 0.629850 0.222376
Ni5   Ni    Ni4+2 0.512440 0.500680 0.370150 0.214337
Ni6   Ni    Ni4+2 0.487560 0.500680 0.629850 0.228452
Ni7   Ni    Ni4+2 0.012440 0.000680 0.370150 0.227022
Ni8   Ni    Ni4+2 0.987560 0.000680 0.629850 0.224968
O1    O     O_2   0.522668 0.797579 0.304835 -0.635118
O2    O     O_R   0.563524 0.820151 0.210137 -0.820074
O3    O     O_2   0.324987 0.631616 0.772917 -0.672006
O4    O     O_R   0.320854 0.524453 0.684655 -0.806697
O5    O     O_2   0.205908 0.075685 0.269036 -0.653760
O6    O     O_R   0.198827 0.009351 0.387876 -0.804263
O7    O     O_2   0.825503 0.124809 0.773998 -0.660677
O8    O     O_R   0.822184 0.019010 0.684351 -0.808567

loop_
_geom_bond_atom_site_label_1
_geom_bond_atom_site_label_2
_ccdc_geom_bond_type
C70   H43   S    
C34   H34   S    
C21   C26   D    
C73   H47   S    
N25   Ni8   S    
C53   N5    A    
C71   N14   A    
C74   H48   S    
C80   O1    D    
N18   Ni2   S    
N1    N6    A    
C19   H2    S    
C45   N22   A    
C4    C70   A    
C53   C59   A    
C53   H36   S    
N3    Ni4   S    
C11   C18   S    
C77   N20   A    
C6    C72   A    
C79   H52   S    
C43   N31   A    
C8    C74   A    
C30   C35   D    
C30   H26   S    
N15   Ni6   S    
C16   H62   S    
C3    C69   A    
C67   N25   A    
C73   N16   A    
C2    C68   A    
C10   C15   D    
C43   H30   S    
N9    N22   A    
C5    C36   S    
H60   O6    S    
C20   C25   D    
C26   H8    S    
H58   O2    S    
C20   H3    S    
C29   C33   D    
N23   Ni3   S    
C40   C62   A    
C76   N19   A    
C36   H18   S    
N28   Ni5   S    
C31   H14   S    
C83   O8    S    
C26   C64   S    
N21   Ni3   S    
C82   O5    D    
C38   H20   S    
C44   H9    S    
C42   H29   S    
C51   H33   S    
C22   C63   S    
C12   C59   A    
C72   N15   A    
C81   O3    D    
N20   Ni4   S    
C41   H28   S    
C30   C60   S    
H59   O4    S    
C1    N1    A    
C34   N27   A    
C8    C39   S    
N2    Ni1   S    
C67   H55   S    
C52   N4    A    
C49   N32   A    
N16   Ni7   S    
C21   H4    S    
C51   N3    A    
C10   C21   S    
C31   C47   S    
C56   N24   A    
N1    Ni1   S    
C50   C63   A    
C32   C48   S    
N16   N21   A    
C29   H25   S    
N9    Ni1   S    
N4    N31   A    
C68   N10   A    
N12   Ni2   S    
N6    Ni5   S    
N32   Ni2   S    
C7    C38   S    
C40   H27   S    
H61   O8    S    
C11   C82   S    
C1    H1    S    
C23   C60   A    
C57   N8    A    
C29   C61   S    
C25   H7    S    
N17   Ni8   S    
C82   O6    S    
C13   C19   S    
C27   C31   D    
C28   C32   D    
N15   N18   A    
C25   C65   S    
C7    C73   A    
C78   H57   S    
C40   N28   A    
C76   H50   S    
N3    N30   A    
N31   Ni8   S    
C27   H22   S    
C34   C61   A    
N29   Ni6   S    
C9    C80   S    
C4    C16   S    
C55   N7    A    
C9    C14   D    
C81   O4    S    
C4    C78   A    
C48   H13   S    
N26   Ni7   S    
C57   H39   S    
C56   H54   S    
C11   C16   D    
C50   N2    A    
C9    C20   S    
C46   H10   S    
C5    C76   A    
N28   N32   A    
N24   Ni5   S    
C43   C65   A    
C23   H23   S    
N22   Ni6   S    
C45   H53   S    
C6    C37   S    
C12   N12   A    
N4    Ni3   S    
N10   Ni2   S    
C38   C47   D    
N2    N29   A    
N30   Ni7   S    
C49   H31   S    
C54   H37   S    
C69   H42   S    
N17   N20   A    
N11   N25   A    
C8    C77   A    
C66   H40   S    
C71   H44   S    
C36   C44   D    
C45   C84   A    
C41   C63   A    
C70   N13   A    
C42   C64   A    
C7    C79   A    
C15   H56   S    
C54   C58   A    
N8    Ni7   S    
N7    N27   A    
C39   H21   S    
C24   C62   S    
C49   C62   A    
C10   C81   S    
C17   H63   S    
C18   C22   D    
C33   C44   S    
C80   O2    S    
C3    C67   A    
C51   C64   A    
C35   H17   S    
C24   H6    S    
C54   N6    A    
N14   Ni5   S    
C37   H19   S    
C75   H49   S    
C72   H46   S    
C15   C84   S    
C42   N30   A    
C28   C58   S    
C13   C83   S    
N8    N23   A    
C18   H64   S    
C32   H15   S    
C13   C17   D    
N7    Ni8   S    
C33   H16   S    
C79   N21   A    
N13   Ni4   S    
C19   C24   D    
C5    C71   A    
C2    C56   A    
C1    C58   A    
N13   N26   A    
N10   N24   A    
N19   Ni1   S    
C28   H24   S    
C41   N29   A    
C55   C61   A    
C69   N11   A    
C22   H5    S    
C3    C17   S    
C75   N18   A    
C50   H32   S    
C74   N17   A    
C83   O7    D    
C2    C14   S    
C55   H38   S    
C66   C84   A    
N14   N19   A    
C52   H35   S    
C57   C60   A    
C23   N23   A    
N5    Ni6   S    
C78   N26   A    
N5    N12   A    
C47   H11   S    
C12   H12   S    
C27   C59   S    
C77   H51   S    
N11   Ni3   S    
C37   C46   D    
C35   C46   S    
C68   H41   S    
C66   N9    A    
C52   C65   A    
C39   C48   D    
N27   Ni4   S    
C14   H45   S    
C6    C75   A    
