data_mof_unit_38914.cif
_audit_creation_date              2013-03-05T16:19:43-0500
_audit_creation_method            fapswitch 2.2
_symmetry_space_group_name_H-M    P1
_symmetry_Int_Tables_number       1
_space_group_crystal_system       triclinic
_cell_length_a                    10.927627
_cell_length_b                    9.943235
_cell_length_c                    27.584411
_cell_angle_alpha                 92.18678
_cell_angle_beta                  90.447021
_cell_angle_gamma                 88.226678
_cell_volume                      2993.52785643

loop_
_atom_site_label
_atom_site_type_symbol
_atom_site_description
_atom_site_fract_x
_atom_site_fract_y
_atom_site_fract_z
_atom_type_partial_charge
O1    O     O_R   0.314910 0.616040 0.499990 -0.541136
O2    O     O_R   0.314910 0.383960 0.499990 -0.592605
C1    C     C_R   0.259246 0.502834 0.503653 0.948537
O3    O     O_R   0.500140 0.616020 0.428740 -0.629112
O4    O     O_R   0.500140 0.383980 0.428740 -0.567521
C2    C     C_R   0.498473 0.497389 0.405979 0.851870
Zn1   Zn    Zn3+2 0.500150 0.654960 0.499980 0.978663
Zn2   Zn    Zn3+2 0.500150 0.345040 0.499980 1.003233
O5    O     O_R   0.685320 0.616040 0.499970 -0.644108
O6    O     O_R   0.685320 0.383960 0.499970 -0.632382
O7    O     O_R   0.500090 0.616050 0.571230 -0.638140
O8    O     O_R   0.500090 0.383950 0.571230 -0.572192
C3    C     C_R   0.743185 0.497818 0.497363 0.839982
C4    C     C_R   0.501573 0.502072 0.593457 0.935342
C5    C     C_R   0.456681 0.403239 0.172470 0.502941
O9    O     O_2   0.366549 0.337375 0.193843 -0.570188
N1    N     N_R   0.529746 0.485912 0.199566 -0.340553
C6    C     C_R   0.621913 0.554429 0.179264 0.544928
C7    C     C_R   0.538757 0.369659 0.275682 -0.232665
C8    C     C_R   0.534507 0.368797 0.326550 0.513066
C9    C     C_R   0.482656 0.609855 0.327319 -0.327374
C10   C     C_R   0.489806 0.608653 0.277064 -0.093691
C11   C     C_R   0.518098 0.488548 0.251230 0.254099
C12   C     C_R   0.563784 0.461533 0.100052 -0.097640
C13   C     C_R   0.474581 0.386502 0.122743 0.014194
C14   C     C_R   0.408881 0.291392 0.095726 -0.155626
C15   C     C_R   0.642814 0.543253 0.128509 -0.116374
C16   C     C_R   0.502998 0.490769 0.352533 -0.164657
H1    H     H_    0.462523 0.704838 0.346428 0.174956
H2    H     H_    0.474027 0.701176 0.258182 0.158082
H3    H     H_    0.348325 0.223707 0.112975 0.186944
C17   C     C_R   0.521082 0.504844 0.645422 -0.131636
C18   C     C_R   0.487099 0.378676 0.969979 0.021224
C19   C     C_R   0.662777 0.529881 0.974274 0.072265
C20   C     C_R   0.578364 0.451594 0.946771 0.028096
C21   C     C_R   0.392238 0.320811 0.940600 0.182620
C22   C     C_R   0.407990 0.306171 0.890578 -0.150675
C23   C     C_R   0.500918 0.372145 0.867740 -0.068606
C24   C     C_R   0.581649 0.451511 0.895452 -0.060820
C25   C     C_R   0.662939 0.533966 0.871726 -0.007603
C26   C     C_R   0.659674 0.537675 0.821000 0.513785
N2    N     N_R   0.580369 0.459082 0.794925 -0.339054
C27   C     C_R   0.505726 0.372741 0.817156 0.518279
C28   C     C_R   0.446614 0.520128 0.727416 -0.237391
C29   C     C_R   0.423384 0.532212 0.677455 0.462060
C30   C     C_R   0.638207 0.468811 0.662460 -0.355053
C31   C     C_R   0.658969 0.455363 0.711738 -0.091895
C32   C     C_R   0.562835 0.479467 0.744251 0.252701
O10   O     O_2   0.433669 0.290524 0.790226 -0.585516
C33   C     C_R   0.491082 0.372618 0.021222 0.093844
C34   C     C_R   0.572695 0.454198 0.048812 0.008173
C35   C     C_R   0.664450 0.524927 0.025719 -0.127058
C36   C     C_R   0.422081 0.280091 0.045979 -0.231318
H4    H     H_    0.374759 0.536939 0.753862 0.148955
H5    H     H_    0.338510 0.255703 0.868982 0.194975
H6    H     H_    0.377869 0.197333 0.027444 0.170836
O11   O     O_2   0.693335 0.630440 0.208599 -0.583379
C37   C     C_R   0.742912 0.602705 0.105522 0.087548
H7    H     H_    0.559176 0.278147 0.254437 0.153755
C38   C     C_R   0.736182 0.619031 0.949349 -0.161633
C39   C     C_R   0.738397 0.618631 0.899105 -0.180974
O12   O     O_2   0.732131 0.622121 0.798061 -0.575547
C40   C     C_R   0.758735 0.581823 0.055072 0.493234
H8    H     H_    0.788066 0.696148 0.967753 0.208046
H9    H     H_    0.712524 0.446840 0.637296 0.155323
H10   H     H_    0.796993 0.688307 0.881847 0.191868
H11   H     H_    0.748719 0.423226 0.724535 0.161864
C41   C     C_3   0.066254 0.648057 0.519273 0.399396
C42   C     C_3   0.077602 0.405117 0.540534 0.398583
H12   H     H_    0.109921 0.723561 0.497286 0.161880
H13   H     H_    0.123280 0.309040 0.528695 0.155897
C43   C     C_3   0.926362 0.644470 0.508708 -0.158135
C44   C     C_3   0.936133 0.397806 0.535923 -0.129906
H14   H     H_    0.875907 0.677416 0.542099 0.194212
H15   H     H_    0.894046 0.432163 0.571085 0.183961
H16   H     H_    0.117357 0.535047 0.425945 0.196379
H17   H     H_    0.131502 0.364789 0.442073 0.196034
C45   C     C_3   0.082906 0.461688 0.451726 -0.678852
C46   C     C_3   0.123257 0.506753 0.504367 -0.185550
C47   C     C_3   0.882885 0.495411 0.495481 -0.092101
C48   C     C_3   0.941016 0.448093 0.444726 1.030464
C49   C     C_3   0.378732 0.081564 0.481645 0.356482
C50   C     C_3   0.397783 0.922775 0.468702 0.446958
H18   H     H_    0.351943 0.131435 0.447517 0.070723
H19   H     H_    0.430192 0.922248 0.430028 0.034510
H20   H     H_    0.570285 0.089717 0.428218 0.225764
H21   H     H_    0.624428 0.861026 0.438643 0.210932
C51   C     C_3   0.595763 0.073069 0.466584 -0.540606
C52   C     C_3   0.609912 0.914808 0.474357 -0.555952
C53   C     C_3   0.521905 0.087846 0.550165 0.754817
C54   C     C_3   0.504523 0.923915 0.550378 0.671594
N3    N     N_3   0.499750 0.138610 0.498940 -0.134721
N4    N     N_3   0.499750 0.861390 0.498940 -0.105612
H22   H     H_    0.684163 0.122235 0.470531 0.240381
H23   H     H_    0.694501 0.894341 0.494505 0.221351
C55   C     C_3   0.837291 0.683637 0.133599 -0.721995
H24   H     H_    0.884942 0.619591 0.160401 0.252984
H25   H     H_    0.908885 0.723567 0.110308 0.250853
H26   H     H_    0.792236 0.773135 0.151909 0.252121
O13   O     O_3   0.870996 0.609660 0.035466 -0.634991
C56   C     C_3   0.943004 0.489432 0.032367 -0.315093
H27   H     H_    0.958320 0.447058 0.068784 0.172962
H28   H     H_    0.033858 0.512335 0.017616 0.198983
H29   H     H_    0.901257 0.413327 0.007212 0.172829
O14   O     O_3   0.093206 0.681543 0.568854 -0.539101
C57   C     C_3   0.040883 0.807101 0.585321 -0.371371
H30   H     H_    0.961890 0.789366 0.609055 0.182284
H31   H     H_    0.009986 0.873681 0.556036 0.135349
H32   H     H_    0.108800 0.861998 0.607735 0.180547
O15   O     O_3   0.113939 0.439868 0.588938 -0.526558
C58   C     C_3   0.126226 0.324772 0.617227 -0.238650
H33   H     H_    0.197586 0.253109 0.602356 0.212431
H34   H     H_    0.037628 0.274936 0.620953 0.123518
H35   H     H_    0.155742 0.356325 0.654333 0.212250
C59   C     C_3   0.895848 0.751600 0.470301 -0.890956
H36   H     H_    0.807345 0.738206 0.451830 0.292262
H37   H     H_    0.897577 0.854466 0.487189 0.209585
H38   H     H_    0.963394 0.748581 0.440766 0.258869
C60   C     C_3   0.909109 0.246528 0.528064 -0.952370
H39   H     H_    0.972812 0.194657 0.502371 0.257762
H40   H     H_    0.912290 0.194113 0.562798 0.223522
H41   H     H_    0.824038 0.226928 0.509977 0.307485
O16   O     O_3   0.904435 0.534925 0.406785 -0.664269
C61   C     C_3   0.791260 0.505101 0.384440 -0.257853
H42   H     H_    0.736251 0.600101 0.381779 0.172007
H43   H     H_    0.736648 0.432095 0.403682 0.193757
H44   H     H_    0.807969 0.464579 0.346972 0.183614
O17   O     O_3   0.910560 0.311779 0.432650 -0.644915
C62   C     C_3   0.968324 0.256915 0.390143 -0.356637
H45   H     H_    0.043754 0.186125 0.400502 0.164361
H46   H     H_    0.004931 0.333240 0.366073 0.200313
H47   H     H_    0.901124 0.197502 0.368943 0.184735
O18   O     O_3   0.286843 0.120151 0.516458 -0.545005
C63   C     C_3   0.178584 0.047968 0.514499 -0.241443
H48   H     H_    0.115750 0.093165 0.541945 0.129346
H49   H     H_    0.192337 0.947258 0.528950 0.263441
H50   H     H_    0.135127 0.048705 0.478013 0.149358
O19   O     O_3   0.292042 0.844391 0.467575 -0.578196
C64   C     C_3   0.239016 0.836323 0.420423 -0.398712
H51   H     H_    0.298218 0.774036 0.395371 0.191052
H52   H     H_    0.221184 0.937862 0.405775 0.142198
H53   H     H_    0.151196 0.785804 0.421619 0.178480
C65   C     C_3   0.652126 0.132956 0.568211 -0.977795
H54   H     H_    0.725305 0.083811 0.546446 0.202091
H55   H     H_    0.664955 0.241321 0.566956 0.298158
H56   H     H_    0.673232 0.107288 0.606162 0.216360
C66   C     C_3   0.617305 0.859050 0.580184 -0.926993
H57   H     H_    0.707993 0.893229 0.570609 0.175491
H58   H     H_    0.615526 0.880734 0.619728 0.206387
H59   H     H_    0.642477 0.754834 0.572124 0.288751
O20   O     O_3   0.431854 0.152883 0.581599 -0.507320
C67   C     C_3   0.452200 0.144095 0.632276 -0.194322
H60   H     H_    0.511430 0.225691 0.645899 0.183147
H61   H     H_    0.492372 0.046750 0.643012 0.131046
H62   H     H_    0.363179 0.158166 0.651056 0.163191
O21   O     O_3   0.385114 0.906053 0.569975 -0.595264
C68   C     C_3   0.367733 0.834089 0.612368 -0.148137
H63   H     H_    0.312863 0.898648 0.638231 0.120311
H64   H     H_    0.448625 0.797839 0.632352 0.152475
H65   H     H_    0.311830 0.746673 0.602192 0.269436
O22   O     O_3   0.307272 0.557065 0.657717 -0.603636
C69   C     C_3   0.226136 0.626715 0.690153 -0.313192
H66   H     H_    0.269154 0.715464 0.708337 0.136456
H67   H     H_    0.190362 0.557422 0.716949 0.173487
H68   H     H_    0.146279 0.664900 0.669216 0.237868
C70   C     C_3   0.263773 0.298328 0.958173 -0.951639
H69   H     H_    0.195283 0.335186 0.931373 0.246071
H70   H     H_    0.249691 0.189268 0.962265 0.243037
H71   H     H_    0.242648 0.356751 0.992288 0.250084
O23   O     O_3   0.555647 0.251070 0.351657 -0.601267
C71   C     C_3   0.649444 0.167368 0.330622 -0.364384
H72   H     H_    0.725796 0.225705 0.316328 0.150972
H73   H     H_    0.610917 0.100003 0.301713 0.185475
H74   H     H_    0.689137 0.102183 0.358788 0.191464

loop_
_geom_bond_atom_site_label_1
_geom_bond_atom_site_label_2
_geom_bond_distance
_ccdc_geom_bond_type
C65   H56   1.107781 S    
C8    O23   1.394971 S    
C71   H72   1.113822 S    
C68   H63   1.108359 S    
C44   C60   1.548680 S    
O18   C63   1.402207 S    
C26   N2    1.366882 A    
C20   C24   1.416316 A    
C7    C8    1.404640 A    
C19   C38   1.414591 A    
C12   C15   1.416490 A    
C1    C46   1.485614 S    
O17   C62   1.418564 S    
C63   H50   1.109678 S    
C54   C66   1.608195 S    
O22   C69   1.411852 S    
O16   C61   1.412171 S    
H17   C45   1.110032 S    
Zn1   O7    2.017552 S    
C71   H73   1.110525 S    
C43   C59   1.557854 S    
C56   H27   1.113521 S    
C48   O16   1.428857 S    
C21   C22   1.393387 A    
C66   H58   1.104006 S    
H16   C45   1.113669 S    
C69   H66   1.113335 S    
O4    C2    1.311004 A    
C47   C48   1.590633 S    
C64   H53   1.098164 S    
H20   C51   1.109448 S    
C60   H41   1.071287 S    
C57   H30   1.109903 S    
C5    O9    1.350930 S    
C50   N4    1.513969 S    
C55   H26   1.109907 S    
C65   H55   1.092760 S    
C18   C21   1.431981 A    
C49   N3    1.521219 S    
Zn1   O5    2.048346 S    
C19   C20   1.421559 A    
C17   C29   1.404627 A    
C42   H13   1.103474 S    
C29   O22   1.395534 S    
O15   C58   1.411965 S    
C37   C55   1.517368 S    
C66   H57   1.095037 S    
C39   H10   1.083510 S    
C2    C16   1.474361 S    
C51   N3    1.500000 S    
C59   H37   1.108257 S    
C55   H25   1.108592 S    
O20   C67   1.419332 S    
C42   C44   1.553871 S    
Zn2   N3    2.051828 S    
C53   C65   1.576495 S    
C41   C43   1.555216 S    
C62   H47   1.106338 S    
C41   C46   1.561057 S    
C3    C47   1.527301 S    
C14   H3    1.083576 S    
C56   H28   1.109280 S    
C9    C10   1.388644 A    
C70   H70   1.110101 S    
C44   H15   1.113972 S    
C26   O12   1.349762 S    
O3    Zn1   1.988346 S    
C31   H11   1.082782 S    
N1    C6    1.368412 A    
C69   H67   1.110836 S    
C60   H40   1.107820 S    
Zn1   N4    2.053747 S    
C71   H74   1.107995 S    
C51   H22   1.098877 S    
C33   C36   1.407217 A    
C34   C35   1.411910 A    
C66   H59   1.079175 S    
C12   C13   1.410226 A    
C30   H9    1.084116 S    
C43   H14   1.110579 S    
C4    C17   1.446887 S    
C24   C25   1.408788 A    
C45   C46   1.567274 S    
C27   O10   1.350748 S    
C63   H49   1.097484 S    
C8    C16   1.419441 A    
C40   O13   1.384484 S    
C7    H7    1.081658 S    
C18   C33   1.417369 A    
C9    H1    1.081281 S    
O6    C3    1.318305 A    
C25   C39   1.394175 A    
C38   C39   1.386206 A    
O1    C1    1.303566 A    
C52   H23   1.092560 S    
N2    C32   1.430631 S    
C7    C11   1.394758 A    
C22   C23   1.393258 A    
C28   H4    1.080825 S    
C54   N4    1.528412 S    
C69   H68   1.107956 S    
C42   O15   1.422979 S    
C6    O11   1.347280 S    
C53   N3    1.533464 S    
C31   C32   1.395746 A    
C67   H62   1.108214 S    
Zn2   O8    1.988574 S    
C59   H38   1.102546 S    
C55   H24   1.110257 S    
C21   C70   1.514586 S    
C33   C34   1.421145 A    
C58   H34   1.108429 S    
O7    C4    1.308561 A    
N1    C11   1.430943 S    
C67   H60   1.106258 S    
C61   H44   1.109269 S    
O3    C2    1.315507 A    
C25   C26   1.401300 A    
C50   H19   1.126426 S    
C9    C16   1.406903 A    
O8    C4    1.304505 A    
C41   O14   1.425895 S    
C68   H65   1.104103 S    
C49   H18   1.113628 S    
H21   C52   1.112948 S    
C48   O17   1.431986 S    
C70   H69   1.111772 S    
C42   C46   1.543171 S    
N2    C27   1.367376 A    
C14   C36   1.380852 A    
C28   C29   1.408331 A    
C64   H51   1.108663 S    
C61   H43   1.107243 S    
C62   H45   1.110084 S    
C36   H6    1.077313 S    
C37   C40   1.410366 A    
C5    N1    1.362470 A    
O5    C3    1.317225 A    
C30   C31   1.387157 A    
O21   C68   1.411125 S    
C10   H2    1.082919 S    
C58   H33   1.110132 S    
O1    Zn1   2.072627 S    
C17   C30   1.400884 A    
Zn2   O6    2.071875 S    
O2    Zn2   2.049098 S    
C6    C15   1.419910 A    
C67   H61   1.100380 S    
C53   O20   1.438582 S    
C35   C40   1.423118 A    
O4    Zn2   2.017336 S    
C68   H64   1.096816 S    
C60   H39   1.100206 S    
C63   H48   1.099834 S    
C56   H29   1.112919 S    
O14   C57   1.417206 S    
C19   C35   1.421762 A    
C38   H8    1.076965 S    
C49   O18   1.428537 S    
O2    C1    1.313259 A    
C13   C14   1.394664 A    
C54   O21   1.434947 S    
C43   C47   1.598487 S    
C64   H52   1.112790 S    
C45   C48   1.570341 S    
C53   C54   1.647097 S    
C23   C24   1.404243 A    
C57   H31   1.107953 S    
C15   C37   1.423889 A    
O13   C56   1.410885 S    
C18   C20   1.421358 A    
C44   C47   1.600788 S    
C58   H35   1.107562 S    
C52   N4    1.506949 S    
C5    C13   1.390035 A    
O19   C64   1.420245 S    
C22   H5    1.084832 S    
C28   C32   1.401932 A    
C23   C27   1.396971 A    
C51   C52   1.598866 S    
C70   H71   1.108918 S    
C41   H12   1.104804 S    
C49   C50   1.612905 S    
O23   C71   1.414061 S    
C10   C11   1.394722 A    
C12   C34   1.416476 A    
C59   H36   1.098981 S    
C50   O19   1.413119 S    
C65   H54   1.095285 S    
C61   H42   1.108366 S    
C62   H46   1.112736 S    
C57   H32   1.105987 S    
