data_mof_unit_66399.cif
_audit_creation_date              2012-12-11T16:57:11-0500
_audit_creation_method            fapswitch 2.2
_symmetry_space_group_name_H-M    P1
_symmetry_Int_Tables_number       1
_space_group_crystal_system       triclinic
_cell_length_a                    14.637655
_cell_length_b                    16.122952
_cell_length_c                    6.935173
_cell_angle_alpha                 90.640029
_cell_angle_beta                  98.620544
_cell_angle_gamma                 89.73649
_cell_volume                      1618.11763113

loop_
_atom_site_label
_atom_site_type_symbol
_atom_type_description
_atom_site_fract_x
_atom_site_fract_y
_atom_site_fract_z
_atom_type_partial_charge
O1    O     O_R   0.584990 0.413650 0.534420 -0.531445
O2    O     O_R   0.584990 0.586350 0.534420 -0.519398
O3    O     O_R   0.596190 0.585230 0.208380 -0.502337
O4    O     O_R   0.596190 0.414770 0.208380 -0.498419
O5    O     O_R   0.415010 0.586420 0.976930 -0.539084
O6    O     O_R   0.415010 0.413580 0.976930 -0.544270
C1    C     C_R   0.618291 0.615146 0.386188 0.831476
C2    C     C_R   0.617447 0.384377 0.383076 0.799044
O7    O     O_3   0.440560 0.500000 0.319140 -0.405742
V1    V     V_3+5 0.511030 0.500000 0.068070 1.642560
O8    O     O_R   0.403810 0.414840 0.643540 -0.554913
O9    O     O_R   0.403810 0.585160 0.643540 -0.537542
C3    C     C_R   0.379234 0.388253 0.805134 0.728139
C4    C     C_R   0.379208 0.611766 0.806869 0.756064
V2    V     V_3+5 0.488970 0.500000 0.560620 1.549519
O10   O     O_3   0.559440 0.500000 0.859420 -0.314011
C5    C     C_2   0.290953 0.657143 0.804194 -0.329075
C6    C     C_2   0.317016 0.315785 0.796557 -0.333529
C7    C     C_2   0.283309 0.734520 0.880266 0.094240
C8    C     C_2   0.268476 0.294613 0.942375 0.171688
H1    H     H_    0.253862 0.823480 0.199952 0.111353
H2    H     H_    0.185215 0.226233 0.230134 0.124814
C9    C     C_2   0.192259 0.817162 0.092451 -0.328250
C10   C     C_2   0.190516 0.183791 0.110306 -0.348431
C11   C     C_2   0.192837 0.765047 0.934384 0.177225
C12   C     C_2   0.238944 0.204965 0.964091 0.165265
H3    H     H_    0.230920 0.617050 0.782802 0.106945
H4    H     H_    0.322149 0.273409 0.676530 0.119438
C13   C     C_R   0.755689 0.687578 0.590996 0.033152
C14   C     C_R   0.740840 0.302586 0.593738 -0.008693
C15   C     C_R   0.686379 0.685561 0.424573 -0.122929
C16   C     C_R   0.682827 0.312262 0.414256 -0.135820
C17   C     C_R   0.672886 0.760400 0.319695 0.337767
C18   C     C_R   0.684236 0.246363 0.276106 0.302028
C19   C     C_R   0.741934 0.822182 0.338280 -0.101436
C20   C     C_R   0.749807 0.180960 0.310919 -0.104923
H5    H     H_    0.728873 0.879511 0.259608 0.188671
H6    H     H_    0.751162 0.132897 0.201000 0.181204
C21   C     C_R   0.819182 0.817516 0.483950 -0.104514
C22   C     C_R   0.813952 0.178128 0.484347 -0.149445
C23   C     C_R   0.817915 0.755238 0.622318 -0.073184
C24   C     C_R   0.804170 0.237776 0.626695 0.043432
C25   C     C_3   0.801383 0.770549 0.827108 0.071448
C26   C     C_3   0.875901 0.289543 0.745549 0.046499
C27   C     C_3   0.738889 0.695449 0.800303 0.420940
C28   C     C_3   0.806023 0.361071 0.713864 0.450864
H7    H     H_    0.865380 0.762255 0.933357 0.112572
H8    H     H_    0.937592 0.297991 0.671770 0.118713
O11   O     O_R   0.921430 0.915960 0.371040 -0.541386
O12   O     O_R   0.921430 0.084040 0.371040 -0.522822
O13   O     O_R   0.910450 0.087500 0.697310 -0.514817
O14   O     O_R   0.910450 0.912500 0.697310 -0.525185
O15   O     O_R   0.091710 0.087460 0.928430 -0.539781
O16   O     O_R   0.091710 0.912540 0.928430 -0.554564
C29   C     C_R   0.886815 0.113203 0.519524 0.763015
C30   C     C_R   0.887401 0.886375 0.518900 0.726485
O17   O     O_3   0.065970 0.000000 0.586140 -0.393828
V3    V     V_3+5 0.995640 1.000000 0.837400 1.520401
O18   O     O_R   0.103020 0.915700 0.261710 -0.545798
O19   O     O_R   0.103020 0.084300 0.261710 -0.539576
C31   C     C_R   0.120586 0.882386 0.096968 0.721486
C32   C     C_R   0.127827 0.111617 0.100769 0.772755
V4    V     V_3+5 0.017940 1.000000 0.344880 1.459450
O20   O     O_3   0.947330 1.000000 0.046180 -0.338339
C33   C     C_3   0.103188 0.738221 0.806952 -0.368118
C34   C     C_3   0.048841 0.678970 0.916614 -0.696163
H9    H     H_    0.091642 0.623965 0.966096 0.232076
H10   H     H_    0.027150 0.710711 0.045363 0.217691
H11   H     H_    0.986238 0.657479 0.818630 0.251159
H12   H     H_    0.058504 0.790988 0.753230 0.188620
H13   H     H_    0.117769 0.706612 0.671878 0.179320
C35   C     C_3   0.270454 0.136775 0.832103 -0.374120
C36   C     C_3   0.374478 0.120916 0.878622 -0.685900
H14   H     H_    0.415019 0.175560 0.847521 0.258484
H15   H     H_    0.393569 0.104486 0.034663 0.243918
H16   H     H_    0.393692 0.068343 0.787794 0.223579
H17   H     H_    0.238989 0.075768 0.850870 0.190926
H18   H     H_    0.250149 0.152493 0.676104 0.173937
Br1   Br    Br    0.792011 0.605581 0.962074 -0.443385
Br2   Br    Br    0.846813 0.451832 0.565060 -0.474566
C37   C     C_3   0.361095 0.796454 0.884759 -0.286369
C38   C     C_3   0.337132 0.861861 0.727482 -0.705394
H19   H     H_    0.322871 0.831796 0.581183 0.228744
H20   H     H_    0.275666 0.898476 0.754096 0.212722
H21   H     H_    0.396278 0.904895 0.729535 0.247590
H22   H     H_    0.374032 0.827940 0.028746 0.215539
H23   H     H_    0.426009 0.765818 0.859345 0.243247
C39   C     C_3   0.235371 0.363004 0.071439 -0.376320
C40   C     C_3   0.131454 0.378334 0.019065 -0.696244
H24   H     H_    0.114598 0.396957 0.863987 0.234009
H25   H     H_    0.090993 0.322515 0.041812 0.260378
H26   H     H_    0.110076 0.429189 0.112182 0.235829
H27   H     H_    0.253970 0.347694 0.228059 0.174092
H28   H     H_    0.267122 0.423990 0.053843 0.186872
Br3   Br    Br    0.549905 0.796376 0.230104 -0.535097
Br4   Br    Br    0.597228 0.240103 0.040366 -0.546264
Br5   Br    Br    0.739027 0.876958 0.861448 -0.472354
Br6   Br    Br    0.906478 0.246002 0.008259 -0.511101
Br7   Br    Br    0.610223 0.713896 0.829033 -0.450497
Br8   Br    Br    0.756209 0.398908 0.942777 -0.322006

loop_
_geom_bond_atom_site_label_1
_geom_bond_atom_site_label_2
_ccdc_geom_bond_type
C34   H10   S    
O11   V4    S    
O1    C2    A    
C12   C35   S    
C36   H14   S    
O2    C1    A    
O4    C2    A    
C37   C38   S    
C21   C23   A    
C3    C6    S    
O19   V4    S    
C19   H5    S    
C18   Br4   S    
O3    C1    A    
C34   H11   S    
C33   H12   S    
O19   C32   A    
C35   H18   S    
C17   C19   A    
O8    V2    S    
C15   C17   A    
O1    V2    S    
C40   H25   S    
O7    V1    S    
C18   C20   A    
C37   H22   S    
C22   C24   A    
C34   H9    S    
O12   V4    S    
C23   C25   S    
C4    C5    S    
C24   C26   S    
C17   Br3   S    
C26   C28   S    
O17   V4    S    
V3    O20   S    
C39   H28   S    
O18   C31   A    
C1    C15   S    
V2    O10   S    
C2    C16   S    
C20   C22   A    
C11   C33   S    
C27   Br7   S    
O13   C29   A    
C33   H13   S    
C13   C27   S    
C5    H3    S    
C19   C21   A    
C35   H17   S    
O15   C32   A    
C21   C30   S    
O9    V2    S    
C22   C29   S    
C6    H4    S    
C27   Br1   S    
O13   V3    S    
C40   H26   S    
O2    V2    S    
C25   C27   S    
O5    C4    A    
C37   H23   S    
O14   V3    S    
O9    C4    A    
C33   C34   S    
C38   H20   S    
H1    C9    S    
C36   H16   S    
H2    C10   S    
C36   H15   S    
O4    V1    S    
C38   H21   S    
O16   V3    S    
C28   Br8   S    
C39   H27   S    
C10   C32   S    
C13   C23   A    
C14   C28   S    
C25   Br5   S    
C10   C12   D    
C35   C36   S    
O6    V1    S    
O15   V3    S    
O16   C31   A    
O11   C30   A    
O18   V4    S    
O12   C29   A    
C20   H6    S    
O7    V2    S    
O5    V1    S    
C13   C15   A    
O3    V1    S    
V1    O10   S    
O6    C3    A    
C14   C16   A    
O8    C3    A    
O17   V3    S    
C8    C12   S    
C8    C39   S    
C5    C7    D    
C6    C8    D    
C9    C11   D    
C7    C11   S    
C26   Br6   S    
V4    O20   S    
C26   H8    S    
C9    C31   S    
C39   C40   S    
C38   H19   S    
C14   C24   A    
C28   Br2   S    
C40   H24   S    
C7    C37   S    
C25   H7    S    
O14   C30   A    
C16   C18   A    
