data_mof_unit_14787.cif
_audit_creation_date              2012-12-11T14:49:43-0500
_audit_creation_method            fapswitch 2.2
_symmetry_space_group_name_H-M    P1
_symmetry_Int_Tables_number       1
_space_group_crystal_system       triclinic
_cell_length_a                    10.942065
_cell_length_b                    10.928743
_cell_length_c                    18.88897
_cell_angle_alpha                 90.000409
_cell_angle_beta                  89.999727
_cell_angle_gamma                 120.091796
_cell_volume                      1954.36621848

loop_
_atom_site_label
_atom_site_type_symbol
_atom_type_description
_atom_site_fract_x
_atom_site_fract_y
_atom_site_fract_z
_atom_type_partial_charge
C1    C     C_R   0.528394 0.468197 0.646697 0.547738
C2    C     C_R   0.463452 0.530625 0.355481 0.549686
C3    C     C_R   0.468824 0.931403 0.144261 0.550656
C4    C     C_R   0.060330 0.532065 0.353362 0.548560
C5    C     C_R   0.400010 0.029029 0.535293 -0.130313
C6    C     C_R   0.625017 0.607846 0.963371 -0.140674
C7    C     C_R   0.992660 0.381405 0.535877 -0.136461
C8    C     C_R   0.400018 0.029041 0.964709 -0.130300
C9    C     C_R   0.625073 0.607769 0.536615 -0.140639
C10   C     C_R   0.992755 0.381468 0.964116 -0.136444
C11   C     C_R   0.008979 0.387785 0.037395 -0.134405
C12   C     C_R   0.933736 0.469734 0.855233 0.550382
C13   C     C_R   0.613970 0.613373 0.463422 -0.149077
C14   C     C_R   0.393652 0.009569 0.037643 -0.136573
C15   C     C_R   0.008870 0.387733 0.462597 -0.134468
C16   C     C_R   0.613938 0.613446 0.036567 -0.149068
C17   C     C_R   0.393644 0.009555 0.462360 -0.136587
C18   C     C_R   0.479420 0.964223 0.430513 0.036675
C19   C     C_R   0.487038 0.518302 0.069986 0.037326
C20   C     C_R   0.002329 0.494433 0.424247 0.033900
C21   C     C_R   0.479432 0.964246 0.069491 0.036675
C22   C     C_R   0.487010 0.518332 0.430022 0.037315
C23   C     C_R   0.531961 0.060685 0.646605 0.548790
C24   C     C_R   0.002267 0.494371 0.075768 0.033879
C25   C     C_R   0.972264 0.483218 0.929454 0.036499
C26   C     C_R   0.508735 0.507887 0.576168 0.032887
C27   C     C_R   0.490720 0.001030 0.923766 0.030691
C28   C     C_R   0.972365 0.483260 0.570563 0.036483
C29   C     C_R   0.508716 0.507861 0.923835 0.032915
C30   C     C_R   0.490710 0.001015 0.576237 0.030686
C31   C     C_R   0.562889 0.928292 0.472344 -0.123898
C32   C     C_R   0.369827 0.423777 0.029455 -0.128142
C33   C     C_R   0.971115 0.588465 0.458927 -0.130577
C34   C     C_R   0.528390 0.468197 0.853302 0.547730
C35   C     C_R   0.562913 0.928334 0.027660 -0.123889
C36   C     C_R   0.369762 0.423931 0.470569 -0.128117
C37   C     C_R   0.970826 0.588264 0.041116 -0.130584
C38   C     C_R   0.961061 0.585949 0.968829 -0.126185
C39   C     C_R   0.379393 0.421472 0.542888 -0.136444
C40   C     C_R   0.566614 0.944239 0.955360 -0.132771
C41   C     C_R   0.961387 0.586144 0.531212 -0.126235
C42   C     C_R   0.379424 0.421328 0.957135 -0.136432
C43   C     C_R   0.566594 0.944206 0.544645 -0.132779
C44   C     C_R   0.933764 0.469744 0.644775 0.550384
C45   C     C_R   0.531963 0.060689 0.853396 0.548788
C46   C     C_R   0.463462 0.530618 0.144522 0.549689
C47   C     C_R   0.468821 0.931395 0.355741 0.550653
C48   C     C_R   0.060321 0.532056 0.146641 0.548572
Cr1   Cr    Cr6+3 0.776430 0.541680 0.750000 1.010656
Cr2   Cr    Cr6+3 0.765250 0.223570 0.750000 1.016598
Cr3   Cr    Cr6+3 0.458320 0.234750 0.750000 1.012924
Cr4   Cr    Cr6+3 0.541680 0.776430 0.250000 1.013180
Cr5   Cr    Cr6+3 0.223570 0.765250 0.250000 1.017592
Cr6   Cr    Cr6+3 0.234750 0.458320 0.250000 1.012070
H1    H     H_    0.340538 0.073427 0.558848 0.133629
H2    H     H_    0.031504 0.313189 0.436443 0.118574
H3    H     H_    0.703872 0.690358 0.066879 0.111640
H4    H     H_    0.324920 0.032706 0.430892 0.120491
H5    H     H_    0.625212 0.886631 0.449333 0.138414
H6    H     H_    0.268808 0.352093 0.053340 0.129968
H7    H     H_    0.963367 0.670787 0.430835 0.130161
H8    H     H_    0.625248 0.886689 0.050671 0.138400
H9    H     H_    0.268700 0.352348 0.446694 0.130014
H10   H     H_    0.962934 0.670482 0.069231 0.130134
H11   H     H_    0.941274 0.663785 0.944188 0.130047
H12   H     H_    0.725599 0.676648 0.938304 0.118550
H13   H     H_    0.287385 0.344857 0.572146 0.125834
H14   H     H_    0.635673 0.920084 0.924759 0.129423
H15   H     H_    0.941775 0.664085 0.555869 0.130030
H16   H     H_    0.287437 0.344628 0.927894 0.125832
H17   H     H_    0.635648 0.920045 0.575247 0.129425
H18   H     H_    0.996510 0.298240 0.565208 0.118640
H19   H     H_    0.340541 0.073429 0.941154 0.133616
H20   H     H_    0.725702 0.676471 0.561665 0.118631
H21   H     H_    0.996771 0.298410 0.934766 0.118597
H22   H     H_    0.031782 0.313341 0.063527 0.118598
H23   H     H_    0.703935 0.690194 0.433097 0.111657
H24   H     H_    0.324922 0.032711 0.069111 0.120490
O1    O     O_R   0.916700 0.566820 0.669930 -0.527536
O2    O     O_R   0.566820 0.916700 0.330070 -0.525648
O3    O     O_R   0.083300 0.650120 0.169930 -0.524989
O4    O     O_R   0.349880 0.433180 0.330070 -0.526369
O5    O     O_R   0.649840 0.534790 0.674920 -0.510204
O6    O     O_R   0.884950 0.350160 0.825080 -0.504074
O7    O     O_R   0.465210 0.115050 0.674920 -0.507826
O8    O     O_R   0.649840 0.534790 0.825080 -0.510208
O9    O     O_R   0.884950 0.350160 0.674920 -0.504079
O10   O     O_R   0.465210 0.115050 0.825080 -0.507830
O11   O     O_R   0.534790 0.649840 0.174920 -0.509098
O12   O     O_R   0.650120 0.083300 0.830070 -0.523502
O13   O     O_R   0.350160 0.884950 0.325080 -0.502836
O14   O     O_R   0.115050 0.465210 0.174920 -0.509659
O15   O     O_R   0.534790 0.649840 0.325080 -0.509102
O16   O     O_R   0.350160 0.884950 0.174920 -0.502821
O17   O     O_R   0.115050 0.465210 0.325080 -0.509664
O18   O     O_3   0.666667 0.333333 0.750000 -0.244037
O19   O     O_3   0.333333 0.666667 0.250000 -0.249255
O20   O     O_R   0.433180 0.349880 0.669930 -0.526740
O21   O     O_R   0.916700 0.566820 0.830070 -0.527528
O22   O     O_R   0.650120 0.083300 0.669930 -0.523505
O23   O     O_R   0.433180 0.349880 0.830070 -0.526759
O24   O     O_R   0.566820 0.916700 0.169930 -0.525649
O25   O     O_R   0.083300 0.650120 0.330070 -0.525021
O26   O     O_R   0.349880 0.433180 0.169930 -0.526377

loop_
_geom_bond_atom_site_label_1
_geom_bond_atom_site_label_2
_ccdc_geom_bond_type
C29   C42   A    
Cr4   O19   S    
C18   C47   S    
Cr3   O7    S    
C19   C46   S    
Cr2   O6    S    
C46   O11   A    
Cr4   O24   S    
C31   C43   A    
C14   C21   A    
Cr6   O26   S    
C11   H22   S    
C26   C39   A    
C5    C17   A    
C4    O25   A    
C11   C24   A    
C42   H16   S    
C48   O3    A    
C12   O6    A    
Cr5   O3    S    
C34   O8    A    
C31   H5    S    
C9    C13   A    
C12   O21   A    
Cr2   O12   S    
Cr5   O13   S    
C8    C14   A    
Cr6   O19   S    
C35   H8    S    
C36   H9    S    
C2    O15   A    
C17   H4    S    
C27   C45   S    
Cr3   O20   S    
C7    C15   A    
C23   O22   A    
Cr4   O11   S    
C47   O13   A    
C47   O2    A    
C19   C32   A    
C9    C26   A    
C24   C37   A    
C36   C39   A    
C15   C20   A    
C13   H23   S    
C34   O23   A    
C24   C48   S    
C23   C30   S    
C45   O10   A    
C48   O14   A    
C7    H18   S    
Cr5   O19   S    
C46   O26   A    
C29   C34   S    
C28   C44   S    
C7    C28   A    
Cr1   O1    S    
C1    O20   A    
Cr6   O14   S    
C37   C38   A    
C25   C38   A    
Cr1   O21   S    
C4    O17   A    
C10   H21   S    
C38   H11   S    
C27   C40   A    
C17   C18   A    
Cr4   O15   S    
C45   O12   A    
Cr6   O17   S    
Cr2   O9    S    
C20   C33   A    
C3    O24   A    
C23   O7    A    
C1    C26   S    
C30   C43   A    
C3    C21   S    
Cr3   O23   S    
C9    H20   S    
C32   H6    S    
C44   O9    A    
Cr6   O4    S    
C37   H10   S    
C10   C25   A    
C41   H15   S    
C5    C30   A    
C43   H17   S    
Cr5   O16   S    
C39   H13   S    
Cr1   O8    S    
C5    H1    S    
C44   O1    A    
Cr3   O10   S    
C21   C35   A    
C1    O5    A    
C22   C36   A    
Cr3   O18   S    
Cr2   O22   S    
C12   C25   S    
C33   C41   A    
C15   H2    S    
Cr1   O5    S    
C35   C40   A    
C2    C22   S    
Cr2   O18   S    
Cr5   O25   S    
C16   C19   A    
C8    H19   S    
C13   C22   A    
C3    O16   A    
C16   H3    S    
C14   H24   S    
Cr1   O18   S    
C2    O4    A    
C10   C11   A    
C6    C16   A    
C4    C20   S    
C6    H12   S    
C6    C29   A    
C33   H7    S    
C40   H14   S    
C8    C27   A    
C32   C42   A    
C18   C31   A    
Cr4   O2    S    
C28   C41   A    
