data_mof_unit_20954.cif
_audit_creation_date              2012-10-26T19:53:25-0400
_audit_creation_method            fapswitch 2.2
_symmetry_space_group_name_H-M    P1
_symmetry_Int_Tables_number       1
_space_group_crystal_system       triclinic
_cell_length_a                    9.091558
_cell_length_b                    7.79777
_cell_length_c                    10.668491
_cell_angle_alpha                 90.173037
_cell_angle_beta                  90.016815
_cell_angle_gamma                 89.965009
_cell_volume                      756.327079435

loop_
_atom_site_label
_atom_site_type_symbol
_atom_type_description
_atom_site_fract_x
_atom_site_fract_y
_atom_site_fract_z
_atom_type_partial_charge
C1    C     C_R   0.220073 0.500033 0.499930 0.572807
C2    C     C_3   0.624843 0.569669 0.039881 0.018135
C3    C     C_3   0.498304 0.500882 0.877384 0.044096
C4    C     C_3   0.501695 0.499118 0.122616 0.044097
C5    C     C_1   0.065386 0.500046 0.499975 -0.006496
C6    C     C_1   0.934614 0.499954 0.500025 -0.006497
C7    C     C_2   0.232441 0.352158 0.919211 0.220123
C8    C     C_2   0.767559 0.647841 0.080789 0.220123
C9    C     C_R   0.779927 0.499966 0.500069 0.572806
C10   C     C_R   0.500749 0.499683 0.258875 0.582541
C11   C     C_R   0.499251 0.500317 0.741124 0.582541
C12   C     C_3   0.384888 0.591630 0.043497 -0.157456
C13   C     C_3   0.615112 0.408370 0.956503 -0.157456
C14   C     C_3   0.509668 0.663266 0.959159 -0.143301
C15   C     C_3   0.490331 0.336734 0.040841 -0.143301
C16   C     C_3   0.375157 0.430331 0.960119 0.018135
Cu1   Cu    Cu3+1 0.500000 0.669080 0.500000 1.069120
Cu2   Cu    Cu3+1 0.500000 0.330920 0.500000 1.069120
H1    H     H_    0.155960 0.305207 0.989153 0.103316
H2    H     H_    0.844040 0.694792 0.010847 0.103316
H3    H     H_    0.290321 0.665716 0.081250 0.123402
H4    H     H_    0.709679 0.334284 0.918750 0.123402
H5    H     H_    0.518252 0.796922 0.924231 0.132168
H6    H     H_    0.481747 0.203078 0.075769 0.132168
N1    N     N_1   0.500000 0.076820 0.500000 -0.076974
N2    N     N_1   0.500000 0.923180 0.500000 -0.076974
O1    O     O_R   0.288390 0.642760 0.500000 -0.503974
O2    O     O_2   0.798899 0.658779 0.191704 -0.497266
O3    O     O_R   0.711610 0.357240 0.500000 -0.503974
O4    O     O_R   0.711610 0.642760 0.500000 -0.480944
O5    O     O_R   0.288390 0.357240 0.500000 -0.480944
O6    O     O_R   0.499960 0.642760 0.316850 -0.480409
O7    O     O_R   0.500040 0.357240 0.683150 -0.480409
O8    O     O_R   0.500040 0.642760 0.683150 -0.518888
O9    O     O_R   0.499960 0.357240 0.316850 -0.518888
O10   O     O_2   0.201101 0.341221 0.808296 -0.497266

loop_
_geom_bond_atom_site_label_1
_geom_bond_atom_site_label_2
_ccdc_geom_bond_type
C14   H5    S    
C2    C4    S    
C10   O9    A    
C4    C12   S    
C7    O10   D    
C3    C13   S    
C9    O3    A    
C4    C15   S    
Cu1   Cu2   S    
Cu2   O3    S    
Cu1   O4    S    
C3    C14   S    
C8    H2    S    
Cu2   N1    S    
C9    O4    A    
C6    C9    S    
C1    C5    S    
Cu1   N2    S    
C15   H6    S    
C12   C14   S    
C13   H4    S    
C7    H1    S    
C13   C15   S    
C1    O5    A    
C5    C6    T    
C2    C14   S    
Cu2   O7    S    
C3    C11   S    
Cu1   O8    S    
C4    C10   S    
C15   C16   S    
Cu1   O1    S    
C10   O6    A    
C11   O7    A    
C8    O2    D    
Cu2   O9    S    
Cu1   O6    S    
C1    O1    A    
C2    C13   S    
C7    C16   S    
Cu2   O5    S    
N1    N2    T    
C12   H3    S    
C11   O8    A    
C2    C8    S    
C3    C16   S    
C12   C16   S    
