data_mof_unit_31464.cif
_audit_creation_date              2012-12-10T19:04:11-0500
_audit_creation_method            fapswitch 2.2
_symmetry_space_group_name_H-M    P1
_symmetry_Int_Tables_number       1
_space_group_crystal_system       triclinic
_cell_length_a                    10.625335
_cell_length_b                    10.817918
_cell_length_c                    9.541079
_cell_angle_alpha                 90.657567
_cell_angle_beta                  89.516421
_cell_angle_gamma                 90.665743
_cell_volume                      1096.50571851

loop_
_atom_site_label
_atom_site_type_symbol
_atom_type_description
_atom_site_fract_x
_atom_site_fract_y
_atom_site_fract_z
_atom_type_partial_charge
C1    C     C_R   0.505216 0.262234 0.498810 0.834624
C2    C     C_3   0.961524 0.517023 0.367377 -0.209968
C3    C     C_3   0.040474 0.407009 0.418010 -0.223725
C4    C     C_3   0.122462 0.498159 0.502504 -0.029281
C5    C     C_R   0.500168 0.064728 0.621569 0.022970
C6    C     C_R   0.521090 0.128805 0.496995 -0.078874
C7    C     C_R   0.562880 0.061224 0.376556 0.146896
C8    C     C_R   0.560600 0.931652 0.380603 -0.221394
C9    C     C_R   0.520942 0.870050 0.502105 -0.099128
C10   C     C_R   0.502656 0.937941 0.624991 0.025941
C11   C     C_3   0.398678 0.930616 0.730829 -0.483303
C12   C     C_R   0.259310 0.498664 0.500682 0.846675
C13   C     C_3   0.394081 0.071193 0.725512 0.293196
C14   C     C_R   0.557505 0.593794 0.074219 0.270691
C15   C     C_R   0.431905 0.415038 0.074002 -0.084330
C16   C     C_R   0.431904 0.415049 0.925070 -0.086482
C17   C     C_R   0.557457 0.593854 0.926871 0.264954
C18   C     C_3   0.693000 0.630671 0.919921 -0.508496
C19   C     C_3   0.693123 0.629923 0.078964 -0.528296
C20   C     C_R   0.504154 0.737478 0.500653 0.827163
C21   C     C_R   0.740710 0.501745 0.499499 0.786670
C22   C     C_3   0.038369 0.483203 0.633327 -0.183863
C23   C     C_3   0.954044 0.392345 0.548402 -0.150379
C24   C     C_3   0.877521 0.502520 0.498675 -0.034555
C25   C     C_3   0.959189 0.593750 0.584578 -0.266458
C26   C     C_3   0.044004 0.606217 0.453991 0.503957
Cu1   Cu    Cu3+1 0.499990 0.499980 0.640670 0.944281
Cu2   Cu    Cu3+1 0.500010 0.500020 0.359330 0.947432
H1    H     H_    0.910022 0.305267 0.585662 0.141999
H2    H     H_    0.431952 0.895964 0.833139 0.153955
H3    H     H_    0.421772 0.120414 0.824033 0.059404
H4    H     H_    0.378518 0.345005 0.129434 0.131623
H5    H     H_    0.378520 0.345151 0.868846 0.131513
H6    H     H_    0.753568 0.557929 0.872660 0.223197
H7    H     H_    0.706766 0.724531 0.875668 0.191234
H8    H     H_    0.752520 0.555943 0.121850 0.213803
H9    H     H_    0.707572 0.723022 0.126679 0.196221
H10   H     H_    0.072574 0.467925 0.741320 0.145737
H11   H     H_    0.923053 0.670327 0.651558 0.128645
H12   H     H_    0.929287 0.530250 0.258671 0.125956
H13   H     H_    0.076851 0.330191 0.351603 0.143713
H14   H     H_    0.584444 0.878971 0.287027 0.152344
H15   H     H_    0.313105 0.882971 0.689455 0.216685
N1    N     N_R   0.500800 0.500930 0.147930 -0.182117
N2    N     N_R   0.500800 0.500890 0.852020 -0.184707
O1    O     O_R   0.500000 0.319640 0.618810 -0.584237
O2    O     O_R   0.500010 0.319680 0.381230 -0.588277
O3    O     O_R   0.316850 0.499950 0.618770 -0.589977
O4    O     O_R   0.316860 0.499990 0.381190 -0.568424
O5    O     O_R   0.499990 0.680320 0.618770 -0.580948
O6    O     O_R   0.500000 0.680360 0.381190 -0.580984
O7    O     O_R   0.683140 0.500010 0.618810 -0.586144
O8    O     O_R   0.683150 0.500050 0.381230 -0.592492
O9    O     O_3   0.283060 0.112958 0.661874 -0.591924
C27   C     C_3   0.186660 0.128397 0.763350 0.062724
H16   H     H_    0.182041 0.228032 0.792552 0.143796
H17   H     H_    0.200992 0.074151 0.860818 0.122749
C28   C     C_3   0.061607 0.086876 0.699416 -0.321422
H18   H     H_    0.048057 0.134221 0.598078 0.220429
H19   H     H_    0.063931 0.985646 0.678281 0.209372
C29   C     C_3   0.951293 0.115323 0.797567 -0.959655
H20   H     H_    0.962577 0.066519 0.898186 0.261181
H21   H     H_    0.861942 0.083935 0.748359 0.254846
H22   H     H_    0.946074 0.216271 0.819048 0.256395
O10   O     O_3   0.101620 0.716282 0.405886 -0.623139
C30   C     C_3   0.010278 0.806292 0.376495 0.050959
H23   H     H_    0.043690 0.895733 0.421838 0.167329
H24   H     H_    0.915700 0.787534 0.423943 0.115022
C31   C     C_3   0.997671 0.820437 0.217955 -0.323037
H25   H     H_    0.091168 0.842891 0.171030 0.228670
H26   H     H_    0.963380 0.732154 0.170897 0.210049
C32   C     C_3   0.905573 0.922480 0.183051 -0.960751
H27   H     H_    0.814214 0.906347 0.237264 0.255791
H28   H     H_    0.888868 0.922647 0.068459 0.255370
H29   H     H_    0.944231 0.014063 0.215888 0.260919
C33   C     C_3   0.605687 0.122036 0.242466 -0.834481
H30   H     H_    0.680205 0.192112 0.265118 0.238681
H31   H     H_    0.645709 0.054174 0.166623 0.214982
H32   H     H_    0.524736 0.165644 0.190521 0.240504

loop_
_geom_bond_atom_site_label_1
_geom_bond_atom_site_label_2
_ccdc_geom_bond_type
Cu1   O3    S    
C30   H24   S    
C27   H16   S    
Cu2   O2    S    
C31   C32   S    
C3    C23   S    
C33   H32   S    
C12   O3    A    
C12   O4    A    
C7    C8    A    
C23   H1    S    
C8    H14   S    
C15   N1    A    
C20   O6    A    
C19   H8    S    
C5    C6    A    
Cu2   O6    S    
C1    O1    A    
C30   C31   S    
C28   H19   S    
C15   C16   A    
C22   H10   S    
C31   H26   S    
C18   C19   S    
C29   H21   S    
C20   O5    A    
C19   H9    S    
C11   H2    S    
C8    C9    A    
C22   C25   S    
C23   C24   S    
C11   H15   S    
C4    C12   S    
C18   H7    S    
C5    C13   S    
Cu1   O5    S    
Cu1   N2    S    
C28   C29   S    
C30   H23   S    
C14   C17   A    
C29   H20   S    
C32   H29   S    
C1    C6    S    
C15   H4    S    
C33   H30   S    
C32   H28   S    
C1    O2    A    
C25   C26   S    
Cu2   N1    S    
C17   N2    A    
C29   H22   S    
C16   H5    S    
C4    C22   S    
Cu2   O4    S    
C9    C20   S    
C17   C18   S    
C2    C26   S    
C24   C25   S    
C18   H6    S    
C7    C33   S    
Cu1   O1    S    
C27   H17   S    
C2    C24   S    
C21   C24   S    
C3    C4    S    
Cu1   O7    S    
C14   N1    A    
C13   O9    S    
C9    C10   A    
O9    C27   S    
C3    H13   S    
C26   O10   S    
C14   C19   S    
C13   H3    S    
C33   H31   S    
C32   H27   S    
C16   N2    A    
C4    C26   S    
Cu2   O8    S    
C6    C7    A    
C2    C3    S    
C28   H18   S    
C5    C10   A    
C25   H11   S    
C21   O8    A    
C11   C13   S    
C31   H25   S    
C10   C11   S    
C2    H12   S    
O10   C30   S    
C27   C28   S    
Cu1   Cu2   S    
C22   C23   S    
C21   O7    A    
