data_mof_unit_17905.cif
_audit_creation_date              2012-12-11T17:01:32-0500
_audit_creation_method            fapswitch 2.2
_symmetry_space_group_name_H-M    P1
_symmetry_Int_Tables_number       1
_space_group_crystal_system       triclinic
_cell_length_a                    15.057678
_cell_length_b                    14.831135
_cell_length_c                    14.920747
_cell_angle_alpha                 109.040331
_cell_angle_beta                  108.890056
_cell_angle_gamma                 109.59377
_cell_volume                      2592.77546558

loop_
_atom_site_label
_atom_site_type_symbol
_atom_type_description
_atom_site_fract_x
_atom_site_fract_y
_atom_site_fract_z
_atom_type_partial_charge
C1    C     C_R   0.003312 0.803933 0.096403 -0.151008
C2    C     C_R   0.211124 0.801624 0.301338 -0.156184
C3    C     C_R   0.907911 0.410963 0.212682 -0.146623
C4    C     C_R   0.781257 0.217744 0.688661 -0.128339
C5    C     C_R   0.300869 0.590313 0.997885 -0.136085
C6    C     C_R   0.942068 0.504069 0.306702 0.088752
C7    C     C_R   0.300464 0.498393 0.934051 0.018015
C8    C     C_R   0.302295 0.862182 0.298965 0.013356
C9    C     C_R   0.050837 0.225633 0.052895 0.072960
C10   C     C_3   0.476098 0.398791 0.836070 -0.467219
C11   C     C_3   0.369838 0.385434 0.836314 0.129917
C12   C     C_R   0.680087 0.174747 0.678796 0.073003
C13   C     C_3   0.564315 0.500270 0.046417 -0.086313
C14   C     C_3   0.573900 0.602884 0.940222 -0.441929
C15   C     C_3   0.574366 0.499888 0.944817 0.291557
C16   C     C_R   0.026119 0.594770 0.780537 -0.138874
C17   C     C_3   0.396328 0.495806 0.930934 0.264555
C18   C     C_3   0.466014 0.510926 0.043033 -0.461075
C19   C     C_3   0.463789 0.594435 0.920552 -0.420709
C20   C     C_R   0.587433 0.053286 0.486605 0.164583
C21   C     C_R   0.582907 0.109391 0.577993 0.041388
C22   C     C_R   0.486461 0.108317 0.568343 -0.197327
C23   C     C_R   0.955864 0.505982 0.677662 0.077107
C24   C     C_R   0.391453 0.034427 0.470254 -0.195076
C25   C     C_R   0.395394 0.964115 0.384046 0.039014
C26   C     C_R   0.494981 0.981243 0.390690 0.175335
C27   C     C_3   0.535264 0.901179 0.364216 -0.495395
C28   C     C_R   0.686788 0.409406 0.940762 -0.109241
C29   C     C_3   0.637868 0.982398 0.470540 -0.529524
C30   C     C_R   0.972047 0.611085 0.488920 0.148194
C31   C     C_R   0.912317 0.512530 0.391162 0.018280
C32   C     C_R   0.832503 0.421880 0.382475 -0.260470
C33   C     C_R   0.832369 0.423266 0.476984 0.042284
C34   C     C_R   0.675821 0.501591 0.957990 0.017848
C35   C     C_R   0.915889 0.514445 0.579287 -0.035384
C36   C     C_R   0.974362 0.612030 0.581875 0.145595
C37   C     C_3   0.091951 0.696502 0.649575 -0.498587
C38   C     C_3   0.088896 0.695649 0.547413 -0.503541
C39   C     C_R   0.056783 0.035687 0.162239 0.164052
C40   C     C_R   0.942879 0.412085 0.685724 -0.113181
C41   C     C_R   0.101661 0.985718 0.107968 0.027721
C42   C     C_R   0.169570 0.046782 0.078691 -0.192241
C43   C     C_R   0.167147 0.139683 0.076620 -0.197433
C44   C     C_R   0.095949 0.170097 0.102667 0.027084
C45   C     C_R   0.001029 0.593382 0.301352 -0.141792
C46   C     C_R   0.053339 0.126432 0.159118 0.168946
C47   C     C_3   0.943826 0.087849 0.150825 -0.518445
C48   C     C_3   0.948253 0.989402 0.155107 -0.527604
C49   C     C_R   0.777264 0.593259 0.030351 -0.151242
C50   C     C_R   0.688434 0.217311 0.779548 -0.146018
C51   C     C_R   0.093146 0.805198 0.004180 -0.139980
C52   C     C_R   0.064067 0.868570 0.066979 0.079651
C53   C     C_1   0.345637 0.846151 0.148487 -0.017100
C54   C     C_1   0.291047 0.360901 0.729486 -0.008319
C55   C     C_1   0.324423 0.288952 0.850851 0.005106
C56   C     C_R   0.207307 0.408224 0.903037 -0.144603
C57   C     C_1   0.558358 0.402860 0.057054 0.071955
C58   C     C_1   0.750426 0.329066 0.466519 0.038584
C59   C     C_R   0.296663 0.801694 0.203758 0.071444
C60   C     C_R   0.976840 0.254958 0.068978 -0.144792
C61   C     C_R   0.066185 0.250269 0.974718 -0.128924
H1    H     H_    0.984462 0.831437 0.160663 0.099507
H2    H     H_    0.589913 0.610746 0.874604 0.172957
H3    H     H_    0.419413 0.583659 0.838692 0.173922
H4    H     H_    0.479465 0.673788 0.980428 0.162047
H5    H     H_    0.637176 0.572808 0.121402 0.106801
H6    H     H_    0.483238 0.158547 0.637317 0.129071
H7    H     H_    0.052814 0.680053 0.804555 0.111625
H8    H     H_    0.315309 0.025377 0.465203 0.130265
H9    H     H_    0.488460 0.823749 0.362227 0.198526
H10   H     H_    0.548208 0.890104 0.293008 0.197242
H11   H     H_    0.650818 0.952607 0.530530 0.203454
H12   H     H_    0.172917 0.324375 0.842854 0.109462
H13   H     H_    0.776883 0.347834 0.304877 0.140340
H14   H     H_    0.106389 0.775679 0.708955 0.189603
H15   H     H_    0.144039 0.664824 0.683516 0.202785
H16   H     H_    0.101001 0.774095 0.548068 0.187515
H17   H     H_    0.139064 0.663540 0.522917 0.204462
H18   H     H_    0.213430 0.016293 0.044497 0.133359
H19   H     H_    0.209252 0.177160 0.040921 0.136599
H20   H     H_    0.945221 0.142811 0.223443 0.194856
H21   H     H_    0.878940 0.064620 0.071347 0.200483
H22   H     H_    0.901059 0.329855 0.619749 0.099591
H23   H     H_    0.950340 0.252936 0.127451 0.112257
H24   H     H_    0.798004 0.678390 0.067685 0.095086
H25   H     H_    0.626000 0.189583 0.800343 0.093519
H26   H     H_    0.153437 0.834353 0.981057 0.097049
H27   H     H_    0.359148 0.674931 0.032225 0.106511
H28   H     H_    0.417050 0.451520 0.061314 0.171884
H29   H     H_    0.637921 0.678566 0.018061 0.159803
H30   H     H_    0.494384 0.593900 0.108418 0.160624
H31   H     H_    0.708823 0.018744 0.459947 0.193579
H32   H     H_    0.624464 0.326287 0.903378 0.091353
H33   H     H_    0.953070 0.988130 0.230595 0.191192
H34   H     H_    0.119237 0.239320 0.943266 0.102747
H35   H     H_    0.885949 0.911650 0.078423 0.200447
H36   H     H_    0.024038 0.677730 0.350281 0.098780
H37   H     H_    0.185412 0.828902 0.359860 0.101765
H38   H     H_    0.847799 0.328240 0.183951 0.094208
H39   H     H_    0.478328 0.321347 0.819523 0.144329
H40   H     H_    0.480223 0.411933 0.767728 0.164924
H41   H     H_    0.803666 0.193057 0.626987 0.096826
N1    N     N_R   0.995640 0.706130 0.053910 -0.036316
N2    N     N_R   0.054010 0.556790 0.847890 -0.041195
N3    N     N_R   0.789940 0.443190 0.997130 -0.038763
N4    N     N_R   0.997630 0.443170 0.791110 -0.043314
N5    N     N_R   0.846320 0.556810 0.053910 -0.036774
N6    N     N_R   0.791080 0.293860 0.847890 -0.037967
N7    N     N_R   0.052880 0.706130 0.997130 -0.040013
N8    N     N_R   0.002370 0.556830 0.208890 -0.039360
N9    N     N_1   0.384760 0.882281 0.104289 -0.106105
N10   N     N_1   0.229376 0.341818 0.645967 -0.089774
N11   N     N_1   0.289285 0.213624 0.862147 -0.103187
N12   N     N_R   0.153680 0.443190 0.946090 -0.040314
N13   N     N_1   0.553765 0.326890 0.065732 -0.095483
N14   N     N_1   0.684018 0.253511 0.457521 -0.093714
N15   N     N_R   0.208920 0.706140 0.152110 -0.060969
N16   N     N_R   0.947120 0.293870 0.002870 -0.042215
N17   N     N_R   0.004360 0.293870 0.946090 -0.042979
N18   N     N_R   0.151690 0.706140 0.208890 -0.047386
N19   N     N_R   0.945990 0.443210 0.152110 -0.041269
N20   N     N_R   0.210060 0.556810 0.002870 -0.038810
N21   N     N_R   0.848310 0.293860 0.791110 -0.041010
Ni1   Ni    Ni4+2 0.999010 0.630300 0.130220 0.203136
Ni2   Ni    Ni4+2 0.000990 0.369700 0.869780 0.213200
Ni3   Ni    Ni4+2 0.130280 0.630280 0.000000 0.219667
Ni4   Ni    Ni4+2 0.869720 0.369720 0.000000 0.213854

loop_
_geom_bond_atom_site_label_1
_geom_bond_atom_site_label_2
_ccdc_geom_bond_type
C50   N6    A    
C33   C58   S    
C6    C45   A    
C27   C29   S    
C41   C42   A    
C35   C36   A    
C3    C6    A    
C1    H1    S    
N2    N4    A    
C53   C59   S    
C27   H10   S    
C39   C41   A    
N3    N5    A    
N4    Ni2   S    
C26   C27   S    
C48   H33   S    
C13   C18   S    
C9    C61   A    
C18   H30   S    
C7    C56   A    
C36   C37   S    
N19   Ni4   S    
C10   C15   S    
C8    C59   A    
C32   H13   S    
C30   C31   A    
N21   Ni2   S    
C61   N17   A    
C23   C40   A    
C30   C38   S    
C47   H21   S    
N16   N17   A    
C14   H29   S    
N8    Ni1   S    
C5    H27   S    
C16   N2    A    
C47   C48   S    
C7    C17   S    
C4    H41   S    
C60   N16   A    
C16   H7    S    
C4    C12   A    
C48   H35   S    
N15   Ni3   S    
C19   H3    S    
C41   C52   S    
C20   C29   S    
C29   H11   S    
C53   N9    T    
C6    C31   S    
C37   H14   S    
C28   C34   A    
C42   H18   S    
C51   N7    A    
C21   C22   A    
C58   N14   T    
C8    C25   S    
C40   H22   S    
N5    Ni1   S    
N1    Ni1   S    
C44   C46   A    
C24   H8    S    
C13   H5    S    
N3    Ni4   S    
C51   C52   A    
C49   H24   S    
C24   C25   A    
C57   N13   T    
N15   N18   A    
C51   H26   S    
C5    C7    A    
N12   Ni2   S    
C2    N18   A    
C45   N8    A    
C17   C19   S    
C55   N11   T    
C43   H19   S    
C49   N5    A    
C5    N20   A    
C4    N21   A    
C28   H32   S    
N20   Ni3   S    
C43   C44   A    
C37   C38   S    
C31   C32   A    
C28   N3    A    
C17   C18   S    
C54   N10   T    
C10   H39   S    
C11   C54   S    
C27   H9    S    
C39   C46   A    
N17   Ni2   S    
C37   H15   S    
C16   C23   A    
C23   C35   S    
C13   C15   S    
C22   C24   A    
C42   C43   A    
N6    N21   A    
C11   C55   S    
C40   N4    A    
C1    N1    A    
C46   C47   S    
C11   C17   S    
C9    C44   S    
C56   H12   S    
C15   C34   S    
C18   H28   S    
C14   C19   S    
C10   H40   S    
C2    C8    A    
C12   C50   A    
C61   H34   S    
C38   H16   S    
C38   H17   S    
C30   C36   A    
N1    N7    A    
C9    C60   A    
C32   C33   A    
C25   C26   A    
N8    N19   A    
C45   H36   S    
C60   H23   S    
C20   C26   A    
C14   H2    S    
C12   C21   S    
C33   C35   A    
C19   H4    S    
C3    N19   A    
C47   H20   S    
N6    Ni4   S    
C1    C52   A    
C22   H6    S    
N2    Ni3   S    
C10   C11   S    
C50   H25   S    
N12   N20   A    
C3    H38   S    
N7    Ni3   S    
C13   C57   S    
C20   C21   A    
C2    H37   S    
C34   C49   A    
C59   N15   A    
N16   Ni4   S    
C56   N12   A    
C14   C15   S    
C29   H31   S    
N18   Ni1   S    
C39   C48   S    
