data_mof_unit_36328.cif
_audit_creation_date              2012-12-11T15:25:57-0500
_audit_creation_method            fapswitch 2.2
_symmetry_space_group_name_H-M    P1
_symmetry_Int_Tables_number       1
_space_group_crystal_system       triclinic
_cell_length_a                    24.760974
_cell_length_b                    17.318425
_cell_length_c                    15.608834
_cell_angle_alpha                 90.271017
_cell_angle_beta                  52.037799
_cell_angle_gamma                 90.012468
_cell_volume                      5277.09640466

loop_
_atom_site_label
_atom_site_type_symbol
_atom_type_description
_atom_site_fract_x
_atom_site_fract_y
_atom_site_fract_z
_atom_type_partial_charge
C1    C     C_R   0.334366 0.102442 0.802377 -0.123070
C2    C     C_2   0.321919 0.807952 0.938002 0.426864
C3    C     C_R   0.510302 0.766697 0.679827 -0.169193
C4    C     C_R   0.464225 0.105972 0.843656 0.080823
C5    C     C_R   0.480439 0.178902 0.862033 -0.071594
C6    C     C_R   0.526623 0.185353 0.884772 -0.147686
C7    C     C_R   0.551638 0.118968 0.899934 -0.047188
C8    C     C_R   0.529093 0.046526 0.895026 -0.015196
C9    C     C_R   0.486108 0.039851 0.865533 -0.048182
C10   C     C_R   0.518652 0.839439 0.204990 0.116810
C11   C     C_R   0.529508 0.875988 0.115525 -0.026639
C12   C     C_R   0.495715 0.849569 0.075146 0.001985
C13   C     C_2   0.307854 0.141358 0.979880 0.442856
C14   C     C_R   0.451737 0.786056 0.122700 -0.028795
C15   C     C_R   0.442660 0.747724 0.209297 -0.018387
C16   C     C_R   0.476919 0.773427 0.249241 -0.077730
C17   C     C_R   0.034588 0.625577 0.163791 0.089780
C18   C     C_R   0.036465 0.700855 0.128137 -0.000155
C19   C     C_R   0.985191 0.725942 0.122207 -0.156977
C20   C     C_R   0.933674 0.675182 0.146581 -0.102739
C21   C     C_R   0.934354 0.598975 0.174644 0.039908
C22   C     C_R   0.984519 0.574760 0.183881 -0.221455
C23   C     C_R   0.977762 0.315894 0.771020 0.120892
C24   C     C_2   0.652341 0.754159 0.127052 0.432891
C25   C     C_R   0.984885 0.301052 0.851820 -0.053637
C26   C     C_R   0.027463 0.241103 0.838380 -0.076713
C27   C     C_R   0.061561 0.194236 0.745665 -0.041598
C28   C     C_R   0.052504 0.206597 0.666883 -0.091105
C29   C     C_R   0.010330 0.266695 0.679804 -0.169216
C30   C     C_R   0.964209 0.605919 0.843692 0.080687
C31   C     C_R   0.980464 0.678834 0.862035 -0.072094
C32   C     C_R   0.026635 0.685247 0.884805 -0.147549
C33   C     C_R   0.051592 0.618840 0.900036 -0.047030
C34   C     C_R   0.028996 0.546419 0.895178 -0.015329
C35   C     C_2   0.192144 0.660473 0.034399 0.402931
C36   C     C_R   0.986027 0.539780 0.865651 -0.047949
C37   C     C_R   0.018596 0.339366 0.205135 0.116851
C38   C     C_R   0.029544 0.375826 0.115550 -0.027148
C39   C     C_R   0.995759 0.349394 0.075162 0.001522
C40   C     C_R   0.951696 0.285959 0.122830 -0.028581
C41   C     C_R   0.942518 0.247717 0.209561 -0.017982
C42   C     C_R   0.976771 0.273428 0.249515 -0.077194
C43   C     C_2   0.821938 0.307897 0.937951 0.426891
C44   C     C_2   0.807867 0.641376 0.979841 0.442854
C45   C     C_2   0.152167 0.253900 0.127490 0.432770
C46   C     C_2   0.729750 0.216171 0.032746 -0.178377
C47   C     C_2   0.283957 0.754905 0.935332 -0.201382
C48   C     C_2   0.259452 0.190558 0.003647 -0.180918
C49   C     C_R   0.650807 0.861238 0.238888 -0.153786
C50   C     C_2   0.705950 0.719500 0.111365 -0.138608
C51   C     C_2   0.229735 0.716219 0.032793 -0.178294
C52   C     C_2   0.783974 0.254852 0.935280 -0.201341
C53   C     C_2   0.759619 0.690758 0.003446 -0.181283
C54   C     C_2   0.205888 0.219370 0.111590 -0.138052
C55   C     C_R   0.583762 0.151568 0.583481 0.389713
C56   C     C_R   0.381826 0.892790 0.415349 0.413954
C57   C     C_R   0.414722 0.151334 0.418105 0.458970
C58   C     C_R   0.617451 0.896518 0.587396 0.460923
C59   C     C_R   0.083761 0.651566 0.583486 0.389786
C60   C     C_R   0.665815 0.103073 0.200243 -0.114853
C61   C     C_R   0.881806 0.392839 0.415359 0.413915
C62   C     C_R   0.914732 0.651337 0.418104 0.458955
C63   C     C_R   0.117455 0.396540 0.587400 0.460884
C64   C     C_R   0.666478 0.138679 0.405218 -0.132792
C65   C     C_R   0.317391 0.883372 0.595008 -0.104835
C66   C     C_R   0.331594 0.137240 0.596036 -0.099197
C67   C     C_R   0.686019 0.892264 0.407285 -0.226571
C68   C     C_R   0.166477 0.638681 0.405222 -0.132796
C69   C     C_R   0.817372 0.383412 0.595009 -0.104803
C70   C     C_R   0.831598 0.637244 0.596034 -0.099150
C71   C     C_R   0.337076 0.887330 0.793818 -0.147380
C72   C     C_R   0.186028 0.392292 0.407292 -0.226654
C73   C     C_R   0.578070 0.104534 0.195504 0.127910
C74   C     C_R   0.430265 0.876235 0.786583 0.027552
C75   C     C_R   0.422467 0.100137 0.805730 0.139923
C76   C     C_R   0.561337 0.859833 0.237125 0.030367
C77   C     C_R   0.078062 0.604551 0.195517 0.127939
C78   C     C_R   0.930271 0.376214 0.786562 0.027541
C79   C     C_R   0.922465 0.600115 0.805737 0.139839
C80   C     C_R   0.061277 0.359757 0.237279 0.030361
C81   C     C_R   0.354039 0.116951 0.866714 -0.065256
C82   C     C_R   0.834364 0.602429 0.802382 -0.122947
C83   C     C_R   0.620295 0.819738 0.202953 -0.038624
C84   C     C_R   0.646660 0.121847 0.137390 -0.051852
C85   C     C_R   0.361505 0.858041 0.845598 -0.004995
C86   C     C_R   0.854040 0.616916 0.866717 -0.065230
C87   C     C_R   0.120200 0.319611 0.203198 -0.038737
C88   C     C_R   0.146648 0.621885 0.137413 -0.051852
C89   C     C_R   0.861518 0.357996 0.845557 -0.005009
C90   C     C_R   0.640938 0.185287 0.492589 0.179521
C91   C     C_R   0.322402 0.862800 0.506865 0.071282
C92   C     C_R   0.355912 0.183302 0.509395 0.101705
C93   C     C_R   0.150748 0.361166 0.239034 -0.153836
C94   C     C_R   0.681518 0.876329 0.496259 0.072396
C95   C     C_R   0.140935 0.685287 0.492597 0.179521
C96   C     C_R   0.822369 0.362875 0.506870 0.071269
C97   C     C_R   0.855921 0.683307 0.509391 0.101752
C98   C     C_R   0.181529 0.376371 0.496267 0.072482
C99   C     C_R   0.314098 0.313060 0.521901 -0.213952
C100  C     C_R   0.730890 0.752548 0.473250 -0.315891
C101  C     C_R   0.720167 0.198799 0.531089 -0.300738
C102  C     C_R   0.232814 0.856525 0.485595 -0.205216
C103  C     C_R   0.814098 0.813054 0.521881 -0.213784
C104  C     C_R   0.165810 0.603094 0.200253 -0.114898
C105  C     C_R   0.230886 0.252580 0.473263 -0.315913
C106  C     C_R   0.220148 0.698768 0.531134 -0.300734
C107  C     C_R   0.732793 0.356561 0.485576 -0.205212
C108  C     C_R   0.772104 0.862412 0.516921 0.543768
C109  C     C_R   0.272346 0.203534 0.478239 0.477832
C110  C     C_R   0.264637 0.741737 0.536283 0.502541
C111  C     C_R   0.689072 0.312824 0.478254 0.553155
C112  C     C_R   0.272108 0.362429 0.516942 0.543739
C113  C     C_R   0.772358 0.703514 0.478223 0.477868
C114  C     C_R   0.764647 0.241787 0.536238 0.502375
C115  C     C_R   0.837083 0.387299 0.793793 -0.147324
C116  C     C_R   0.189086 0.812806 0.478270 0.553187
C117  C     C_R   0.729968 0.830941 0.494304 -0.067318
C118  C     C_R   0.313319 0.234220 0.503703 -0.119095
C119  C     C_R   0.271600 0.820348 0.511416 -0.116781
C120  C     C_R   0.683788 0.233957 0.500365 -0.160606
C121  C     C_R   0.229972 0.330972 0.494318 -0.067323
C122  C     C_R   0.813327 0.734213 0.503688 -0.119171
C123  C     C_R   0.771584 0.320402 0.511399 -0.116791
C124  C     C_R   0.183787 0.733940 0.500386 -0.160652
C125  C     C_R   0.534600 0.125573 0.163774 0.089931
C126  C     C_2   0.692167 0.160412 0.034360 0.402922
C127  C     C_R   0.536527 0.200835 0.128032 -0.000174
C128  C     C_R   0.485260 0.225952 0.122105 -0.156949
C129  C     C_R   0.433696 0.175234 0.146567 -0.102597
C130  C     C_R   0.434315 0.099042 0.174739 0.039954
C131  C     C_R   0.484472 0.074803 0.183982 -0.221678
C132  C     C_R   0.477742 0.815895 0.771043 0.120877
C133  C     C_R   0.484868 0.801046 0.851838 -0.053681
C134  C     C_R   0.527443 0.741091 0.838393 -0.076572
C135  C     C_R   0.561533 0.694224 0.745678 -0.041619
C136  C     C_R   0.552472 0.706592 0.666901 -0.091137
Cl1   Cl    Cl    0.516238 0.218846 0.641520 -0.619964
Cl2   Cl    Cl    0.270516 0.104167 0.454504 -0.644209
Cl3   Cl    Cl    0.313164 0.694615 0.568601 -0.565339
Cl4   Cl    Cl    0.643152 0.357223 0.439527 -0.461932
Cl5   Cl    Cl    0.274164 0.462241 0.536999 -0.533985
Cl6   Cl    Cl    0.770540 0.604144 0.454486 -0.644169
Cl7   Cl    Cl    0.813199 0.194679 0.568521 -0.565514
Cl8   Cl    Cl    0.143178 0.857226 0.439536 -0.461889
Cl9   Cl    Cl    0.316470 0.829558 0.054098 -0.620164
Cl10  Cl    Cl    0.701166 0.127661 0.918973 -0.621397
Cl11  Cl    Cl    0.630556 0.730966 0.040426 -0.678491
Cl12  Cl    Cl    0.381029 0.928247 0.311459 -0.703840
Cl13  Cl    Cl    0.313505 0.102843 0.078721 -0.621185
Cl14  Cl    Cl    0.816493 0.329494 0.054047 -0.620205
Cl15  Cl    Cl    0.201126 0.627761 0.919012 -0.621522
Cl16  Cl    Cl    0.130102 0.230294 0.041336 -0.678502
Cl17  Cl    Cl    0.813307 0.602661 0.078812 -0.620763
Cl18  Cl    Cl    0.480268 0.220283 0.366478 -0.630936
Cl19  Cl    Cl    0.602086 0.918303 0.709746 -0.705707
Cl20  Cl    Cl    0.016233 0.718841 0.641546 -0.619929
Cl21  Cl    Cl    0.881050 0.428291 0.311427 -0.703819
Cl22  Cl    Cl    0.980278 0.720279 0.366532 -0.630939
Cl23  Cl    Cl    0.102081 0.418348 0.709750 -0.705754
Cl24  Cl    Cl    0.774152 0.962228 0.536969 -0.533945
H1    H     H_    0.282270 0.098517 0.829980 0.129941
H2    H     H_    0.273165 0.878936 0.679520 0.129428
H3    H     H_    0.286023 0.144594 0.679096 0.131446
H4    H     H_    0.731755 0.890900 0.323633 0.141460
H5    H     H_    0.212064 0.646636 0.322545 0.134159
H6    H     H_    0.773147 0.378979 0.679522 0.129387
H7    H     H_    0.786026 0.644599 0.679092 0.131546
H8    H     H_    0.231767 0.390939 0.323643 0.141468
H9    H     H_    0.347016 0.335644 0.539818 0.220813
H10   H     H_    0.698172 0.729446 0.455145 0.186315
H11   H     H_    0.714944 0.137491 0.548521 0.225751
H12   H     H_    0.699531 0.850241 0.221536 0.109450
H13   H     H_    0.237673 0.917858 0.469101 0.248261
H14   H     H_    0.847014 0.835649 0.539797 0.220831
H15   H     H_    0.198167 0.229488 0.455153 0.186312
H16   H     H_    0.214906 0.637463 0.548582 0.225744
H17   H     H_    0.737642 0.417895 0.469080 0.248255
H18   H     H_    0.290784 0.743993 0.860501 0.194657
H19   H     H_    0.719315 0.233789 0.108614 0.198528
H20   H     H_    0.716507 0.725235 0.169089 0.149897
H21   H     H_    0.261121 0.213878 0.937391 0.174139
H22   H     H_    0.790798 0.243944 0.860452 0.194647
H23   H     H_    0.717482 0.100859 0.174793 0.112025
H24   H     H_    0.219311 0.733816 0.108659 0.198516
H25   H     H_    0.216630 0.225303 0.169065 0.149696
H26   H     H_    0.761464 0.714205 0.937080 0.174464
H27   H     H_    0.574311 0.242009 0.113114 0.144350
H28   H     H_    0.485339 0.284802 0.099030 0.137289
H29   H     H_    0.394168 0.194554 0.141541 0.169510
H30   H     H_    0.395229 0.059491 0.191083 0.228518
H31   H     H_    0.484258 0.017523 0.209716 0.169955
H32   H     H_    0.458911 0.837262 0.923346 0.144488
H33   H     H_    0.534278 0.730971 0.899497 0.134729
H34   H     H_    0.284986 0.886454 0.821070 0.124034
H35   H     H_    0.594581 0.648014 0.735231 0.139044
H36   H     H_    0.578063 0.669573 0.595860 0.156149
H37   H     H_    0.503260 0.775163 0.618541 0.137455
H38   H     H_    0.459263 0.230972 0.855082 0.169870
H39   H     H_    0.541953 0.241777 0.892720 0.138525
H40   H     H_    0.586345 0.123760 0.919622 0.187219
H41   H     H_    0.546189 0.995604 0.911966 0.153669
H42   H     H_    0.469690 0.983513 0.860470 0.142321
H43   H     H_    0.565064 0.923645 0.075886 0.114335
H44   H     H_    0.503875 0.878367 0.006973 0.102234
H45   H     H_    0.782268 0.598531 0.829983 0.130039
H46   H     H_    0.425070 0.766121 0.092086 0.132331
H47   H     H_    0.409417 0.697942 0.245064 0.129746
H48   H     H_    0.470831 0.742335 0.314742 0.144386
H49   H     H_    0.074213 0.742056 0.113286 0.144453
H50   H     H_    0.985230 0.784802 0.099199 0.137354
H51   H     H_    0.894143 0.694477 0.141547 0.169423
H52   H     H_    0.895316 0.559388 0.190884 0.228431
H53   H     H_    0.984369 0.517454 0.209485 0.169933
H54   H     H_    0.958921 0.337266 0.923332 0.144509
H55   H     H_    0.034293 0.230986 0.899491 0.134692
H56   H     H_    0.199447 0.350139 0.221752 0.109415
H57   H     H_    0.094611 0.148030 0.735223 0.139063
H58   H     H_    0.078099 0.169576 0.595843 0.156178
H59   H     H_    0.003289 0.275154 0.618516 0.137466
H60   H     H_    0.959324 0.730923 0.855046 0.169961
H61   H     H_    0.041996 0.741657 0.892731 0.138596
H62   H     H_    0.086287 0.623602 0.919752 0.187228
H63   H     H_    0.046041 0.495482 0.912180 0.153510
H64   H     H_    0.969576 0.483455 0.860620 0.142270
H65   H     H_    0.065162 0.423421 0.075827 0.114301
H66   H     H_    0.004000 0.378117 0.006884 0.102241
H67   H     H_    0.217478 0.600888 0.174800 0.112002
H68   H     H_    0.925041 0.266014 0.092197 0.132310
H69   H     H_    0.909207 0.197994 0.245423 0.129724
H70   H     H_    0.970609 0.242400 0.315117 0.144497
H71   H     H_    0.784995 0.386413 0.821039 0.123991
H72   H     H_    0.712063 0.146635 0.322538 0.134161
N1    N     N_R   0.388930 0.078160 0.705470 -0.030772
N2    N     N_R   0.419500 0.922160 0.443350 -0.101126
N3    N     N_R   0.419500 0.077840 0.443350 -0.076575
N4    N     N_R   0.580500 0.922160 0.556650 -0.105790
N5    N     N_R   0.080500 0.577840 0.556650 -0.087277
N6    N     N_R   0.919500 0.422160 0.443350 -0.101125
N7    N     N_R   0.919500 0.577840 0.443350 -0.076528
N8    N     N_R   0.080500 0.422160 0.556650 -0.105776
N9    N     N_R   0.626210 0.077590 0.443410 -0.065798
N10   N     N_R   0.373790 0.922410 0.556590 -0.073332
N11   N     N_R   0.373790 0.077590 0.556590 -0.061991
N12   N     N_R   0.611070 0.921840 0.294530 -0.044284
N13   N     N_R   0.626210 0.922410 0.443410 -0.068574
N14   N     N_R   0.126210 0.577590 0.443410 -0.065808
N15   N     N_R   0.873790 0.422410 0.556590 -0.073334
N16   N     N_R   0.873790 0.577590 0.556590 -0.062020
N17   N     N_R   0.126210 0.422410 0.443410 -0.068569
N18   N     N_R   0.554800 0.077270 0.294580 -0.042266
N19   N     N_R   0.445200 0.922730 0.705420 -0.076609
N20   N     N_R   0.445200 0.077270 0.705420 -0.036687
N21   N     N_R   0.554800 0.922730 0.294580 -0.078577
N22   N     N_R   0.054800 0.577270 0.294580 -0.042260
N23   N     N_R   0.611070 0.078160 0.294530 -0.025865
N24   N     N_R   0.945200 0.422730 0.705420 -0.076598
N25   N     N_R   0.945200 0.577270 0.705420 -0.036655
N26   N     N_R   0.054800 0.422730 0.294580 -0.078567
N27   N     N_R   0.388930 0.921840 0.705470 -0.052986
N28   N     N_R   0.888930 0.578160 0.705470 -0.030804
N29   N     N_R   0.111070 0.421840 0.294530 -0.044275
N30   N     N_R   0.111070 0.578160 0.294530 -0.025862
N31   N     N_R   0.888930 0.421840 0.705470 -0.052989
N32   N     N_R   0.580500 0.077840 0.556650 -0.087284
Ni1   Ni    Ni4+2 0.382710 1.000000 0.629850 0.240152
Ni2   Ni    Ni4+2 0.617290 0.000000 0.370150 0.234140
Ni3   Ni    Ni4+2 0.882710 0.500000 0.629850 0.240143
Ni4   Ni    Ni4+2 0.117290 0.500000 0.370150 0.234126
Ni5   Ni    Ni4+2 0.513020 1.000000 0.629850 0.266219
Ni6   Ni    Ni4+2 0.486980 0.000000 0.370150 0.258157
Ni7   Ni    Ni4+2 0.013020 0.500000 0.629850 0.266276
Ni8   Ni    Ni4+2 0.986980 0.500000 0.370150 0.258208

loop_
_geom_bond_atom_site_label_1
_geom_bond_atom_site_label_2
_ccdc_geom_bond_type
C95   C124  S    
C98   C121  S    
C89   C115  A    
C56   Cl12  S    
N32   Ni5   S    
C57   C92   A    
C74   C132  S    
C19   H50   S    
C67   N13   A    
C41   C42   A    
N13   Ni2   S    
N18   Ni6   S    
C63   Cl23  S    
C48   H21   S    
C69   C96   A    
C128  C129  A    
N19   Ni5   S    
C74   N19   A    
C126  Cl10  S    
C61   C96   A    
C135  C136  A    
N16   Ni3   S    
C72   C98   A    
C2    Cl9   S    
N31   Ni3   S    
C8    H41   S    
C26   C27   A    
C43   C89   S    
C104  N30   A    
N7    Ni8   S    
C61   N6    A    
C23   C29   A    
N8    Ni7   S    
C28   C29   A    
C59   N5    A    
C24   C83   S    
C52   H22   S    
C3    C136  A    
C55   C90   A    
C58   N4    A    
N30   Ni4   S    
C6    H39   S    
C79   C86   A    
C94   C117  S    
C44   C86   S    
N20   Ni5   S    
C20   H51   S    
C66   N11   A    
C71   N27   A    
C15   C16   A    
C13   C81   S    
C7    H40   S    
C48   C54   S    
C113  Cl6   S    
C2    C85   S    
C18   C19   A    
N1    N20   A    
N10   Ni1   S    
C37   C42   A    
C92   C118  S    
C69   H6    S    
N4    Ni5   S    
C39   H66   S    
N19   N27   A    
C114  Cl7   S    
C116  Cl8   S    
C10   C76   S    
C67   H4    S    
C69   N15   A    
C56   C91   A    
C113  C122  A    
C19   C20   A    
C77   C88   A    
C1    N1    A    
C132  C133  A    
C4    C75   S    
C54   H25   S    
C129  H29   S    
N6    N15   A    
C111  Cl4   S    
C67   C94   A    
C127  H27   S    
C62   Cl22  S    
C127  C128  A    
C103  C108  A    
N25   Ni7   S    
C107  C123  A    
C72   N17   A    
N26   Ni8   S    
C108  Cl24  S    
C36   H64   S    
C73   C84   A    
C115  H71   S    
C49   C83   A    
C70   C97   A    
N15   Ni3   S    
C33   H62   S    
C60   H23   S    
C12   H44   S    
C10   C11   A    
C1    H1    S    
N8    N17   A    
C74   C85   A    
C71   C85   A    
C21   C22   A    
C107  H17   S    
C93   H56   S    
C24   C50   D    
C101  C114  A    
C72   H8    S    
C97   C122  S    
C56   N2    A    
C35   Cl15  S    
N14   Ni4   S    
C44   C53   D    
C76   C83   A    
C88   C104  A    
C25   H54   S    
C109  C118  A    
N2    Ni6   S    
C93   N29   A    
C134  H33   S    
C78   C89   A    
C84   C126  S    
C38   C39   A    
C37   C80   S    
C50   C53   S    
C77   N22   A    
C100  H10   S    
C55   N32   A    
C79   N25   A    
C64   C90   A    
C7    C8    A    
C18   H49   S    
N29   Ni4   S    
N7    N16   A    
C51   H24   S    
C58   Cl19  S    
C63   N8    A    
C64   H72   S    
C8    C9    A    
C71   H34   S    
C66   C92   A    
C65   H2    S    
C68   N14   A    
C25   C26   A    
C82   C86   A    
C5    H38   S    
C82   N28   A    
N9    N32   A    
C103  H14   S    
C62   N7    A    
C3    C132  A    
C111  C120  A    
C102  H13   S    
C90   C120  S    
C112  Cl5   S    
C40   H68   S    
C50   H20   S    
C53   H26   S    
C37   C38   A    
N27   Ni1   S    
C61   Cl21  S    
C13   C48   D    
C62   C97   A    
C35   C88   S    
C125  C131  A    
C26   H55   S    
C31   C32   A    
N21   Ni6   S    
C59   Cl20  S    
C17   C77   S    
C17   C18   A    
C31   H60   S    
C105  C121  A    
N5    Ni7   S    
C11   H43   S    
N28   Ni3   S    
N6    Ni8   S    
C76   N21   A    
N3    N11   A    
C68   C95   A    
C6    C7    A    
C43   Cl14  S    
C115  N31   A    
C80   C87   A    
N2    N10   A    
C38   H65   S    
C99   H9    S    
C114  C123  A    
C42   H70   S    
C40   C41   A    
N9    Ni2   S    
C12   C14   A    
C45   C54   D    
C27   H57   S    
C68   H5    S    
N12   N21   A    
C14   H46   S    
C35   C51   D    
C133  C134  A    
C91   C119  S    
N1    Ni1   S    
C22   H53   S    
N26   N29   A    
C80   N26   A    
C44   Cl17  S    
C106  C124  A    
C75   N20   A    
C39   C40   A    
C49   N12   A    
C34   H63   S    
N17   Ni4   S    
C104  H67   S    
C73   N18   A    
C106  C110  A    
N18   N23   A    
C65   C91   A    
C105  C109  A    
C110  Cl3   S    
C28   H58   S    
C116  C124  A    
C96   C123  S    
C45   C87   S    
C128  H28   S    
C101  C120  A    
C107  C111  A    
N4    N13   A    
C46   C126  D    
C75   C81   A    
C100  C113  A    
N11   Ni1   S    
C41   H69   S    
C4    C5    A    
C16   H48   S    
C24   Cl11  S    
C110  C119  A    
C49   H12   S    
C47   C51   S    
C11   C12   A    
C136  H36   S    
C57   N3    A    
C64   N9    A    
N23   Ni2   S    
C131  H31   S    
C2    C47   D    
C63   C98   A    
C57   Cl18  S    
C134  C135  A    
C17   C22   A    
C55   Cl1   S    
C21   H52   S    
C30   C36   A    
N25   N28   A    
C78   N24   A    
C32   C33   A    
C45   Cl16  S    
C130  C131  A    
C129  C130  A    
C65   N10   A    
C13   Cl13  S    
C112  C121  A    
C32   H61   S    
C70   H7    S    
C46   H19   S    
C46   C52   S    
C60   C84   A    
C30   C31   A    
C30   C79   S    
C5    C6    A    
C10   C16   A    
N3    Ni6   S    
C73   C125  S    
C99   C112  A    
C87   C93   A    
N5    N14   A    
N22   Ni8   S    
C47   H18   S    
C3    H37   S    
C34   C36   A    
C33   C34   A    
C66   H3    S    
C101  H11   S    
N12   Ni2   S    
C23   C25   A    
C23   C78   S    
C58   C94   A    
C43   C52   D    
C108  C117  A    
C102  C116  A    
C9    H42   S    
C135  H35   S    
N24   Ni7   S    
C29   H59   S    
C20   C21   A    
N22   N30   A    
C105  H15   S    
N24   N31   A    
C60   N23   A    
C27   C28   A    
C125  C127  A    
C106  H16   S    
C14   C15   A    
C109  Cl2   S    
C59   C95   A    
C100  C117  A    
C4    C9    A    
C103  C122  A    
C1    C81   A    
C82   H45   S    
C15   H47   S    
C102  C119  A    
C130  H30   S    
C133  H32   S    
C70   N16   A    
C99   C118  A    
