data_mof_unit_45104.cif
_audit_creation_date              2012-12-10T20:31:02-0500
_audit_creation_method            fapswitch 2.2
_symmetry_space_group_name_H-M    P1
_symmetry_Int_Tables_number       1
_space_group_crystal_system       triclinic
_cell_length_a                    14.92632
_cell_length_b                    10.658792
_cell_length_c                    9.868449
_cell_angle_alpha                 89.71793
_cell_angle_beta                  89.932419
_cell_angle_gamma                 90.444392
_cell_volume                      1569.96867941

loop_
_atom_site_label
_atom_site_type_symbol
_atom_type_description
_atom_site_fract_x
_atom_site_fract_y
_atom_site_fract_z
_atom_type_partial_charge
C1    C     C_R   0.503031 0.260053 0.500349 0.850866
C2    C     C_R   0.907838 0.595599 0.566381 0.078103
C3    C     C_R   0.954064 0.292795 0.389383 -0.297922
C4    C     C_R   0.047306 0.293253 0.386835 0.508985
C5    C     C_R   0.094226 0.394401 0.444109 -0.001500
C6    C     C_R   0.047541 0.494381 0.505321 0.020540
C7    C     C_R   0.094899 0.594378 0.566601 0.158599
C8    C     C_R   0.049353 0.692911 0.627333 -0.214998
C9    C     C_R   0.956616 0.693940 0.626996 -0.209385
C10   C     C_R   0.187222 0.398249 0.441184 -0.233468
C11   C     C_R   0.232301 0.497941 0.501232 -0.061880
C12   C     C_R   0.327217 0.499547 0.500192 0.892166
C13   C     C_R   0.187503 0.594748 0.565139 -0.277866
C14   C     C_R   0.515633 0.063603 0.623986 -0.015420
C15   C     C_R   0.517818 0.128950 0.501560 -0.137117
C16   C     C_R   0.536747 0.065947 0.380525 -0.199224
C17   C     C_R   0.535535 0.936341 0.380023 -0.223672
C18   C     C_R   0.515904 0.871702 0.500560 -0.072929
C19   C     C_R   0.513877 0.935468 0.623267 0.027586
C20   C     C_3   0.448007 0.925611 0.737418 -0.543806
C21   C     C_3   0.448450 0.068127 0.738414 0.441855
C22   C     C_R   0.446683 0.417969 0.071737 0.020376
C23   C     C_R   0.502261 0.740071 0.499792 0.890092
C24   C     C_R   0.559884 0.572742 0.072853 0.558933
C25   C     C_R   0.560665 0.569475 0.926809 -0.307237
C26   C     C_R   0.444604 0.421605 0.929996 0.244722
C27   C     C_3   0.344337 0.413113 0.926807 0.672630
C28   C     C_3   0.347340 0.402818 0.082513 -0.587439
C29   C     C_R   0.672898 0.499061 0.499855 0.918920
C30   C     C_R   0.814161 0.595944 0.564260 0.118997
C31   C     C_R   0.768567 0.497425 0.499866 -0.160378
C32   C     C_R   0.813351 0.397366 0.437679 0.132155
C33   C     C_R   0.906809 0.394770 0.442864 0.010414
C34   C     C_R   0.953890 0.494911 0.504825 -0.031984
H1    H     H_    0.543552 0.887954 0.284699 0.184907
H2    H     H_    0.382723 0.884521 0.705353 0.164247
H3    H     H_    0.477627 0.881675 0.829243 0.217122
H4    H     H_    0.383319 0.107844 0.705283 0.129703
H5    H     H_    0.608252 0.624284 0.868494 0.180333
H6    H     H_    0.314923 0.480491 0.137812 0.211585
H7    H     H_    0.329641 0.308446 0.123156 0.209975
H8    H     H_    0.919332 0.211764 0.348814 0.195982
H9    H     H_    0.225144 0.323832 0.393910 0.182567
H10   H     H_    0.225003 0.670860 0.611620 0.140286
H11   H     H_    0.085528 0.769830 0.674250 0.144611
H12   H     H_    0.924216 0.773171 0.673544 0.150851
H13   H     H_    0.545829 0.115682 0.285402 0.173820
N1    N     N_R   0.499390 0.499140 0.142800 -0.143331
N2    N     N_R   0.499390 0.499180 0.857150 -0.146800
O1    O     O_R   0.500010 0.316790 0.614690 -0.601240
O2    O     O_R   0.500000 0.316760 0.385350 -0.620440
O3    O     O_R   0.367850 0.499990 0.614680 -0.579763
O4    O     O_R   0.367840 0.499950 0.385340 -0.630386
O5    O     O_R   0.500000 0.683240 0.614650 -0.608519
O6    O     O_R   0.499990 0.683210 0.385310 -0.593540
O7    O     O_R   0.632160 0.500050 0.614660 -0.620612
O8    O     O_R   0.632150 0.500010 0.385320 -0.575723
Zn1   Zn    Zn3+2 0.500010 0.500020 0.653130 0.983755
Zn2   Zn    Zn3+2 0.499990 0.499980 0.346870 0.984534
N3    N     N_2   0.764226 0.694708 0.624991 -0.304954
H14   H     H_    0.784308 0.719701 0.721103 0.211336
C35   C     C_3   0.746944 0.800247 0.536360 -0.774322
H15   H     H_    0.810776 0.846207 0.505058 0.238382
H16   H     H_    0.705477 0.869978 0.590517 0.235720
H17   H     H_    0.709971 0.768879 0.444771 0.258420
O9    O     O_3   0.476113 0.119580 0.865145 -0.559832
C36   C     C_3   0.569924 0.122443 0.884542 -0.280624
H18   H     H_    0.602146 0.191849 0.815242 0.178693
H19   H     H_    0.599987 0.028113 0.872099 0.144457
H20   H     H_    0.583730 0.153235 0.989751 0.166450
O10   O     O_3   0.620105 0.643701 0.148948 -0.565815
C37   C     C_3   0.650084 0.753135 0.081231 -0.390316
H21   H     H_    0.681076 0.816644 0.156884 0.195042
H22   H     H_    0.703020 0.730211 0.006309 0.167432
H23   H     H_    0.593909 0.805041 0.033036 0.152777
N4    N     N_2   0.301849 0.525958 0.871471 -0.286486
H24   H     H_    0.237898 0.513045 0.834732 0.237823
C38   C     C_3   0.314232 0.647080 0.935564 -0.857883
H25   H     H_    0.298112 0.722234 0.861486 0.247349
H26   H     H_    0.384230 0.661621 0.969299 0.245798
H27   H     H_    0.268093 0.656128 0.023198 0.236376
O11   O     O_3   0.318440 0.302825 0.856762 -0.580341
C39   C     C_3   0.231901 0.260781 0.894535 -0.363614
H28   H     H_    0.187905 0.335342 0.935594 0.138261
H29   H     H_    0.237990 0.184226 0.970425 0.183569
H30   H     H_    0.198380 0.221288 0.803815 0.196959
N5    N     N_2   0.764701 0.296608 0.375886 -0.309130
H31   H     H_    0.705374 0.271868 0.422881 0.216442
C40   C     C_3   0.756966 0.304712 0.229780 -0.756143
H32   H     H_    0.716648 0.387318 0.199776 0.273071
H33   H     H_    0.723402 0.218732 0.191117 0.215590
H34   H     H_    0.824083 0.312476 0.181722 0.234386
O12   O     O_3   0.092466 0.190482 0.336923 -0.603701
C41   C     C_3   0.092376 0.197306 0.194303 -0.364464
H35   H     H_    0.132053 0.118014 0.154524 0.196737
H36   H     H_    0.124394 0.285950 0.157938 0.156950
H37   H     H_    0.023374 0.188144 0.152792 0.165969

loop_
_geom_bond_atom_site_label_1
_geom_bond_atom_site_label_2
_ccdc_geom_bond_type
C22   N1    A    
N5    H31   S    
C3    H8    S    
O12   C41   S    
O6    Zn2   S    
C21   O9    S    
C19   C20   S    
O4    Zn2   S    
C7    C8    A    
C26   C27   S    
N1    Zn2   S    
C14   C21   S    
N4    C38   S    
C30   C31   A    
C38   H26   S    
O8    Zn2   S    
C3    C33   A    
C15   C16   A    
C28   H7    S    
N3    C35   S    
C18   C19   A    
C8    H11   S    
C35   H16   S    
C21   H4    S    
C39   H28   S    
C16   C17   A    
C30   N3    S    
C1    C15   S    
C40   H33   S    
C1    O1    A    
C12   O4    A    
C2    C34   A    
O9    C36   S    
C9    H12   S    
C22   C28   S    
C37   H23   S    
C16   H13   S    
C12   O3    A    
C33   C34   A    
C18   C23   S    
C24   N1    A    
C24   C25   A    
C37   H22   S    
C26   N2    A    
C38   H25   S    
C8    C9    A    
C41   H37   S    
C32   N5    S    
N2    Zn1   S    
C36   H18   S    
N3    H14   S    
C36   H19   S    
O1    Zn1   S    
C35   H15   S    
C31   C32   A    
C7    C13   A    
C17   C18   A    
N4    H24   S    
C40   H34   S    
C41   H36   S    
C1    O2    A    
O3    Zn1   S    
C39   H29   S    
C29   O8    A    
N5    C40   S    
O2    Zn2   S    
C3    C4    A    
C23   O5    A    
O5    Zn1   S    
C35   H17   S    
C10   H9    S    
C14   C19   A    
C27   O11   S    
C37   H21   S    
C11   C12   S    
C23   O6    A    
C6    C7    A    
C29   O7    A    
C2    C30   A    
C36   H20   S    
C32   C33   A    
C5    C10   A    
C29   C31   S    
C25   H5    S    
C20   H3    S    
C11   C13   A    
C38   H27   S    
C5    C6    A    
O7    Zn1   S    
C41   H35   S    
C25   N2    A    
C10   C11   A    
C4    O12   S    
C20   H2    S    
C6    C34   A    
C4    C5    A    
C39   H30   S    
O10   C37   S    
C20   C21   S    
O11   C39   S    
C22   C26   A    
C27   C28   S    
C28   H6    S    
C14   C15   A    
C17   H1    S    
C40   H32   S    
C2    C9    A    
C13   H10   S    
C27   N4    S    
C24   O10   S    
