data_mof_unit_44055.cif
_audit_creation_date              2012-12-10T16:50:11-0500
_audit_creation_method            fapswitch 2.2
_symmetry_space_group_name_H-M    P1
_symmetry_Int_Tables_number       1
_space_group_crystal_system       triclinic
_cell_length_a                    23.434626
_cell_length_b                    8.782281
_cell_length_c                    7.541972
_cell_angle_alpha                 103.955205
_cell_angle_beta                  91.069076
_cell_angle_gamma                 93.086002
_cell_volume                      1503.40864803

loop_
_atom_site_label
_atom_site_type_symbol
_atom_type_description
_atom_site_fract_x
_atom_site_fract_y
_atom_site_fract_z
_atom_type_partial_charge
C1    C     C_R   0.497093 0.199920 0.453240 0.896110
C2    C     C_R   0.500628 0.799949 0.547420 0.839867
C3    C     C_R   0.235974 0.576064 0.553308 -0.161898
C4    C     C_R   0.754939 0.366272 0.354259 -0.178100
C5    C     C_R   0.295127 0.601421 0.553633 -0.013194
C6    C     C_R   0.695671 0.370497 0.364212 0.018309
C7    C     C_R   0.329249 0.471986 0.519270 -0.078293
C8    C     C_R   0.671575 0.503844 0.472573 -0.087360
C9    C     C_R   0.304274 0.319364 0.504044 0.180210
C10   C     C_R   0.707605 0.637985 0.552084 0.182369
C11   C     C_R   0.244155 0.293786 0.515823 0.083196
C12   C     C_R   0.766527 0.641792 0.510535 0.109289
C13   C     C_R   0.209353 0.425991 0.538187 0.257861
C14   C     C_R   0.791916 0.496885 0.433949 0.236113
C15   C     C_2   0.493614 0.031223 0.429140 -0.300246
C16   C     C_2   0.500207 0.968453 0.573115 -0.330910
C17   C     C_R   0.391460 0.494984 0.506019 0.846435
C18   C     C_R   0.608858 0.504166 0.493552 0.825435
C19   C     C_R   0.883296 0.556636 0.612454 0.510317
C20   C     C_R   0.115102 0.311218 0.412369 0.527118
C21   C     C_R   0.881921 0.368702 0.328180 0.549891
C22   C     C_R   0.120418 0.522738 0.678318 0.537578
C23   C     C_R   0.938303 0.334909 0.366588 -0.053140
C24   C     C_R   0.061447 0.540847 0.660485 -0.052128
C25   C     C_R   0.970046 0.441538 0.506721 -0.046230
C26   C     C_R   0.028890 0.427828 0.528968 -0.050139
C27   C     C_R   0.943236 0.565565 0.618788 -0.033452
C28   C     C_R   0.055186 0.301618 0.417893 -0.042411
C29   C     C_R   0.963291 0.197363 0.273118 -0.201504
C30   C     C_R   0.035313 0.674772 0.759268 -0.196311
C31   C     C_R   0.020842 0.173460 0.311546 0.126605
C32   C     C_R   0.976748 0.693978 0.729192 0.125508
Cu1   Cu    Cu3+1 0.506340 0.517380 0.684380 1.086036
Cu2   Cu    Cu3+1 0.493660 0.482620 0.315620 1.066700
H1    H     H_    0.937028 0.105760 0.181149 0.168987
H2    H     H_    0.061435 0.768908 0.848020 0.171645
H3    H     H_    0.210142 0.676766 0.573465 0.169903
H4    H     H_    0.771639 0.254566 0.292590 0.199740
H5    H     H_    0.486759 0.958174 0.291134 0.188194
H6    H     H_    0.506812 0.041464 0.711213 0.199332
N1    N     N_R   0.853359 0.476450 0.455378 -0.442404
N2    N     N_R   0.147295 0.414330 0.547902 -0.444674
N3    N     N_2   0.484110 0.456420 0.038520 0.055784
N4    N     N_2   0.515890 0.543580 0.961480 0.058618
O1    O     O_R   0.504120 0.286130 0.619770 -0.558960
O2    O     O_R   0.495880 0.713870 0.380230 -0.568197
O3    O     O_R   0.493410 0.256770 0.308360 -0.571926
O4    O     O_R   0.506590 0.743230 0.691640 -0.561646
O5    O     O_R   0.423230 0.514630 0.655730 -0.553004
O6    O     O_R   0.576770 0.485370 0.344270 -0.568637
O7    O     O_R   0.412530 0.485280 0.344320 -0.547872
O8    O     O_R   0.587470 0.514720 0.655680 -0.523900
O9    O     O_2   0.855823 0.621172 0.765195 -0.542829
O10   O     O_2   0.140332 0.226062 0.265519 -0.563399
O11   O     O_2   0.857286 0.296530 0.164528 -0.557294
O12   O     O_2   0.150690 0.615767 0.821535 -0.567393
C33   C     C_3   0.043674 0.009942 0.272990 -0.380009
C34   C     C_3   0.998491 0.875382 0.268176 -0.418471
C35   C     C_3   0.026212 0.721323 0.263923 -0.788440
H7    H     H_    0.054287 0.690416 0.145331 0.270050
H8    H     H_    0.052063 0.731404 0.391400 0.249405
H9    H     H_    0.992448 0.625484 0.251265 0.257496
H10   H     H_    0.971273 0.904294 0.388926 0.233162
H11   H     H_    0.970515 0.856988 0.145375 0.233341
H12   H     H_    0.067868 0.986815 0.145936 0.212340
H13   H     H_    0.074639 0.008367 0.385859 0.209716
C36   C     C_3   0.952747 0.856920 0.773480 -0.385044
C37   C     C_3   0.997085 0.994891 0.783042 -0.419974
C38   C     C_3   0.968799 0.146313 0.777292 -0.781761
H14   H     H_    0.947775 0.134942 0.641529 0.247618
H15   H     H_    0.936408 0.173411 0.883958 0.283178
H16   H     H_    0.001716 0.245464 0.801566 0.256031
H17   H     H_    0.022697 0.017255 0.910886 0.233985
H18   H     H_    0.026652 0.966697 0.668011 0.231692
H19   H     H_    0.922508 0.861249 0.661221 0.198083
H20   H     H_    0.927382 0.875593 0.898233 0.212723
C39   C     C_3   0.320751 0.767852 0.615943 -0.383904
C40   C     C_3   0.330786 0.809339 0.824261 -0.377955
C41   C     C_3   0.357153 0.975561 0.894355 -0.698028
H21   H     H_    0.398844 0.987764 0.830034 0.278531
H22   H     H_    0.327898 0.061648 0.863015 0.281482
H23   H     H_    0.364441 0.000941 0.044790 0.261966
H24   H     H_    0.289419 0.799470 0.891847 0.243926
H25   H     H_    0.359834 0.726254 0.863661 0.252054
H26   H     H_    0.361339 0.782887 0.546512 0.206241
H27   H     H_    0.291082 0.850421 0.579449 0.223209
C42   C     C_3   0.660667 0.219669 0.283944 -0.383049
C43   C     C_3   0.645543 0.137337 0.435382 -0.411065
C44   C     C_3   0.628012 0.965776 0.353851 -0.718564
H28   H     H_    0.592756 0.957588 0.251377 0.276507
H29   H     H_    0.664654 0.903170 0.286066 0.274088
H30   H     H_    0.613246 0.909027 0.462158 0.265391
H31   H     H_    0.682384 0.146732 0.532450 0.245518
H32   H     H_    0.610185 0.194816 0.515489 0.223268
H33   H     H_    0.621477 0.240791 0.210996 0.226930
H34   H     H_    0.685413 0.141196 0.178421 0.234002
Br1   Br    Br    0.354734 0.149879 0.483417 -0.617318
Br2   Br    Br    0.677805 0.805647 0.735611 -0.542031
C45   C     C_3   0.219209 0.130105 0.519797 -0.326681
C46   C     C_3   0.224865 0.005702 0.336720 -0.272836
C47   C     C_3   0.182246 0.863267 0.313795 -0.829903
H35   H     H_    0.161970 0.857790 0.444168 0.233404
H36   H     H_    0.148644 0.867160 0.210351 0.274855
H37   H     H_    0.204187 0.752839 0.262584 0.259555
H38   H     H_    0.220325 0.058377 0.217816 0.266443
H39   H     H_    0.267880 0.959602 0.328102 0.231860
H40   H     H_    0.241426 0.091089 0.630985 0.189939
H41   H     H_    0.173935 0.134078 0.559217 0.195546
C48   C     C_3   0.802895 0.795653 0.556608 -0.336023
C49   C     C_3   0.781593 0.926288 0.475988 -0.386163
C50   C     C_3   0.821690 0.073947 0.539280 -0.810598
H42   H     H_    0.838308 0.087725 0.681547 0.273898
H43   H     H_    0.858303 0.068411 0.447152 0.241503
H44   H     H_    0.798367 0.179779 0.540651 0.254926
H45   H     H_    0.779386 0.888908 0.324159 0.241350
H46   H     H_    0.738693 0.954695 0.524087 0.265497
H47   H     H_    0.806757 0.839411 0.707653 0.262794
H48   H     H_    0.845474 0.775480 0.498210 0.187349
Br3   Br    Br    0.418112 0.343553 0.922931 -0.379900
Br4   Br    Br    0.585521 0.638923 0.067872 -0.372836

loop_
_geom_bond_atom_site_label_1
_geom_bond_atom_site_label_2
_ccdc_geom_bond_type
C42   C43   S    
C47   H35   S    
Cu1   O1    S    
C50   H42   S    
C33   H13   S    
C17   O7    A    
C48   H47   S    
C39   C40   S    
C2    O2    A    
Cu1   O8    S    
C45   H41   S    
Cu2   O7    S    
C23   C29   A    
C24   C26   A    
N4    Br4   S    
C37   H18   S    
C15   C16   D    
C11   C45   S    
C38   H15   S    
C49   C50   S    
C13   N2    S    
C40   H24   S    
C37   C38   S    
C7    C17   S    
C42   H33   S    
Cu2   O2    S    
C44   H29   S    
C2    C16   S    
C3    C13   A    
C10   Br2   S    
C19   O9    S    
C39   H26   S    
C35   H7    S    
C47   H36   S    
C12   C48   S    
C48   H48   S    
C34   H11   S    
C43   H32   S    
C35   H8    S    
Cu2   O6    S    
C18   O8    A    
C36   C37   S    
C20   O10   S    
C17   O5    A    
C5    C7    A    
C40   C41   S    
C1    O3    A    
C6    C8    A    
C20   C28   A    
C2    O4    A    
C37   H17   S    
C8    C18   S    
C6    C42   S    
C38   H16   S    
N3    N4    D    
C45   C46   S    
C42   H34   S    
Cu1   Cu2   S    
C46   H38   S    
C50   H43   S    
C44   H30   S    
C9    C11   A    
C15   H5    S    
C10   C12   A    
C16   H6    S    
C32   C36   S    
C1    C15   S    
C4    C6    A    
C12   C14   A    
C39   H27   S    
C47   H37   S    
C21   C23   A    
C21   N1    A    
C34   C35   S    
C36   H19   S    
C5    C39   S    
C49   H46   S    
C19   C27   A    
C18   O6    A    
C21   O11   S    
C34   H10   S    
C7    C9    A    
C43   H31   S    
C35   H9    S    
C9    Br1   S    
C27   C32   A    
Cu1   N4    S    
C46   H39   S    
C28   C31   A    
Cu2   N3    S    
C33   H12   S    
C3    C5    A    
C41   H23   S    
C20   N2    A    
C41   H22   S    
Cu2   O3    S    
C25   C27   A    
C45   H40   S    
C29   H1    S    
C26   C28   A    
C22   O12   S    
C30   H2    S    
C31   C33   S    
C25   C26   A    
C29   C31   A    
C48   C49   S    
C30   C32   A    
C11   C13   A    
C1    O1    A    
C33   C34   S    
C22   N2    A    
C14   N1    S    
C46   C47   S    
C50   H44   S    
C22   C24   A    
C23   C25   A    
C4    C14   A    
C38   H14   S    
C24   C30   A    
C41   H21   S    
C40   H25   S    
C43   C44   S    
C3    H3    S    
C8    C10   A    
Cu1   O4    S    
C36   H20   S    
C44   H28   S    
C4    H4    S    
Cu1   O5    S    
C49   H45   S    
C19   N1    A    
N3    Br3   S    
