data_mof_unit_45436.cif
_audit_creation_date              2012-12-10T17:40:29-0500
_audit_creation_method            fapswitch 2.2
_symmetry_space_group_name_H-M    P1
_symmetry_Int_Tables_number       1
_space_group_crystal_system       triclinic
_cell_length_a                    13.696146
_cell_length_b                    15.086296
_cell_length_c                    15.873369
_cell_angle_alpha                 89.888139
_cell_angle_beta                  70.170578
_cell_angle_gamma                 89.991589
_cell_volume                      3085.34304065

loop_
_atom_site_label
_atom_site_type_symbol
_atom_type_description
_atom_site_fract_x
_atom_site_fract_y
_atom_site_fract_z
_atom_type_partial_charge
C1    C     C_R   0.500045 0.671539 0.499862 0.820725
C2    C     C_R   0.499955 0.328460 0.500139 0.820716
C3    C     C_R   0.374846 0.530907 0.094210 -0.220440
C4    C     C_R   0.626459 0.524190 0.905034 -0.222461
C5    C     C_R   0.303696 0.532444 0.049472 -0.229622
C6    C     C_R   0.697632 0.524549 0.949758 -0.230624
C7    C     C_R   0.588256 0.185218 0.501409 -0.245370
C8    C     C_R   0.411743 0.814776 0.498593 -0.245158
C9    C     C_R   0.499902 0.231603 0.500264 -0.077267
C10   C     C_R   0.500096 0.768392 0.499739 -0.076548
C11   C     C_R   0.411524 0.185251 0.499168 -0.245190
C12   C     C_R   0.588473 0.814743 0.500838 -0.244931
C13   C     C_R   0.410956 0.092896 0.499035 0.107537
C14   C     C_R   0.589041 0.907097 0.500972 0.107534
C15   C     C_R   0.499965 0.046463 0.500090 0.063512
C16   C     C_R   0.500032 0.953530 0.499916 0.063498
C17   C     C_R   0.588909 0.092862 0.501315 0.107714
C18   C     C_R   0.411089 0.907131 0.498689 0.107717
C19   C     C_R   0.322955 0.046238 0.497810 -0.211219
C20   C     C_R   0.677042 0.953754 0.502197 -0.211260
C21   C     C_R   0.323026 0.953822 0.497627 -0.211379
C22   C     C_R   0.676972 0.046171 0.502378 -0.211329
C23   C     C_R   0.437271 0.500503 0.672283 0.803422
C24   C     C_R   0.562727 0.500710 0.327722 0.804452
C25   C     C_R   0.230746 0.550191 0.438587 0.003595
C26   C     C_R   0.769286 0.449767 0.561360 0.003379
C27   C     C_R   0.182515 0.450028 0.561556 -0.000186
C28   C     C_R   0.817487 0.549962 0.438420 0.000417
C29   C     C_R   0.078846 0.448876 0.563067 -0.003830
C30   C     C_R   0.921180 0.551087 0.436864 -0.002962
C31   C     C_R   0.051823 0.500001 0.499983 0.089372
C32   C     C_R   0.948209 0.499964 0.499945 0.089160
C33   C     C_R   0.128361 0.551169 0.436941 -0.005178
C34   C     C_R   0.871683 0.448772 0.562970 -0.006635
C35   C     C_R   0.001894 0.398024 0.625848 -0.207413
C36   C     C_R   0.998159 0.601877 0.374025 -0.207291
C37   C     C_R   0.899259 0.397984 0.625811 -0.210078
C38   C     C_R   0.100811 0.601892 0.374038 -0.211024
C39   C     C_R   0.400459 0.505681 0.770442 -0.053782
C40   C     C_R   0.599609 0.505532 0.229527 -0.053381
C41   C     C_R   0.263229 0.523259 0.913068 -0.196885
C42   C     C_R   0.737590 0.517011 0.086498 -0.197098
C43   C     C_R   0.294938 0.514847 0.820305 -0.194524
C44   C     C_R   0.705495 0.510762 0.179470 -0.194527
C45   C     C_R   0.473582 0.504782 0.814178 -0.249095
C46   C     C_R   0.526442 0.507332 0.185837 -0.252727
C47   C     C_R   0.444179 0.516898 0.907157 0.089412
C48   C     C_R   0.556477 0.517040 0.092505 0.089139
C49   C     C_R   0.336779 0.524156 0.956784 0.166293
C50   C     C_R   0.664151 0.519587 0.042711 0.166711
C51   C     C_R   0.518229 0.520404 0.952111 0.065915
C52   C     C_R   0.482692 0.522177 0.047374 0.066958
Cu1   Cu    Cu3+1 0.402580 0.500010 0.499990 0.938535
Cu2   Cu    Cu3+1 0.597420 0.499990 0.500010 0.938773
H1    H     H_    0.221886 0.539476 0.087977 0.142166
H2    H     H_    0.779748 0.527773 0.911052 0.143459
H3    H     H_    0.290285 0.589585 0.390826 0.125333
H4    H     H_    0.709764 0.410343 0.609098 0.125459
H5    H     H_    0.021058 0.358282 0.674979 0.136633
H6    H     H_    0.979008 0.641579 0.324860 0.135238
H7    H     H_    0.841469 0.358240 0.674941 0.137752
H8    H     H_    0.158632 0.641558 0.324842 0.135277
H9    H     H_    0.446180 0.498989 0.226169 0.151623
H10   H     H_    0.553230 0.492897 0.774113 0.147632
H11   H     H_    0.763365 0.509693 0.212015 0.151057
H12   H     H_    0.237094 0.515687 0.787730 0.152491
H13   H     H_    0.342549 0.539552 0.165687 0.139196
H14   H     H_    0.659259 0.529705 0.833249 0.145073
H15   H     H_    0.656631 0.220845 0.502364 0.156375
H16   H     H_    0.343370 0.779148 0.497634 0.156202
H17   H     H_    0.343105 0.220902 0.498327 0.156903
H18   H     H_    0.656891 0.779091 0.501680 0.156725
H19   H     H_    0.254169 0.081214 0.496982 0.143880
H20   H     H_    0.745828 0.918779 0.503025 0.143754
H21   H     H_    0.254288 0.918872 0.496672 0.143627
H22   H     H_    0.745709 0.081120 0.503333 0.143740
N1    N     N_R   0.256170 0.500070 0.500040 -0.181171
N2    N     N_R   0.743830 0.499930 0.499960 -0.181058
O1    O     O_R   0.417730 0.629750 0.499970 -0.586675
O2    O     O_R   0.582270 0.370250 0.500030 -0.586289
O3    O     O_R   0.582270 0.629730 0.499980 -0.586064
O4    O     O_R   0.417730 0.370270 0.500020 -0.585714
O5    O     O_R   0.371590 0.500020 0.629830 -0.588000
O6    O     O_R   0.628410 0.499980 0.370170 -0.587503
O7    O     O_R   0.536130 0.499990 0.629840 -0.590116
O8    O     O_R   0.463870 0.500010 0.370160 -0.590350
H23   H     H_    0.204646 0.410892 0.609418 0.124378
H24   H     H_    0.795345 0.589096 0.390561 0.123293
H25   H     H_    0.181122 0.529558 0.950688 0.130365
H26   H     H_    0.819951 0.519872 0.048726 0.130231

loop_
_geom_bond_atom_site_label_1
_geom_bond_atom_site_label_2
_ccdc_geom_bond_type
C41   H25   S    
C27   C29   A    
C34   C37   A    
C22   H22   S    
Cu2   O6    S    
C47   C49   A    
Cu1   Cu2   S    
C40   C46   A    
C26   N2    A    
C23   O5    A    
C25   N1    A    
Cu1   O1    S    
C11   H17   S    
C1    O3    A    
C15   C16   A    
C18   C21   A    
C35   H5    S    
C27   N1    A    
C26   C34   A    
C7    C17   A    
C28   H24   S    
C31   C33   A    
Cu1   O8    S    
C28   N2    A    
C39   C45   A    
C48   C50   A    
C12   H18   S    
C41   C43   A    
C5    C49   A    
C44   H11   S    
C42   C44   A    
C41   C49   A    
Cu2   O2    S    
C45   C47   A    
C39   C43   A    
C46   C48   A    
C13   C19   A    
C4    C51   A    
C51   C52   A    
C25   H3    S    
C14   C20   A    
C19   H19   S    
C4    C6    A    
C6    H2    S    
C4    H14   S    
C47   C51   A    
C36   H6    S    
C8    C18   A    
C38   H8    S    
Cu1   O4    S    
C42   H26   S    
C32   C34   A    
Cu1   N1    S    
C26   H4    S    
C31   C32   A    
C40   C44   A    
C20   H20   S    
C6    C50   A    
C27   H23   S    
C9    C11   A    
C10   C12   A    
C42   C50   A    
C16   C18   A    
C20   C22   A    
C13   C15   A    
C1    O1    A    
C14   C16   A    
C2    O4    A    
C15   C17   A    
C29   C35   A    
C35   C37   A    
C5    H1    S    
C3    H13   S    
C1    C10   S    
C33   C38   A    
C12   C14   A    
C3    C5    A    
C7    H15   S    
Cu2   O7    S    
C37   H7    S    
C3    C52   A    
C21   H21   S    
C45   H10   S    
C8    H16   S    
C17   C22   A    
C30   C36   A    
C46   H9    S    
Cu1   O5    S    
C28   C30   A    
C24   O6    A    
C29   C31   A    
C30   C32   A    
C11   C13   A    
C43   H12   S    
C23   C39   S    
C36   C38   A    
C24   C40   S    
C2    O2    A    
C7    C9    A    
C48   C52   A    
C8    C10   A    
C23   O7    A    
Cu2   N2    S    
C2    C9    S    
C24   O8    A    
Cu2   O3    S    
C25   C33   A    
C19   C21   A    
