data_mof_unit_15814.cif
_audit_creation_date              2012-12-10T16:51:29-0500
_audit_creation_method            fapswitch 2.2
_symmetry_space_group_name_H-M    P1
_symmetry_Int_Tables_number       1
_space_group_crystal_system       triclinic
_cell_length_a                    8.054086
_cell_length_b                    8.778904
_cell_length_c                    13.264771
_cell_angle_alpha                 92.947769
_cell_angle_beta                  107.857694
_cell_angle_gamma                 92.102952
_cell_volume                      890.17235094

loop_
_atom_site_label
_atom_site_type_symbol
_atom_type_description
_atom_site_fract_x
_atom_site_fract_y
_atom_site_fract_z
_atom_type_partial_charge
C1    C     C_R   0.039452 0.792482 0.494440 0.985581
C2    C     C_R   0.194060 0.492519 0.817381 -0.094545
C3    C     C_2   0.045662 0.953577 0.479454 -0.504768
C4    C     C_R   0.115464 0.500605 0.704944 0.874488
C5    C     C_2   0.951365 0.046885 0.519862 0.321780
C6    C     C_R   0.959797 0.207598 0.504390 0.807997
C7    C     C_R   0.883428 0.481924 0.294285 0.858314
C8    C     C_R   0.852192 0.421610 0.009250 -0.332158
C9    C     C_R   0.808153 0.454132 0.180106 -0.201727
C10   C     C_R   0.148376 0.603027 0.881503 -0.349667
C11   C     C_R   0.209569 0.596597 0.989836 -0.190973
C12   C     C_R   0.393822 0.396539 0.975145 -0.060588
C13   C     C_R   0.295468 0.468168 0.032121 0.505734
C14   C     C_3   0.019851 0.730693 0.177115 0.102621
C15   C     C_3   0.190590 0.826626 0.225887 -0.391705
C16   C     C_3   0.346898 0.738783 0.286041 -0.652486
C17   C     C_3   0.692322 0.999945 0.550605 0.115219
C18   C     C_3   0.625673 0.079244 0.633520 -0.374285
C19   C     C_3   0.429157 0.060131 0.601522 -0.985732
C20   C     C_3   0.622761 0.687064 0.681502 0.182692
C21   C     C_3   0.652813 0.678231 0.800459 -0.353328
C22   C     C_3   0.700412 0.832886 0.862298 -1.016345
C23   C     C_R   0.335039 0.398760 0.863679 -0.000758
C24   C     C_3   0.242346 0.262480 0.118718 0.089841
C25   C     C_3   0.239031 0.211008 0.225634 -0.308148
C26   C     C_3   0.410241 0.145462 0.288922 -0.983734
C27   C     C_R   0.568536 0.366133 0.027111 0.094774
C28   C     C_R   0.682408 0.357811 0.965762 0.090785
C29   C     C_R   0.615212 0.315979 0.857770 -0.226044
C30   C     C_R   0.437521 0.328893 0.806953 -0.172682
C31   C     C_R   0.642029 0.388299 0.137535 -0.345017
C32   C     C_R   0.904460 0.489815 0.112989 0.531065
H1    H     H_    0.446203 0.430547 0.397284 0.163717
H2    H     H_    0.942108 0.783652 0.104408 0.079981
H3    H     H_    0.223902 0.885851 0.162175 0.187836
H4    H     H_    0.167206 0.911610 0.283177 0.184486
H5    H     H_    0.309519 0.663110 0.340061 0.290398
H6    H     H_    0.454249 0.819558 0.334363 0.180373
H7    H     H_    0.397640 0.671344 0.230208 0.279585
H8    H     H_    0.637209 0.880922 0.531362 0.144477
H9    H     H_    0.644093 0.056812 0.475047 0.134027
H10   H     H_    0.684014 0.030779 0.710766 0.233940
H11   H     H_    0.666337 0.202620 0.642128 0.263442
H12   H     H_    0.702327 0.296175 0.811257 0.163048
H13   H     H_    0.376091 0.152227 0.549645 0.310877
H14   H     H_    0.382766 0.063031 0.672001 0.270456
H15   H     H_    0.382639 0.949368 0.556790 0.267628
H16   H     H_    0.516583 0.764635 0.651081 0.148869
H17   H     H_    0.745965 0.730260 0.669248 0.183425
H18   H     H_    0.531700 0.631479 0.812994 0.257893
H19   H     H_    0.759520 0.601040 0.832307 0.236335
H20   H     H_    0.719926 0.817532 0.947489 0.266283
H21   H     H_    0.823270 0.883962 0.853900 0.265184
H22   H     H_    0.592191 0.910597 0.834857 0.278738
H23   H     H_    0.933586 0.430990 0.958948 0.168065
H24   H     H_    0.331606 0.190910 0.089668 0.130567
H25   H     H_    0.110009 0.239680 0.060858 0.107547
H26   H     H_    0.214292 0.307491 0.273311 0.285684
H27   H     H_    0.126939 0.127835 0.212549 0.151284
H28   H     H_    0.451379 0.055331 0.241495 0.258628
H29   H     H_    0.390244 0.097565 0.360132 0.256666
H30   H     H_    0.518439 0.233773 0.315596 0.268606
H31   H     H_    0.571011 0.367135 0.191558 0.238707
H32   H     H_    0.064483 0.693354 0.847866 0.184264
H33   H     H_    0.176354 0.685657 0.036330 0.204735
H34   H     H_    0.393665 0.308231 0.722517 0.221252
H35   H     H_    0.120892 0.995757 0.430719 0.130584
H36   H     H_    0.944522 0.737144 0.234481 0.097076
N1    N     N_2   0.434800 0.456690 0.470850 -0.123727
N2    N     N_2   0.565200 0.543310 0.529150 0.060909
O1    O     O_R   0.893060 0.738880 0.507150 -0.603122
O2    O     O_3   0.874869 0.997301 0.592961 -0.639234
O3    O     O_3   0.568479 0.541205 0.631326 -0.529407
O4    O     O_3   0.291515 0.420884 0.128949 -0.612458
O5    O     O_R   0.172250 0.711130 0.488470 -0.643630
O6    O     O_R   0.944700 0.520730 0.667600 -0.607381
O7    O     O_R   0.223890 0.492980 0.648920 -0.598005
O8    O     O_R   0.827750 0.288870 0.511530 -0.627612
O9    O     O_R   0.106940 0.261120 0.492850 -0.657438
O10   O     O_R   0.776110 0.507020 0.351080 -0.651610
O11   O     O_R   0.055300 0.479270 0.332400 -0.609648
O12   O     O_3   0.056031 0.579820 0.151601 -0.573001
Zn1   Zn    Zn3+2 0.813580 0.518530 0.512470 0.954438
Zn2   Zn    Zn3+2 0.186420 0.481470 0.487530 0.950061

loop_
_geom_bond_atom_site_label_1
_geom_bond_atom_site_label_2
_ccdc_geom_bond_type
C19   H14   S    
C22   H22   S    
C12   C23   A    
C1    O1    A    
C28   C29   A    
C26   H29   S    
C5    O2    S    
C18   H10   S    
O9    Zn2   S    
C19   H15   S    
O5    Zn2   S    
C6    O8    A    
C15   C16   S    
C8    H23   S    
C18   C19   S    
C9    C32   A    
O8    Zn1   S    
C24   H25   S    
H1    N1    S    
C16   H5    S    
C21   C22   S    
O10   Zn1   S    
O6    Zn1   S    
C15   H3    S    
C21   H18   S    
C22   H21   S    
O1    Zn1   S    
C10   H32   S    
C12   C27   A    
C27   C31   A    
C8    C32   A    
C23   C30   A    
C31   H31   S    
C24   C25   S    
O7    Zn2   S    
C25   C26   S    
C1    C3    S    
C17   H8    S    
C1    O5    A    
C2    C4    S    
C29   C30   A    
C20   H17   S    
C2    C23   A    
N2    O3    S    
C17   C18   S    
C20   H16   S    
C12   C13   A    
N2    Zn1   S    
C30   H34   S    
C7    O11   A    
C29   H12   S    
C8    C28   A    
C25   H26   S    
C14   O12   S    
C2    C10   A    
C15   H4    S    
C21   H19   S    
O11   Zn2   S    
C22   H20   S    
C7    C9    S    
C3    H35   S    
C3    C5    D    
C14   H2    S    
C19   H13   S    
C24   H24   S    
C32   O12   S    
C26   H30   S    
C4    O7    A    
N1    Zn2   S    
C18   H11   S    
C11   C13   A    
C24   O4    S    
C6    O9    A    
C5    C6    S    
C20   O3    S    
N1    N2    D    
C17   H9    S    
C4    O6    A    
C10   C11   A    
C9    C31   A    
C16   H7    S    
C20   C21   S    
C17   O2    S    
C27   C28   A    
C14   H36   S    
C14   C15   S    
C7    O10   A    
C25   H27   S    
C26   H28   S    
C11   H33   S    
C16   H6    S    
C13   O4    S    
