data_mof_unit_42471.cif
_audit_creation_date              2012-12-10T19:11:32-0500
_audit_creation_method            fapswitch 2.2
_symmetry_space_group_name_H-M    P1
_symmetry_Int_Tables_number       1
_space_group_crystal_system       triclinic
_cell_length_a                    10.639178
_cell_length_b                    9.769769
_cell_length_c                    10.485576
_cell_angle_alpha                 90.198565
_cell_angle_beta                  89.130892
_cell_angle_gamma                 89.954789
_cell_volume                      1089.76268965

loop_
_atom_site_label
_atom_site_type_symbol
_atom_type_description
_atom_site_fract_x
_atom_site_fract_y
_atom_site_fract_z
_atom_type_partial_charge
C1    C     C_R   0.257743 0.500014 0.504081 0.857937
C2    C     C_3   0.499684 0.498722 0.122367 0.016151
C3    C     C_3   0.071995 0.624274 0.588006 -0.307884
C4    C     C_3   0.072562 0.366619 0.573511 -0.287492
C5    C     C_3   0.926862 0.625183 0.592945 -0.162561
C6    C     C_3   0.927988 0.361999 0.573465 -0.156350
C7    C     C_3   0.071451 0.508260 0.372118 -0.423322
C8    C     C_3   0.120915 0.499808 0.509330 0.018547
C9    C     C_3   0.877703 0.499131 0.515513 0.019448
C10   C     C_3   0.927512 0.510509 0.375703 -0.413923
C11   C     C_3   0.404057 0.080329 0.409977 -0.208732
C12   C     C_3   0.406969 0.918995 0.406730 -0.212764
C13   C     C_3   0.622620 0.080832 0.452297 -0.283232
C14   C     C_3   0.623774 0.918651 0.455892 -0.279809
C15   C     C_3   0.477867 0.081050 0.628417 -0.051798
C16   C     C_3   0.473404 0.918516 0.627527 -0.064248
C17   C     C_R   0.499590 0.499632 0.257363 0.875667
C18   C     C_R   0.741547 0.499820 0.508052 0.799503
C19   C     C_R   0.501119 0.500376 0.742556 0.840136
C20   C     C_3   0.404373 0.577256 0.043481 -0.167610
C21   C     C_3   0.486657 0.370235 0.039979 -0.166942
C22   C     C_3   0.391369 0.448928 0.958366 -0.172332
C23   C     C_3   0.501647 0.501341 0.877593 0.016699
C24   C     C_3   0.514775 0.629821 0.960061 -0.154170
C25   C     C_3   0.596959 0.422869 0.956543 -0.170130
C26   C     C_3   0.609964 0.551123 0.041690 -0.147095
H1    H     H_    0.302482 0.407785 0.919484 0.153064
H2    H     H_    0.893816 0.607085 0.331478 0.178935
H3    H     H_    0.891445 0.424274 0.316891 0.179077
H4    H     H_    0.420995 0.119704 0.311792 0.128451
H5    H     H_    0.430985 0.884458 0.308070 0.132828
H6    H     H_    0.308471 0.116383 0.436303 0.202146
H7    H     H_    0.311761 0.877251 0.425226 0.197057
H8    H     H_    0.643973 0.116607 0.353683 0.160541
H9    H     H_    0.650288 0.877635 0.360071 0.161421
H10   H     H_    0.560733 0.109761 0.686691 0.045587
H11   H     H_    0.550673 0.883718 0.690374 0.050767
H12   H     H_    0.699838 0.120357 0.512406 0.149259
H13   H     H_    0.698438 0.883754 0.521432 0.150094
H14   H     H_    0.326057 0.639817 0.083774 0.136085
H15   H     H_    0.475067 0.264381 0.076523 0.133527
H16   H     H_    0.527811 0.735698 0.924238 0.118746
H17   H     H_    0.675362 0.359914 0.917439 0.155877
H18   H     H_    0.698817 0.592459 0.080471 0.145925
H19   H     H_    0.103025 0.720318 0.540655 0.211432
H20   H     H_    0.107546 0.275593 0.519578 0.199538
H21   H     H_    0.114670 0.622770 0.684099 0.220449
H22   H     H_    0.111589 0.361207 0.671057 0.238166
H23   H     H_    0.896286 0.720233 0.543796 0.121222
H24   H     H_    0.901259 0.276736 0.508415 0.119327
H25   H     H_    0.107320 0.602317 0.324194 0.176926
H26   H     H_    0.105067 0.418681 0.315121 0.178273
N1    N     N_3   0.499750 0.138610 0.497240 -0.058253
N2    N     N_3   0.499750 0.861390 0.497240 -0.059265
O1    O     O_R   0.314910 0.616040 0.499970 -0.616013
O2    O     O_R   0.314910 0.383960 0.499970 -0.605985
O3    O     O_R   0.500080 0.616020 0.313900 -0.628665
O4    O     O_R   0.500080 0.383980 0.313900 -0.628674
O5    O     O_R   0.685320 0.616040 0.499930 -0.640431
O6    O     O_R   0.685320 0.383960 0.499930 -0.645028
O7    O     O_R   0.500150 0.616060 0.686000 -0.655036
O8    O     O_R   0.500150 0.383940 0.686000 -0.650455
Zn1   Zn    Zn3+2 0.500150 0.654960 0.499940 0.912268
Zn2   Zn    Zn3+2 0.500150 0.345040 0.499940 0.918117
C27   C     C_2   0.368935 0.146658 0.700889 0.500868
H27   H     H_    0.383636 0.184864 0.796843 0.020866
O9    O     O_2   0.263356 0.150619 0.657945 -0.574786
C28   C     C_2   0.356027 0.858310 0.689749 0.474251
H28   H     H_    0.363149 0.803756 0.779173 0.039147
O10   O     O_2   0.252048 0.875390 0.645393 -0.580756
C29   C     C_2   0.870747 0.635141 0.727002 0.415193
H29   H     H_    0.769763 0.645697 0.739224 0.052096
O11   O     O_2   0.935681 0.632875 0.822016 -0.548188
C30   C     C_2   0.869580 0.325808 0.702498 0.389808
H30   H     H_    0.769830 0.304145 0.709278 0.056437
O12   O     O_2   0.931663 0.317947 0.799222 -0.545928

loop_
_geom_bond_atom_site_label_1
_geom_bond_atom_site_label_2
_ccdc_geom_bond_type
C7    C10   S    
C1    C8    S    
C24   H16   S    
C4    C8    S    
C25   H17   S    
C6    C9    S    
C26   H18   S    
C7    C8    S    
C4    H20   S    
C30   O12   D    
C15   N1    S    
C1    O2    A    
C24   C26   S    
C7    H26   S    
C20   H14   S    
N1    Zn2   S    
N2    Zn1   S    
C19   O8    A    
C15   C16   S    
C15   C27   S    
O7    Zn1   S    
O8    Zn2   S    
C14   H13   S    
C20   C24   S    
C11   H4    S    
C28   H28   S    
C27   O9    D    
O1    Zn1   S    
C23   C24   S    
O2    Zn2   S    
O3    Zn1   S    
C16   C28   S    
C9    C10   S    
C11   N1    S    
C16   H11   S    
C21   C22   S    
C2    C17   S    
C5    H23   S    
C6    C30   S    
C13   N1    S    
O4    Zn2   S    
C30   H30   S    
C2    C20   S    
C4    C6    S    
C3    C8    S    
C14   H9    S    
C29   O11   D    
C25   C26   S    
C3    H19   S    
C19   C23   S    
C5    C9    S    
C18   O5    A    
C2    C21   S    
C2    C26   S    
C6    H24   S    
C13   H12   S    
C21   H15   S    
C18   O6    A    
C14   N2    S    
C20   C22   S    
C11   H6    S    
C22   H1    S    
C12   H5    S    
C15   H10   S    
C4    H22   S    
C10   H2    S    
C21   C25   S    
C3    C5    S    
C11   C12   S    
C17   O4    A    
O5    Zn1   S    
O6    Zn2   S    
C1    O1    A    
C7    H25   S    
C13   H8    S    
C5    C29   S    
C10   H3    S    
C19   O7    A    
C3    H21   S    
C23   C25   S    
C16   N2    S    
C9    C18   S    
C29   H29   S    
C28   O10   D    
C27   H27   S    
C22   C23   S    
C12   H7    S    
C13   C14   S    
C12   N2    S    
C17   O3    A    
