data_mof_unit_32806.cif
_audit_creation_date              2012-12-11T15:53:45-0500
_audit_creation_method            fapswitch 2.2
_symmetry_space_group_name_H-M    P1
_symmetry_Int_Tables_number       1
_space_group_crystal_system       triclinic
_cell_length_a                    6.924332
_cell_length_b                    14.552371
_cell_length_c                    15.986216
_cell_angle_alpha                 90.447463
_cell_angle_beta                  90.098375
_cell_angle_gamma                 90.177373
_cell_volume                      1610.79893558

loop_
_atom_site_label
_atom_site_type_symbol
_atom_type_description
_atom_site_fract_x
_atom_site_fract_y
_atom_site_fract_z
_atom_type_partial_charge
O1    O     O_R   0.361600 0.167310 0.164620 -0.538690
O2    O     O_R   0.638400 0.832690 0.835380 -0.538691
O3    O     O_R   0.691080 0.157570 0.338750 -0.547395
O4    O     O_R   0.308920 0.842430 0.661250 -0.547395
O5    O     O_R   0.861410 0.336420 0.339360 -0.541305
O6    O     O_R   0.138590 0.663580 0.660640 -0.541305
C1    C     C_R   0.521976 0.135176 0.367482 0.673675
C2    C     C_R   0.478023 0.864824 0.632518 0.673675
O7    O     O_R   0.691320 0.156280 0.165240 -0.549881
O8    O     O_R   0.308680 0.843720 0.834760 -0.549881
O9    O     O_R   0.861640 0.335130 0.164600 -0.540869
O10   O     O_R   0.138360 0.664870 0.835400 -0.540869
C3    C     C_R   0.521368 0.135497 0.134832 0.708586
C4    C     C_R   0.478632 0.864502 0.865168 0.708586
O11   O     O_R   0.361370 0.168600 0.339370 -0.545961
O12   O     O_R   0.638630 0.831400 0.660630 -0.545961
O13   O     O_3   0.527990 0.310540 0.251980 -0.350642
O14   O     O_3   0.472010 0.689460 0.748020 -0.350642
V1    V     V_3+5 0.802830 0.240980 0.251990 1.415083
V2    V     V_3+5 0.197170 0.759020 0.748010 1.415083
O15   O     O_R   0.191360 0.346160 0.165220 -0.500777
O16   O     O_R   0.808640 0.653840 0.834780 -0.500777
C5    C     C_R   0.022637 0.368368 0.136137 0.779288
C6    C     C_R   0.977363 0.631632 0.863863 0.779288
O17   O     O_R   0.191130 0.347440 0.338740 -0.542098
O18   O     O_R   0.808870 0.652560 0.661260 -0.542098
C7    C     C_R   0.022245 0.369689 0.367688 0.675517
C8    C     C_R   0.977755 0.630310 0.632312 0.675517
V3    V     V_3+5 0.302840 0.262750 0.251990 1.472377
V4    V     V_3+5 0.697160 0.737250 0.748010 1.472377
O19   O     O_3   0.027820 0.193180 0.251990 -0.383654
O20   O     O_3   0.972180 0.806820 0.748010 -0.383654
C9    C     C_3   0.821413 0.472410 0.478731 -0.111379
C10   C     C_3   0.178587 0.527589 0.521268 -0.111380
C11   C     C_3   0.914298 0.461159 0.566295 -0.139088
C12   C     C_3   0.085702 0.538841 0.433705 -0.139088
H1    H     H_    0.843328 0.429475 0.621245 0.114444
H2    H     H_    0.156672 0.570525 0.378755 0.114444
H3    H     H_    0.673578 0.449612 0.461063 0.113780
H4    H     H_    0.326422 0.550388 0.538937 0.113780
C13   C     C_3   0.989107 0.560706 0.562056 -0.007952
C14   C     C_3   0.010893 0.439294 0.437944 -0.007952
C15   C     C_3   0.896351 0.572737 0.475252 -0.144464
C16   C     C_3   0.103649 0.427263 0.524748 -0.144464
H5    H     H_    0.810386 0.632988 0.455242 0.104879
H6    H     H_    0.189614 0.367012 0.544758 0.104879
C17   C     C_R   0.824431 0.512543 0.958050 0.647265
C18   C     C_R   0.175569 0.487457 0.041950 0.647264
C19   C     C_R   0.837398 0.449837 0.023827 -0.270997
C20   C     C_R   0.162602 0.550163 0.976173 -0.270997
H7    H     H_    0.709577 0.411120 0.040571 0.218779
H8    H     H_    0.290422 0.588880 0.959429 0.218779
C21   C     C_R   0.012450 0.436212 0.066771 -0.288295
C22   C     C_R   0.987550 0.563788 0.933229 -0.288295
C23   C     C_R   0.679494 0.025847 0.467719 -0.157384
C24   C     C_R   0.320505 0.974153 0.532281 -0.157384
H9    H     H_    0.820273 0.044626 0.443806 0.116072
H10   H     H_    0.179727 0.955374 0.556194 0.116072
C25   C     C_R   0.668662 0.960716 0.531494 -0.155715
C26   C     C_R   0.331338 0.039283 0.468506 -0.155715
H11   H     H_    0.801575 0.931284 0.554747 0.116914
H12   H     H_    0.198425 0.068716 0.445253 0.116914
C27   C     C_R   0.489024 0.934005 0.564666 -0.042518
C28   C     C_R   0.510976 0.065995 0.435334 -0.042518
C29   C     C_R   0.658872 0.004725 0.053678 -0.196050
C30   C     C_R   0.341128 0.995275 0.946322 -0.196050
H13   H     H_    0.781724 0.007472 0.095737 0.132025
H14   H     H_    0.218276 0.992528 0.904263 0.132025
C31   C     C_R   0.654289 0.937555 0.990174 0.164501
C32   C     C_R   0.345711 0.062445 0.009826 0.164501
C33   C     C_R   0.492832 0.932782 0.934991 -0.098063
C34   C     C_R   0.507168 0.067218 0.065009 -0.098063
F1    F     F_    0.652297 0.521629 0.918292 -0.674354
F2    F     F_    0.347703 0.478371 0.081708 -0.674354
C35   C     C_3   0.821291 0.871171 0.985059 -0.734742
H15   H     H_    0.922387 0.879532 0.038639 0.190814
H16   H     H_    0.767023 0.799292 0.985981 0.202952
H17   H     H_    0.905771 0.883398 0.927259 0.215325
C36   C     C_3   0.178708 0.128829 0.014941 -0.734742
H18   H     H_    0.077613 0.120468 0.961361 0.190814
H19   H     H_    0.094229 0.116602 0.072741 0.215325
H20   H     H_    0.232977 0.200708 0.014019 0.202952

loop_
_geom_bond_atom_site_label_1
_geom_bond_atom_site_label_2
_ccdc_geom_bond_type
C30   H14   S    
O11   V3    S    
C23   C25   A    
O13   V3    S    
C4    C33   S    
C12   C14   S    
O4    C2    A    
V1    O19   S    
C17   C19   A    
O9    V1    S    
C9    H3    S    
C10   H4    S    
C9    C14   S    
C11   H1    S    
O3    C1    A    
C29   C31   A    
O12   V4    S    
C8    C13   S    
C26   H12   S    
O9    C5    A    
C31   C33   A    
O7    C3    A    
O13   V1    S    
O5    C7    A    
O7    V1    S    
O6    C8    A    
O8    V2    S    
C19   H7    S    
C20   H8    S    
O3    V1    S    
O14   V4    S    
C10   C12   S    
C18   C20   A    
C2    O12   A    
C13   C15   S    
C10   C13   S    
C14   C16   S    
C11   C13   S    
C16   H6    S    
C5    C21   S    
O15   C5    A    
O17   V3    S    
C18   C21   A    
C25   H11   S    
C9    C15   S    
C18   F2    S    
C10   C16   S    
C17   F1    S    
O8    C4    A    
C36   H19   S    
C29   H13   S    
O15   V3    S    
C24   C26   A    
C35   H15   S    
C15   H5    S    
C30   C33   A    
C23   C28   A    
O10   V2    S    
O1    V3    S    
C24   C27   A    
C20   C22   A    
C11   C16   S    
C35   H16   S    
C17   C22   A    
O18   V4    S    
C23   H9    S    
O16   C6    A    
O1    C3    A    
V2    O20   S    
O16   V4    S    
C32   C36   S    
C25   C27   A    
C36   H20   S    
O5    V1    S    
C3    C34   S    
O17   C7    A    
C29   C34   A    
O6    V2    S    
O10   C6    A    
O18   C8    A    
O2    V4    S    
C26   C28   A    
C12   H2    S    
V3    O19   S    
V4    O20   S    
C7    C14   S    
C30   C32   A    
C19   C21   A    
C1    O11   A    
C9    C11   S    
C24   H10   S    
C31   C35   S    
O14   V2    S    
O2    C4    A    
C35   H17   S    
C1    C28   S    
C2    C27   S    
C36   H18   S    
O4    V2    S    
C12   C15   S    
C32   C34   A    
C6    C22   S    
