data_mof_unit_43165.cif
_audit_creation_date              2012-12-10T19:28:37-0500
_audit_creation_method            fapswitch 2.2
_symmetry_space_group_name_H-M    P1
_symmetry_Int_Tables_number       1
_space_group_crystal_system       triclinic
_cell_length_a                    27.706076
_cell_length_b                    10.508828
_cell_length_c                    9.770592
_cell_angle_alpha                 88.789103
_cell_angle_beta                  90.365824
_cell_angle_gamma                 90.656998
_cell_volume                      2843.91385184

loop_
_atom_site_label
_atom_site_type_symbol
_atom_type_description
_atom_site_fract_x
_atom_site_fract_y
_atom_site_fract_z
_atom_type_partial_charge
C1    C     C_R   0.501068 0.258063 0.501652 0.940354
C2    C     C_R   0.873175 0.383648 0.506426 -0.033695
C3    C     C_R   0.353297 0.507147 0.494045 -0.086960
C4    C     C_R   0.646693 0.500846 0.504133 -0.051585
C5    C     C_R   0.974899 0.392601 0.480035 0.031691
C6    C     C_R   0.025398 0.626490 0.505518 0.031714
C7    C     C_R   0.975235 0.620425 0.533861 0.003338
C8    C     C_R   0.025036 0.398755 0.451500 0.002909
C9    C     C_R   0.949800 0.504654 0.510617 0.075049
C10   C     C_R   0.050482 0.514355 0.475255 0.073950
C11   C     C_R   0.949812 0.275712 0.490619 -0.118371
C12   C     C_R   0.498932 0.741921 0.498354 0.933450
C13   C     C_R   0.050588 0.743260 0.495088 -0.117522
C14   C     C_R   0.899545 0.269067 0.497614 0.162095
C15   C     C_R   0.100897 0.749563 0.489471 0.162411
C16   C     C_R   0.406087 0.501573 0.499051 0.919326
C17   C     C_R   0.593897 0.500106 0.500721 0.915358
C18   C     C_R   0.050957 0.295328 0.396071 -0.065444
C19   C     C_R   0.949320 0.723948 0.589119 -0.064590
C20   C     C_3   0.505189 0.034319 0.631392 -0.073175
C21   C     C_3   0.494884 0.965607 0.368659 -0.076869
C22   C     C_3   0.541376 0.954253 0.551830 -0.100013
C23   C     C_R   0.101402 0.518453 0.466324 -0.074597
C24   C     C_3   0.458698 0.045657 0.448256 -0.101195
C25   C     C_3   0.498820 0.876479 0.494980 -0.192688
C26   C     C_3   0.501232 0.123477 0.505070 -0.192586
C27   C     C_3   0.462615 0.955672 0.574240 0.075708
C28   C     C_3   0.537463 0.044311 0.425825 0.071989
C29   C     C_3   0.507959 0.386898 0.051674 -0.105208
C30   C     C_3   0.492118 0.613155 0.948392 -0.104446
C31   C     C_3   0.541145 0.462362 0.952436 -0.107248
C32   C     C_3   0.458891 0.537632 0.047573 -0.102230
C33   C     C_3   0.467183 0.425374 0.954138 0.221582
C34   C     C_R   0.898902 0.500222 0.520743 -0.075264
C35   C     C_3   0.532898 0.574552 0.046021 0.226460
C36   C     C_R   0.176747 0.406292 0.448573 0.638615
C37   C     C_R   0.823496 0.611910 0.539996 0.623922
C38   C     C_R   0.178126 0.630379 0.485499 0.637187
C39   C     C_R   0.822214 0.387479 0.505776 0.618681
C40   C     C_R   0.279865 0.533841 0.358664 -0.024449
C41   C     C_R   0.723412 0.492403 0.386028 -0.002224
C42   C     C_R   0.330095 0.528754 0.368233 -0.228439
C43   C     C_R   0.672977 0.489792 0.383474 -0.239618
C44   C     C_R   0.326106 0.491489 0.612925 -0.223800
C45   C     C_R   0.126493 0.405376 0.442409 -0.022243
C46   C     C_R   0.670896 0.512249 0.629555 -0.209329
C47   C     C_R   0.275645 0.493572 0.608178 -0.018005
C48   C     C_R   0.721163 0.510894 0.636505 -0.016137
C49   C     C_R   0.252527 0.514873 0.479711 0.172996
C50   C     C_R   0.747558 0.501955 0.513710 0.174202
C51   C     C_2   0.512225 0.074289 0.776759 1.010242
C52   C     C_2   0.487787 0.925839 0.223231 0.997305
C53   C     C_3   0.419698 0.901412 0.653968 -0.729496
C54   C     C_3   0.580350 0.098665 0.346033 -0.730114
C55   C     C_3   0.428254 0.336498 0.900290 -0.716084
C56   C     C_R   0.873772 0.613201 0.544759 -0.024723
C57   C     C_3   0.572175 0.662104 0.100803 -0.727771
C58   C     C_2   0.248435 0.472506 0.738798 0.963167
C59   C     C_2   0.745043 0.517348 0.773294 0.974725
C60   C     C_2   0.749912 0.485683 0.254204 0.967236
C61   C     C_2   0.257416 0.559353 0.221009 0.980016
C62   C     C_3   0.876220 0.138269 0.496096 -0.671282
C63   C     C_3   0.124376 0.880165 0.490505 -0.680259
C64   C     C_2   0.028172 0.197600 0.307660 0.897830
C65   C     C_2   0.972129 0.822034 0.677016 0.896420
C66   C     C_2   0.587290 0.895565 0.604584 0.946680
C67   C     C_R   0.101222 0.295816 0.404580 -0.185371
C68   C     C_2   0.412600 0.103992 0.396601 0.948064
C69   C     C_R   0.899044 0.723159 0.581306 -0.184543
C70   C     C_R   0.127185 0.634771 0.481976 -0.029857
H1    H     H_    0.344333 0.477229 0.709813 0.191569
H2    H     H_    0.351417 0.542169 0.276406 0.202578
H3    H     H_    0.969374 0.187441 0.495301 0.159522
H4    H     H_    0.031097 0.831629 0.489749 0.159437
H5    H     H_    0.554198 0.166058 0.912880 0.345643
H6    H     H_    0.445722 0.834420 0.087044 0.346837
H7    H     H_    0.398865 0.980273 0.697631 0.275311
H8    H     H_    0.395973 0.846154 0.584508 0.228187
H9    H     H_    0.432538 0.837954 0.738377 0.242364
H10   H     H_    0.601177 0.019860 0.302230 0.272825
H11   H     H_    0.567478 0.162176 0.261710 0.241707
H12   H     H_    0.650513 0.519841 0.723282 0.189099
H13   H     H_    0.604091 0.153894 0.415474 0.228646
H14   H     H_    0.413619 0.277110 0.986005 0.252037
H15   H     H_    0.398642 0.393108 0.855031 0.232097
H16   H     H_    0.443250 0.273842 0.821965 0.261309
H17   H     H_    0.587997 0.719092 0.014958 0.244627
H18   H     H_    0.556984 0.727144 0.176533 0.262078
H19   H     H_    0.601022 0.604839 0.149844 0.233076
H20   H     H_    0.184783 0.469956 0.838587 0.356080
H21   H     H_    0.802689 0.475312 0.892635 0.355344
H22   H     H_    0.810619 0.524942 0.147332 0.351337
H23   H     H_    0.575780 0.431688 0.907865 0.160994
H24   H     H_    0.197391 0.570097 0.103031 0.358925
H25   H     H_    0.903233 0.061214 0.492663 0.231527
H26   H     H_    0.854556 0.121917 0.590171 0.272361
H27   H     H_    0.853287 0.128581 0.403271 0.266235
H28   H     H_    0.097430 0.957521 0.490993 0.232576
H29   H     H_    0.146605 0.890820 0.584542 0.268494
H30   H     H_    0.146803 0.895062 0.397644 0.268458
H31   H     H_    0.976795 0.156054 0.167687 0.359108
H32   H     H_    0.023451 0.864040 0.816987 0.359000
H33   H     H_    0.631756 0.862080 0.765055 0.359777
H34   H     H_    0.424257 0.568347 0.092083 0.163135
H35   H     H_    0.354884 0.211123 0.438956 0.358339
H36   H     H_    0.513911 0.291658 0.099640 0.154150
H37   H     H_    0.486175 0.708418 0.900476 0.155607
H38   H     H_    0.120821 0.213630 0.370630 0.215553
H39   H     H_    0.879454 0.805372 0.615233 0.214858
H40   H     H_    0.654159 0.480279 0.286768 0.185512
N1    N     N_R   0.201112 0.517083 0.472076 -0.318877
N2    N     N_R   0.799103 0.500663 0.518928 -0.323850
N3    N     N_3   0.499960 0.500030 0.863290 -0.094603
N4    N     N_3   0.500040 0.499970 0.136710 -0.094599
O1    O     O_R   0.500000 0.313960 0.616610 -0.610556
O2    O     O_2   0.798924 0.720762 0.556074 -0.538955
O3    O     O_2   0.795446 0.280680 0.491176 -0.553777
O4    O     O_2   0.204960 0.736459 0.504070 -0.555257
O5    O     O_2   0.482870 0.042166 0.863974 -0.617177
O6    O     O_R   0.552730 0.147348 0.811620 -0.760453
O7    O     O_2   0.517159 0.957866 0.136024 -0.616672
O8    O     O_R   0.447197 0.853131 0.188305 -0.760596
O9    O     O_2   0.270142 0.442196 0.843767 -0.586917
O10   O     O_R   0.198393 0.487028 0.743798 -0.814424
O11   O     O_2   0.724294 0.567022 0.868194 -0.588161
O12   O     O_R   0.500000 0.686040 0.383390 -0.611578
O13   O     O_R   0.790643 0.464792 0.795323 -0.803580
O14   O     O_2   0.730348 0.438136 0.154677 -0.588045
O15   O     O_R   0.796743 0.535490 0.242094 -0.803699
O16   O     O_2   0.283029 0.588235 0.123341 -0.586322
O17   O     O_R   0.207492 0.550596 0.201102 -0.814640
O18   O     O_2   0.044404 0.089920 0.305349 -0.645760
O19   O     O_R   0.989065 0.230253 0.223258 -0.775004
O20   O     O_2   0.955965 0.929810 0.678627 -0.645774
O21   O     O_R   0.011159 0.789608 0.761809 -0.774280
O22   O     O_2   0.612559 0.835988 0.526986 -0.628019
O23   O     O_R   0.500020 0.313950 0.383350 -0.626379
O24   O     O_R   0.600512 0.907235 0.741948 -0.765251
O25   O     O_2   0.399774 0.089991 0.277962 -0.579828
O26   O     O_R   0.384860 0.175522 0.485059 -0.812896
O27   O     O_R   0.499980 0.686050 0.616650 -0.626040
O28   O     O_R   0.428750 0.500030 0.616610 -0.623787
O29   O     O_R   0.571250 0.499970 0.383390 -0.628841
O30   O     O_R   0.428770 0.500020 0.383360 -0.616091
O31   O     O_R   0.571230 0.499980 0.616640 -0.617665
O32   O     O_2   0.201348 0.297728 0.430947 -0.546320
Zn1   Zn    Zn3+2 0.499990 0.500010 0.655740 0.975971
Zn2   Zn    Zn3+2 0.500010 0.499990 0.344260 0.975146

loop_
_geom_bond_atom_site_label_1
_geom_bond_atom_site_label_2
_ccdc_geom_bond_type
C33   C55   S    
C29   N4    S    
C38   C70   A    
C3    C42   A    
C34   C56   A    
C23   C45   A    
C62   H26   S    
C30   H37   S    
C1    C26   S    
O23   Zn2   S    
C17   O31   A    
C24   C27   S    
O30   Zn2   S    
C61   O17   S    
C47   C49   A    
C37   O2    S    
C4    C46   A    
C58   O9    D    
C57   H19   S    
C30   C35   S    
C44   H1    S    
C16   O30   A    
C24   C26   S    
C5    C11   A    
C63   H28   S    
C11   C14   A    
C67   H38   S    
C12   O12   A    
C59   O13   S    
C40   C49   A    
C14   C62   S    
O1    Zn1   S    
C12   O27   A    
C35   N4    S    
H32   O21   S    
C22   C66   S    
C37   N2    A    
C63   H29   S    
C47   C58   S    
C46   H12   S    
C37   C56   A    
C69   H39   S    
C2    C39   A    
C64   O18   D    
C29   C33   S    
C22   C25   S    
C45   C67   A    
C51   O5    D    
C32   H34   S    
C19   C65   S    
C43   H40   S    
C65   O20   D    
C44   C47   A    
C49   N1    S    
C2    C34   A    
C40   C42   A    
C22   C28   S    
C62   H25   S    
C41   C43   A    
C23   C70   A    
C52   O8    S    
C50   N2    S    
C54   H13   S    
O31   Zn1   S    
C54   H10   S    
H20   O10   S    
O29   Zn2   S    
C46   C48   A    
C3    C44   A    
C60   O14   D    
C11   H3    S    
H33   O24   S    
C28   C54   S    
C18   C67   A    
C31   H23   S    
C24   C68   S    
C8    C18   A    
C40   C61   S    
C57   H17   S    
C55   H15   S    
C16   O28   A    
C5    C9    A    
C63   H30   S    
C62   H27   S    
C52   O7    D    
C66   O24   S    
C36   N1    A    
C42   H2    S    
C51   O6    S    
C36   C45   A    
C65   O21   S    
H21   O13   S    
C61   O16   D    
C66   O22   D    
C4    C17   S    
C36   O32   S    
C39   N2    A    
C4    C43   A    
C21   C28   S    
C20   C22   S    
C7    C19   A    
C13   C15   A    
C53   H7    S    
C31   C35   S    
C29   H36   S    
C68   O26   S    
C25   C27   S    
C41   C50   A    
C1    O23   A    
C48   C59   S    
C7    C9    A    
C15   C70   A    
C21   C25   S    
C64   O19   S    
O12   Zn2   S    
C53   H9    S    
C33   N3    S    
O28   Zn1   S    
H5    O6    S    
C41   C60   S    
C58   O10   S    
C60   O15   S    
C6    C10   A    
C5    C8    A    
C27   C53   S    
C6    C7    A    
C20   C27   S    
H31   O19   S    
C10   C23   A    
C20   C51   S    
C26   C28   S    
H24   O17   S    
C57   H18   S    
C17   O29   A    
C12   C25   S    
C35   C57   S    
H6    O8    S    
C32   C33   S    
N3    Zn1   S    
C55   H16   S    
H22   O15   S    
C55   H14   S    
N4    Zn2   S    
C29   C31   S    
C39   O3    S    
C59   O11   D    
C6    C13   A    
C30   C32   S    
C18   C64   S    
C9    C34   A    
C20   C26   S    
C48   C50   A    
C53   H8    S    
C21   C52   S    
C2    C14   A    
C19   C69   A    
O27   Zn1   S    
C38   O4    S    
C13   H4    S    
C8    C10   A    
C56   C69   A    
C21   C24   S    
C15   C63   S    
C68   O25   D    
C1    O1    A    
C32   N4    S    
C38   N1    A    
C31   N3    S    
C54   H11   S    
C3    C16   S    
H35   O26   S    
C30   N3    S    
