data_mof_unit_41396.cif
_audit_creation_date              2012-12-10T16:56:34-0500
_audit_creation_method            fapswitch 2.2
_symmetry_space_group_name_H-M    P1
_symmetry_Int_Tables_number       1
_space_group_crystal_system       triclinic
_cell_length_a                    11.022444
_cell_length_b                    10.978771
_cell_length_c                    9.886894
_cell_angle_alpha                 87.344185
_cell_angle_beta                  91.86996
_cell_angle_gamma                 91.053189
_cell_volume                      1194.3495342

loop_
_atom_site_label
_atom_site_type_symbol
_atom_type_description
_atom_site_fract_x
_atom_site_fract_y
_atom_site_fract_z
_atom_type_partial_charge
C1    C     C_R   0.491684 0.265055 0.501709 0.859112
C2    C     C_3   0.877610 0.482745 0.506113 -0.136678
C3    C     C_3   0.922691 0.599622 0.426693 -0.458073
C4    C     C_3   0.922827 0.362854 0.432307 -0.311110
C5    C     C_2   0.447728 0.930026 0.410233 -0.188162
C6    C     C_2   0.529342 0.865044 0.484440 0.384253
C7    C     C_2   0.461303 0.063020 0.394138 -0.064802
C8    C     C_2   0.465937 0.131743 0.505897 -0.142117
C9    C     C_2   0.511894 0.406378 0.933901 0.119322
C10   C     C_2   0.536188 0.414058 0.081369 -0.085313
C11   C     C_R   0.259796 0.499595 0.499278 0.951638
C12   C     C_R   0.508177 0.733325 0.496827 0.738230
C13   C     C_R   0.738956 0.491806 0.502147 0.867657
C14   C     C_3   0.074466 0.467526 0.660594 -0.310369
C15   C     C_3   0.928286 0.488419 0.660771 0.763638
C16   C     C_3   0.063100 0.621469 0.439169 -0.185744
C17   C     C_3   0.069912 0.379228 0.411648 0.227104
C18   C     C_3   0.120158 0.493720 0.501924 -0.277453
Cu1   Cu    Cu3+1 0.500030 0.500020 0.638630 1.094428
Cu2   Cu    Cu3+1 0.499970 0.499980 0.361370 1.073474
H1    H     H_    0.891775 0.592293 0.320552 0.270864
H2    H     H_    0.368438 0.887055 0.363749 0.165928
H3    H     H_    0.587264 0.341217 0.132994 0.166691
H4    H     H_    0.871555 0.680052 0.454695 0.228568
N1    N     N_2   0.498630 0.498660 0.846910 -0.012273
N2    N     N_2   0.498590 0.498630 0.153040 -0.260594
O1    O     O_R   0.500020 0.321960 0.617040 -0.552465
O2    O     O_R   0.499980 0.321920 0.382900 -0.571110
O3    O     O_R   0.317710 0.500000 0.617070 -0.518254
O4    O     O_R   0.317670 0.499960 0.382930 -0.549089
O5    O     O_R   0.500020 0.678080 0.617100 -0.546997
O6    O     O_R   0.499980 0.678040 0.382960 -0.559762
O7    O     O_R   0.682330 0.500040 0.617070 -0.551215
O8    O     O_R   0.682290 0.500000 0.382930 -0.575127
C19   C     C_2   0.138280 0.539633 0.775369 0.844160
O9    O     O_2   0.128122 0.502420 0.893109 -0.562326
O10   O     O_R   0.209381 0.644409 0.752722 -0.696004
H5    H     H_    0.243144 0.680463 0.838972 0.358128
C20   C     C_2   0.856297 0.338085 0.294162 0.814892
O11   O     O_2   0.821500 0.420557 0.216005 -0.583329
O12   O     O_R   0.837022 0.217876 0.255090 -0.746038
H6    H     H_    0.794896 0.213161 0.162728 0.341104
C21   C     C_2   0.108928 0.670729 0.300705 0.885178
O13   O     O_2   0.037949 0.698962 0.206886 -0.558947
O14   O     O_R   0.230440 0.704529 0.287667 -0.737181
H7    H     H_    0.241122 0.764495 0.208098 0.326024
O15   O     O_3   0.639711 0.921954 0.519849 -0.549214
C22   C     C_3   0.704258 0.856897 0.623650 -0.157899
H8    H     H_    0.731045 0.766292 0.591033 0.157872
H9    H     H_    0.650448 0.849054 0.716268 0.170302
H10   H     H_    0.788517 0.908671 0.648853 0.206358
C23   C     C_2   0.480918 0.109010 0.254290 0.885609
O16   O     O_2   0.408406 0.178179 0.197016 -0.574127
O17   O     O_R   0.578823 0.065638 0.185390 -0.710356
H11   H     H_    0.583122 0.100877 0.089307 0.331733
C24   C     C_2   0.440290 0.069973 0.638471 0.872491
O18   O     O_2   0.523368 0.051203 0.720787 -0.540486
O19   O     O_R   0.325242 0.018513 0.660464 -0.766272
H12   H     H_    0.320762 0.971406 0.750855 0.335869
C25   C     C_2   0.508427 0.281666 0.891793 0.842392
O20   O     O_2   0.600871 0.236161 0.853980 -0.564979
O21   O     O_R   0.404278 0.211009 0.916743 -0.731834
H13   H     H_    0.417593 0.120400 0.913257 0.345337
O22   O     O_3   0.508093 0.613914 0.887856 -0.490670
C26   C     C_3   0.630751 0.648522 0.899478 -0.201551
H14   H     H_    0.676742 0.634768 0.804289 0.201725
H15   H     H_    0.676310 0.600974 0.987879 0.152759
H16   H     H_    0.636024 0.746817 0.920159 0.177708
C27   C     C_2   0.111961 0.336227 0.711872 1.013616
O23   O     O_2   0.046665 0.270819 0.782548 -0.550238
O24   O     O_R   0.230198 0.297015 0.695857 -0.706151
H17   H     H_    0.242695 0.211421 0.735135 0.376106
C28   C     C_2   0.409199 0.583657 0.107589 1.212499
O25   O     O_2   0.311605 0.549259 0.060909 -0.570179
O26   O     O_R   0.437049 0.708275 0.111919 -0.739968
H18   H     H_    0.379094 0.760402 0.053560 0.303269
O27   O     O_3   0.864425 0.390544 0.730576 -0.582937
C29   C     C_3   0.850564 0.396602 0.870966 -0.050241
H19   H     H_    0.782803 0.464057 0.892730 0.132808
H20   H     H_    0.937071 0.408508 0.927842 0.208938
H21   H     H_    0.814494 0.307296 0.909350 0.202654
O28   O     O_3   0.887502 0.607110 0.698016 -0.621904
C30   C     C_3   0.926197 0.663811 0.818696 -0.272213
H22   H     H_    0.857871 0.731649 0.841732 0.150616
H23   H     H_    0.008452 0.720746 0.803577 0.218377
H24   H     H_    0.936184 0.604171 0.910230 0.205589
C31   C     C_2   0.093783 0.732844 0.523497 0.916011
O29   O     O_2   0.199670 0.767344 0.536848 -0.554404
O30   O     O_R   0.003045 0.807294 0.568297 -0.770644
H25   H     H_    0.036879 0.881600 0.614822 0.338811
C32   C     C_2   0.105639 0.402357 0.260599 0.846383
O31   O     O_2   0.043071 0.462004 0.179257 -0.548364
O32   O     O_R   0.210510 0.350525 0.213807 -0.686941
H26   H     H_    0.212673 0.351675 0.111391 0.396672
O33   O     O_3   0.133705 0.272350 0.461369 -0.572850
C33   C     C_3   0.124899 0.167502 0.381547 -0.099266
H27   H     H_    0.210958 0.155482 0.329849 0.202053
H28   H     H_    0.048309 0.169049 0.306551 0.165436
H29   H     H_    0.116114 0.084332 0.448699 0.216721
C34   C     C_2   0.879140 0.250291 0.519886 1.002538
O34   O     O_2   0.770111 0.235754 0.536798 -0.554657
O35   O     O_R   0.956476 0.161735 0.576897 -0.707916
H30   H     H_    0.912356 0.094647 0.630487 0.347148

loop_
_geom_bond_atom_site_label_1
_geom_bond_atom_site_label_2
_ccdc_geom_bond_type
C31   O29   D    
C11   C18   S    
O32   H26   S    
C1    C8    S    
O12   H6    S    
C14   C18   S    
Cu1   Cu2   S    
C17   C32   S    
O26   H18   S    
Cu1   O5    S    
C8    C24   S    
C9    N1    D    
C7    C8    D    
C20   O12   S    
Cu2   O4    S    
O27   C29   S    
O10   H5    S    
C19   O10   S    
C7    C23   S    
C6    C12   S    
C5    C6    D    
C29   H20   S    
C33   H29   S    
N2    C28   S    
C24   O18   D    
C25   O21   S    
C28   O25   D    
C27   O24   S    
C2    C13   S    
C22   H10   S    
C5    H2    S    
O15   C22   S    
C11   O4    A    
C26   H15   S    
C33   H28   S    
C16   C31   S    
C17   O33   S    
Cu1   O1    S    
C9    C10   S    
Cu2   O8    S    
C10   N2    D    
C22   H9    S    
C12   O6    A    
C28   O26   S    
C3    H4    S    
O35   H30   S    
C23   O17   S    
C15   O28   S    
C6    O15   S    
Cu1   O7    S    
C20   O11   D    
C5    C7    S    
C29   H19   S    
Cu2   O2    S    
O19   H12   S    
O14   H7    S    
C14   C19   S    
C25   O20   D    
C19   O9    D    
C2    C4    S    
C21   O13   D    
C13   O7    A    
O21   H13   S    
C32   O32   S    
C30   H22   S    
C4    C20   S    
C26   H16   S    
C33   H27   S    
C34   O35   S    
C17   C18   S    
C1    O2    A    
C2    C15   S    
C21   O14   S    
C16   C21   S    
C4    C17   S    
C22   H8    S    
C30   H23   S    
C26   H14   S    
C4    C34   S    
C12   O5    A    
C14   C27   S    
C3    H1    S    
Cu1   O3    S    
C32   O31   D    
C23   O16   D    
Cu2   O6    S    
O17   H11   S    
C10   H3    S    
C9    C25   S    
O22   C26   S    
C31   O30   S    
C2    C3    S    
C13   O8    A    
C29   H21   S    
C15   O27   S    
Cu2   N2    S    
C34   O34   D    
C24   O19   S    
C27   O23   D    
Cu1   N1    S    
O24   H17   S    
C30   H24   S    
C11   O3    A    
C16   C18   S    
O28   C30   S    
O33   C33   S    
C1    O1    A    
C14   C15   S    
O30   H25   S    
N1    O22   S    
C3    C16   S    
