data_mof_unit_48485.cif
_audit_creation_date              2013-03-05T15:55:32-0500
_audit_creation_method            fapswitch 2.2
_symmetry_space_group_name_H-M    P1
_symmetry_Int_Tables_number       1
_space_group_crystal_system       triclinic
_cell_length_a                    20.151391
_cell_length_b                    7.256351
_cell_length_c                    13.55823
_cell_angle_alpha                 89.839905
_cell_angle_beta                  102.990349
_cell_angle_gamma                 90.153273
_cell_volume                      1931.81026801

loop_
_atom_site_label
_atom_site_type_symbol
_atom_site_description
_atom_site_fract_x
_atom_site_fract_y
_atom_site_fract_z
_atom_type_partial_charge
O1    O     O_R   0.449560 0.506810 0.599700 -0.583809
O2    O     O_R   0.550440 0.006810 0.400300 -0.582487
O3    O     O_R   0.587960 0.180060 0.595760 -0.600305
O4    O     O_R   0.412040 0.680060 0.404240 -0.602016
C1    C     C_R   0.614866 0.344251 0.617674 0.917864
C2    C     C_R   0.385128 0.844174 0.382356 0.917802
O5    O     O_R   0.452380 0.177430 0.611700 -0.580919
O6    O     O_R   0.547620 0.677430 0.388300 -0.580937
O7    O     O_R   0.413900 0.001890 0.416350 -0.596228
O8    O     O_R   0.586100 0.501890 0.583650 -0.598947
C3    C     C_R   0.436630 0.345341 0.637967 0.946288
C4    C     C_R   0.563349 0.846132 0.362040 0.945758
O9    O     O_3   0.487530 0.337490 0.435890 -0.281321
O10   O     O_3   0.512470 0.837490 0.564110 -0.283768
V1    V     V_3+5 0.502310 0.064660 0.511890 1.194527
V2    V     V_3+5 0.497690 0.564660 0.488110 1.190592
C5    C     C_R   0.607450 0.907742 0.108794 0.385485
C6    C     C_R   0.392978 0.339195 0.893399 0.384859
H1    H     H_    0.514893 0.901533 0.163217 0.181128
H2    H     H_    0.485496 0.334440 0.838915 0.185044
H3    H     H_    0.694082 0.908964 0.982102 0.173933
H4    H     H_    0.306283 0.364907 0.019305 0.174059
C7    C     C_R   0.602552 0.856732 0.283779 -0.151399
C8    C     C_R   0.397457 0.351439 0.716346 -0.153684
C9    C     C_R   0.930393 0.839515 0.315641 -0.171753
C10   C     C_R   0.069484 0.358088 0.683803 -0.171772
C11   C     C_R   0.894489 0.829993 0.391685 -0.091763
C12   C     C_R   0.105343 0.351043 0.607675 -0.091962
C13   C     C_R   0.823610 0.838481 0.368127 -0.186143
C14   C     C_R   0.176291 0.348380 0.631579 -0.186303
C15   C     C_R   0.786351 0.856239 0.266466 0.124521
C16   C     C_R   0.213655 0.353569 0.733632 0.124259
C17   C     C_R   0.823671 0.867451 0.189048 0.104931
C18   C     C_R   0.176396 0.359087 0.811243 0.104678
C19   C     C_R   0.713551 0.864594 0.239334 0.071504
C20   C     C_R   0.286515 0.352099 0.761054 0.071750
C21   C     C_R   0.679566 0.891916 0.135970 -0.018382
C22   C     C_R   0.320715 0.348076 0.865435 -0.019441
C23   C     C_R   0.718021 0.898050 0.061681 -0.126798
C24   C     C_R   0.282277 0.357937 0.939613 -0.128409
C25   C     C_R   0.788478 0.886211 0.087589 -0.231798
C26   C     C_R   0.211714 0.363268 0.913166 -0.231604
C27   C     C_R   0.673302 0.845507 0.311668 -0.232977
C28   C     C_R   0.326612 0.355762 0.687968 -0.233083
C29   C     C_R   0.569854 0.888185 0.183300 -0.192562
C30   C     C_R   0.430409 0.342548 0.818131 -0.194761
C31   C     C_R   0.895766 0.858613 0.214720 -0.153953
C32   C     C_R   0.104230 0.361530 0.785217 -0.153937
H5    H     H_    0.695065 0.821296 0.390710 0.106937
H6    H     H_    0.304643 0.362345 0.607923 0.106903
H7    H     H_    0.985515 0.832554 0.335544 0.104305
H8    H     H_    0.014303 0.360121 0.663625 0.104165
H9    H     H_    0.799909 0.832570 0.431704 0.111777
H10   H     H_    0.199982 0.340333 0.568075 0.111846
H11   H     H_    0.921827 0.816331 0.469805 0.118109
H12   H     H_    0.077920 0.347107 0.529250 0.118209
H13   H     H_    0.815225 0.892270 0.026736 0.125175
H14   H     H_    0.184986 0.370538 0.973982 0.125254
C33   C     C_R   0.217839 0.023324 0.222362 -0.135883
C34   C     C_R   0.782940 0.523035 0.775742 -0.137317
H15   H     H_    0.194166 0.156284 0.202890 0.123264
H16   H     H_    0.807253 0.655809 0.793643 0.124568
C35   C     C_R   0.283033 0.018829 0.285787 -0.120274
C36   C     C_R   0.717730 0.518657 0.712372 -0.138265
H17   H     H_    0.307257 0.147960 0.313266 0.124552
H18   H     H_    0.694133 0.647631 0.683364 0.124619
C37   C     C_R   0.316241 0.850150 0.313463 -0.109326
C38   C     C_R   0.683741 0.350245 0.686592 -0.107947
C39   C     C_R   0.282507 0.686094 0.275456 -0.129713
C40   C     C_R   0.716706 0.186346 0.726452 -0.112081
H19   H     H_    0.306313 0.553253 0.294821 0.127946
H20   H     H_    0.692258 0.053708 0.708642 0.126239
C41   C     C_R   0.217315 0.690547 0.212032 -0.145273
C42   C     C_R   0.781919 0.190684 0.789826 -0.144060
H21   H     H_    0.193225 0.561321 0.184435 0.124077
H22   H     H_    0.805387 0.061632 0.818953 0.122400
C43   C     C_R   0.183893 0.859190 0.184819 -0.110220
C44   C     C_R   0.816119 0.359050 0.815141 -0.109799
O11   O     O_R   0.913920 0.203370 0.916260 -0.593355
O12   O     O_R   0.086080 0.703370 0.083740 -0.593148
O13   O     O_R   0.047620 0.535540 0.888290 -0.587287
O14   O     O_R   0.952380 0.035540 0.111710 -0.586804
C45   C     C_R   0.063996 0.368647 0.862600 0.909320
C46   C     C_R   0.936026 0.867991 0.137396 0.909287
O15   O     O_R   0.912040 0.532780 0.904220 -0.600152
O16   O     O_R   0.087960 0.032780 0.095780 -0.600325
O17   O     O_R   0.949550 0.708160 0.099720 -0.584046
O18   O     O_R   0.050450 0.208160 0.900280 -0.583797
C47   C     C_R   0.885388 0.364888 0.883127 0.900884
C48   C     C_R   0.114616 0.864980 0.116850 0.900628
O19   O     O_3   0.012480 0.375300 0.064060 -0.288888
O20   O     O_3   0.987520 0.875300 0.935940 -0.288855
V3    V     V_3+5 0.997690 0.648180 0.988110 1.157923
V4    V     V_3+5 0.002310 0.148180 0.011890 1.157848
N1    N     N_R   0.571626 0.948881 0.006961 0.236933
O21   O     O_R   0.589823 0.089780 0.959533 -0.408085
O22   O     O_R   0.513581 0.869062 0.969345 -0.354747
N2    N     N_R   0.429183 0.321563 0.997191 0.238365
O23   O     O_R   0.412833 0.191525 0.053706 -0.406253
O24   O     O_R   0.486070 0.410594 0.029151 -0.351392

loop_
_geom_bond_atom_site_label_1
_geom_bond_atom_site_label_2
_geom_bond_distance
_ccdc_geom_bond_type
C14   C16   1.419373 A    
C35   H17   1.082983 S    
C7    C29   1.392008 A    
C11   C13   1.393258 A    
N1    O21   1.301388 A    
O1    C3    1.328781 A    
C46   O17   1.322086 A    
O2    C4    1.327346 A    
C33   C43   1.409975 A    
C2    O7    1.318183 A    
C12   H12   1.082927 S    
C23   C25   1.386678 A    
O5    C3    1.329445 A    
C14   H10   1.076051 S    
C4    C7    1.460123 S    
C34   C44   1.410123 A    
C42   H22   1.082992 S    
O14   V4    2.028221 S    
C16   C20   1.431320 A    
C19   C21   1.428289 A    
C5    C29   1.399009 A    
C11   H11   1.082842 S    
C3    C8    1.460120 S    
C7    C27   1.392960 A    
C34   H16   1.082827 S    
C39   H19   1.082908 S    
O16   V4    2.023287 S    
O15   V3    2.022098 S    
C18   C26   1.405354 A    
C40   C42   1.399479 A    
C15   C17   1.424105 A    
C39   C41   1.399473 A    
C5    N1    1.437808 S    
C19   C27   1.412484 A    
C9    C31   1.395918 A    
C10   C32   1.395977 A    
C24   C26   1.386715 A    
C45   O18   1.322630 A    
O6    V2    2.028492 S    
O12   C48   1.338168 A    
C41   H21   1.082972 S    
C26   H14   1.082978 S    
C1    C38   1.489361 S    
C6    C30   1.398849 A    
C10   C12   1.387792 A    
O13   C45   1.324007 A    
O18   V4    2.018514 S    
C44   C47   1.490418 S    
C21   C23   1.402665 A    
C35   C37   1.405600 A    
C43   C48   1.490514 S    
C33   H15   1.082846 S    
O11   V4    1.994181 S    
O4    C2    1.315087 A    
O16   C48   1.336153 A    
O15   C47   1.335606 A    
C27   H5    1.076906 S    
O5    V1    2.033709 S    
C37   C39   1.409415 A    
C36   H18   1.083008 S    
O4    V2    2.023188 S    
C9    H7    1.083836 S    
C10   H8    1.083892 S    
O13   V3    2.033432 S    
H3    C23   1.081137 S    
O6    C4    1.331172 A    
H4    C24   1.081307 S    
H1    C29   1.083983 S    
O1    V2    2.014927 S    
C5    C21   1.421533 A    
C31   C46   1.464100 S    
O2    V1    2.017767 S    
C2    C37   1.489463 S    
N2    O24   1.301369 A    
C17   C31   1.417389 A    
C15   C19   1.431382 A    
C20   C28   1.412516 A    
C18   C32   1.417419 A    
C36   C38   1.405343 A    
O3    V1    2.021995 S    
C28   H6    1.076989 S    
C33   C35   1.399511 A    
O3    C1    1.314475 A    
N1    O22   1.301386 A    
C9    C11   1.387772 A    
O14   C46   1.324815 A    
C32   C45   1.464148 S    
C34   C36   1.399422 A    
C17   C25   1.405212 A    
C12   C14   1.393295 A    
O7    V1    2.005216 S    
C8    C30   1.391879 A    
C1    O8    1.318205 A    
C13   C15   1.419312 A    
O8    V2    2.005733 S    
O19   V4    1.788287 S    
C22   C24   1.402686 A    
C13   H9    1.075979 S    
C8    C28   1.392965 A    
O17   V3    2.021456 S    
C20   C22   1.428299 A    
O20   V3    1.785652 S    
C6    C22   1.421459 A    
O11   C47   1.338120 A    
C25   H13   1.082946 S    
C38   C40   1.409628 A    
N2    O23   1.301486 A    
C42   C44   1.406016 A    
O9    V2    1.788870 S    
C41   C43   1.406203 A    
O10   V1    1.786231 S    
C40   H20   1.082889 S    
C6    N2    1.437660 S    
O12   V3    1.993718 S    
H2    C30   1.083868 S    
C16   C18   1.424152 A    
