data_mof_unit_40955.cif
_audit_creation_date              2012-10-26T19:53:25-0400
_audit_creation_method            fapswitch 2.2
_symmetry_space_group_name_H-M    P1
_symmetry_Int_Tables_number       1
_space_group_crystal_system       triclinic
_cell_length_a                    9.191273
_cell_length_b                    7.901159
_cell_length_c                    10.685931
_cell_angle_alpha                 89.334502
_cell_angle_beta                  90.651255
_cell_angle_gamma                 90.306737
_cell_volume                      775.917521092

loop_
_atom_site_label
_atom_site_type_symbol
_atom_type_description
_atom_site_fract_x
_atom_site_fract_y
_atom_site_fract_z
_atom_type_partial_charge
C1    C     C_R   0.220314 0.499737 0.499600 0.560462
C2    C     C_3   0.625989 0.554243 0.049026 0.036475
C3    C     C_3   0.510543 0.500751 0.877820 -0.091972
C4    C     C_3   0.490353 0.499309 0.122062 -0.072636
C5    C     C_1   0.065275 0.499630 0.499879 0.041051
C6    C     C_1   0.934737 0.500336 0.500258 0.048118
C7    C     C_R   0.779689 0.500253 0.500489 0.572135
C8    C     C_R   0.492198 0.500265 0.259289 0.595183
C9    C     C_R   0.507825 0.499736 0.740670 0.592192
C10   C     C_3   0.392161 0.603386 0.033861 0.133938
C11   C     C_3   0.609167 0.396863 0.965733 0.206701
C12   C     C_3   0.528211 0.658500 0.959284 0.157768
C13   C     C_3   0.473096 0.341510 0.040752 0.205645
C14   C     C_3   0.375148 0.445675 0.951044 0.017351
Cu1   Cu    Cu3+1 0.500000 0.669080 0.500000 1.199390
Cu2   Cu    Cu3+1 0.500000 0.330920 0.500000 1.181014
H1    H     H_    0.187753 0.775252 0.902229 0.353966
H2    H     H_    0.947137 0.159147 0.983480 0.395100
H3    H     H_    0.769120 0.943673 0.015966 0.384870
H4    H     H_    0.258825 0.144234 0.271056 0.374423
I1    I     I_    0.186285 0.358386 0.851703 -0.058290
I2    I     I_    0.815653 0.632249 0.151610 -0.014725
N1    N     N_1   0.500000 0.076820 0.500000 -0.039737
N2    N     N_1   0.500000 0.923180 0.500000 -0.029499
O1    O     O_R   0.288390 0.642760 0.500000 -0.497686
O2    O     O_2   0.267235 0.818174 0.195536 -0.199488
O3    O     O_3   0.132127 0.790350 0.980098 -0.422525
O4    O     O_2   0.740115 0.178437 0.809814 -0.198862
O5    O     O_2   0.852985 0.454038 0.842393 -0.242747
O6    O     O_3   0.875255 0.233314 0.023590 -0.450944
O7    O     O_2   0.728200 0.802402 0.811231 -0.231069
O8    O     O_2   0.491251 0.940104 0.814657 -0.200551
O9    O     O_3   0.664417 0.969841 0.008580 -0.408665
O10   O     O_2   0.345124 0.041227 0.003459 -0.157980
O11   O     O_2   0.503716 0.062970 0.189747 -0.220153
O12   O     O_R   0.711610 0.357240 0.500000 -0.485777
O13   O     O_3   0.249840 0.207720 0.190926 -0.456545
O14   O     O_R   0.711610 0.642760 0.500000 -0.490218
O15   O     O_R   0.288390 0.357240 0.500000 -0.517507
O16   O     O_R   0.499960 0.642760 0.316850 -0.468317
O17   O     O_R   0.500040 0.357240 0.683150 -0.462550
O18   O     O_R   0.500040 0.642760 0.683150 -0.464726
O19   O     O_R   0.499960 0.357240 0.316850 -0.481090
O20   O     O_2   0.144285 0.552639 0.149974 -0.209068
S1    S     S_3+6 0.231105 0.695166 0.093928 0.126816
S2    S     S_3+6 0.772548 0.311400 0.905352 0.107033
S3    S     S_3+6 0.602405 0.847458 0.893103 0.132461
S4    S     S_3+6 0.395825 0.153793 0.106608 0.151233

loop_
_geom_bond_atom_site_label_1
_geom_bond_atom_site_label_2
_ccdc_geom_bond_type
C2    I2    S    
C13   S4    S    
C2    C4    S    
N1    N2    T    
Cu1   O14   S    
C6    C7    S    
C3    C9    S    
C7    O12   A    
C9    O17   A    
C8    O19   A    
O5    S2    D    
C4    C8    S    
C2    C12   S    
O3    S1    S    
C10   S1    S    
O7    S3    D    
C13   C14   S    
Cu2   O12   S    
O13   S4    S    
C1    O1    A    
H4    O13   S    
C11   C13   S    
Cu2   O19   S    
O4    S2    D    
C9    O18   A    
C3    C14   S    
C10   C12   S    
C12   S3    S    
C1    C5    S    
O11   S4    D    
C14   I1    S    
Cu1   N2    S    
C7    O14   A    
Cu2   N1    S    
H3    O9    S    
C5    C6    T    
O9    S3    S    
O8    S3    D    
Cu1   O16   S    
Cu1   O1    S    
C3    C11   S    
C1    O15   A    
Cu2   O15   S    
C4    C10   S    
Cu1   Cu2   S    
H1    O3    S    
H2    O6    S    
O10   S4    D    
O20   S1    D    
C10   C14   S    
C4    C13   S    
C11   S2    S    
C2    C11   S    
C3    C12   S    
C8    O16   A    
O2    S1    D    
Cu2   O17   S    
O6    S2    S    
Cu1   O18   S    
