data_mof_unit_54184.cif
_audit_creation_date              2012-12-11T17:45:29-0500
_audit_creation_method            fapswitch 2.2
_symmetry_space_group_name_H-M    P1
_symmetry_Int_Tables_number       1
_space_group_crystal_system       triclinic
_cell_length_a                    14.966876
_cell_length_b                    14.921568
_cell_length_c                    15.112756
_cell_angle_alpha                 110.17514
_cell_angle_beta                  109.074102
_cell_angle_gamma                 109.130916
_cell_volume                      2599.01386129

loop_
_atom_site_label
_atom_site_type_symbol
_atom_type_description
_atom_site_fract_x
_atom_site_fract_y
_atom_site_fract_z
_atom_type_partial_charge
C1    C     C_R   0.905793 0.193031 0.990302 -0.150003
C2    C     C_R   0.684777 0.233363 0.773680 0.086556
C3    C     C_R   0.792874 0.592269 0.098634 -0.142236
C4    C     C_R   0.294367 0.805516 0.203956 -0.138734
C5    C     C_R   0.003175 0.407911 0.701125 -0.165340
C6    C     C_R   0.703167 0.501895 0.073714 -0.021707
C7    C     C_R   0.057916 0.498311 0.696167 0.059816
C8    C     C_R   0.675606 0.206620 0.671398 -0.008395
C9    C     C_R   0.948091 0.776619 0.952084 0.057698
C10   C     C_R   0.680063 0.261191 0.189721 -0.122478
C11   C     C_R   0.781796 0.341551 0.281433 -0.129411
C12   C     C_R   0.296115 0.871142 0.295857 0.068586
C13   C     C_R   0.865332 0.316269 0.311879 0.119242
C14   C     C_R   0.844907 0.209192 0.250751 -0.201533
C15   C     C_R   0.743863 0.130261 0.157383 -0.114958
C16   C     C_R   0.223655 0.408227 0.974064 -0.143351
C17   C     C_R   0.661676 0.156422 0.126927 -0.098245
C18   C     C_R   0.983582 0.403934 0.504543 -0.249854
C19   C     C_R   0.072098 0.491289 0.604572 0.066664
C20   C     C_R   0.160006 0.572969 0.611455 0.025600
C21   C     C_R   0.150763 0.568643 0.514973 -0.250585
C22   C     C_R   0.056543 0.486085 0.415701 0.075294
C23   C     C_R   0.325754 0.500814 0.049736 -0.009072
C24   C     C_R   0.972877 0.400847 0.410177 0.015649
C25   C     C_R   0.297784 0.773986 0.738955 -0.158972
C26   C     C_R   0.382342 0.861122 0.842134 -0.114347
C27   C     C_R   0.426275 0.840220 0.924649 -0.094099
C28   C     C_R   0.058350 0.590242 0.314230 -0.136266
C29   C     C_R   0.387799 0.732217 0.903331 -0.117313
C30   C     C_R   0.307420 0.644583 0.799095 -0.152728
C31   C     C_R   0.258082 0.664671 0.716862 0.115664
C32   C     C_R   0.087318 0.979415 0.378349 -0.132846
C33   C     C_R   0.191027 0.024654 0.389965 -0.145046
C34   C     C_R   0.040793 0.495581 0.320737 0.041792
C35   C     C_R   0.277874 0.031681 0.470534 0.120469
C36   C     C_R   0.260954 0.998667 0.542998 -0.194104
C37   C     C_R   0.156397 0.950913 0.529052 -0.127544
C38   C     C_R   0.069488 0.940665 0.446378 -0.115720
C39   C     C_R   0.478731 0.135691 0.560153 -0.234951
C40   C     C_R   0.313946 0.592612 0.066154 -0.140495
C41   C     C_R   0.576442 0.142953 0.565399 0.077338
C42   C     C_R   0.575921 0.085352 0.468467 0.019674
C43   C     C_R   0.478526 0.019070 0.372500 -0.234112
C44   C     C_R   0.381027 0.986747 0.374948 0.054187
C45   C     C_R   0.703341 0.410402 0.009967 -0.133119
C46   C     C_R   0.379586 0.053646 0.466668 0.022337
C47   C     C_R   0.730812 0.121041 0.430402 -0.185564
C48   C     C_R   0.813412 0.099736 0.424354 -0.119055
C49   C     C_R   0.825491 0.018047 0.443277 -0.116211
C50   C     C_R   0.756263 0.958746 0.470253 -0.130146
C51   C     C_R   0.677896 0.984272 0.482941 -0.127245
C52   C     C_R   0.976963 0.406685 0.217549 -0.107795
C53   C     C_R   0.665523 0.066370 0.464115 0.113137
C54   C     C_3   0.541167 0.408460 0.091918 -0.415754
C55   C     C_3   0.436709 0.409610 0.086947 -0.394040
C56   C     C_R   0.088057 0.590876 0.788186 -0.136104
C57   C     C_3   0.634269 0.611642 0.169153 -0.414046
C58   C     C_3   0.532673 0.483155 0.964554 -0.385812
C59   C     C_3   0.605560 0.501504 0.076244 0.407381
C60   C     C_3   0.428228 0.501361 0.064656 0.398604
C61   C     C_3   0.529755 0.613256 0.159938 -0.401116
C62   C     C_3   0.428269 0.481132 0.957005 -0.404084
C63   C     C_R   0.063112 0.059457 0.681216 -0.122046
C64   C     C_R   0.207652 0.804730 0.298314 -0.142777
C65   C     C_R   0.988674 0.002944 0.705621 -0.187318
C66   C     C_R   0.026387 0.004529 0.804403 0.117540
C67   C     C_R   0.780013 0.248604 0.686982 -0.147044
C68   C     C_R   0.138880 0.053125 0.872963 -0.151512
C69   C     C_R   0.212824 0.104757 0.845528 -0.151068
C70   C     C_R   0.175078 0.110756 0.751343 -0.104923
C71   C     C_R   0.939001 0.862026 0.838778 -0.238955
C72   C     C_R   0.901686 0.832957 0.903961 0.059941
C73   C     C_R   0.838272 0.876113 0.934400 0.025672
C74   C     C_R   0.829569 0.957120 0.913102 -0.228179
C75   C     C_R   0.900656 0.011867 0.885028 0.056906
C76   C     C_R   0.999249 0.197828 0.902850 -0.142591
C77   C     C_R   0.949372 0.957621 0.837964 0.022921
C78   C     C_R   0.932155 0.748035 0.026489 -0.142348
C79   C     C_R   0.694871 0.779253 0.969096 -0.148376
C80   C     C_R   0.653996 0.778604 0.039849 -0.141526
C81   C     C_R   0.716779 0.860413 0.149414 -0.110124
C82   C     C_R   0.822201 0.941444 0.189165 -0.137311
C83   C     C_R   0.863656 0.942905 0.119242 -0.196267
C84   C     C_R   0.800003 0.861898 0.008801 0.115043
C85   C     C_R   0.936257 0.129948 0.926323 0.066668
C86   C     C_1   0.600274 0.181813 0.794264 -0.025411
C87   C     C_R   0.026251 0.751026 0.937674 -0.124618
H1    H     H_    0.845831 0.164053 0.013236 0.103458
H2    H     H_    0.795433 0.422996 0.328832 0.106977
H3    H     H_    0.339595 0.831580 0.166287 0.088172
H4    H     H_    0.908532 0.188481 0.273365 0.112535
H5    H     H_    0.729067 0.049030 0.108015 0.138200
H6    H     H_    0.915082 0.343055 0.499634 0.129952
H7    H     H_    0.215159 0.631468 0.517093 0.129677
H8    H     H_    0.261085 0.792269 0.677709 0.107789
H9    H     H_    0.411641 0.944984 0.858864 0.110756
H10   H     H_    0.489098 0.907435 0.005525 0.102774
H11   H     H_    0.418124 0.716492 0.968343 0.093851
H12   H     H_    0.139994 0.675627 0.814856 0.113242
H13   H     H_    0.279166 0.561385 0.784350 0.113613
H14   H     H_    0.988219 0.901573 0.434357 0.099356
H15   H     H_    0.204021 0.323301 0.937149 0.110819
H16   H     H_    0.020197 0.970405 0.313825 0.116384
H17   H     H_    0.202369 0.048366 0.332619 0.111615
H18   H     H_    0.326409 0.001362 0.604168 0.130686
H19   H     H_    0.142281 0.919282 0.580632 0.131438
H20   H     H_    0.478387 0.187023 0.630899 0.135857
H21   H     H_    0.481798 0.975392 0.300952 0.125742
H22   H     H_    0.720014 0.182343 0.412610 0.126187
H23   H     H_    0.805666 0.250888 0.629218 0.129823
H24   H     H_    0.867585 0.145802 0.404193 0.114176
H25   H     H_    0.887318 0.999502 0.435244 0.092995
H26   H     H_    0.762815 0.892594 0.480649 0.102487
H27   H     H_    0.103727 0.674451 0.380282 0.102303
H28   H     H_    0.624987 0.938364 0.504662 0.112389
H29   H     H_    0.592982 0.421938 0.172369 0.151738
H30   H     H_    0.517818 0.326429 0.028153 0.147972
H31   H     H_    0.365159 0.327884 0.022232 0.150782
H32   H     H_    0.438359 0.423940 0.164902 0.157181
H33   H     H_    0.683243 0.622581 0.249399 0.153649
H34   H     H_    0.877139 0.752840 0.056360 0.126686
H35   H     H_    0.529427 0.630439 0.237537 0.157901
H36   H     H_    0.576817 0.548750 0.951183 0.161649
H37   H     H_    0.511230 0.403580 0.897873 0.157012
H38   H     H_    0.357712 0.399784 0.888208 0.157522
H39   H     H_    0.375858 0.678262 0.115772 0.093735
H40   H     H_    0.419820 0.544345 0.937694 0.148457
H41   H     H_    0.683720 0.682526 0.165873 0.163044
H42   H     H_    0.530169 0.681776 0.146255 0.143299
H43   H     H_    0.232536 0.153985 0.732005 0.119658
H44   H     H_    0.034294 0.064572 0.608644 0.121732
H45   H     H_    0.060984 0.763348 0.887976 0.093027
H46   H     H_    0.902358 0.964852 0.652216 0.118595
H47   H     H_    0.169079 0.052589 0.948315 0.114189
H48   H     H_    0.299360 0.141593 0.898090 0.110659
H49   H     H_    0.976278 0.821970 0.802208 0.126842
H50   H     H_    0.781619 0.989585 0.937971 0.126836
H51   H     H_    0.954083 0.322173 0.192182 0.116106
H52   H     H_    0.644130 0.717464 0.883666 0.117340
H53   H     H_    0.573626 0.714831 0.009760 0.112939
H54   H     H_    0.684029 0.860595 0.203526 0.122610
H55   H     H_    0.871418 0.004893 0.273447 0.109167
H56   H     H_    0.824312 0.677569 0.155217 0.099311
H57   H     H_    0.944196 0.008745 0.150336 0.118770
H58   H     H_    0.177151 0.826992 0.352474 0.132937
H59   H     H_    0.023451 0.177337 0.843224 0.129702
H60   H     H_    0.652066 0.327274 0.987396 0.114093
H61   H     H_    0.981013 0.323866 0.649906 0.108327
H62   H     H_    0.583555 0.095668 0.054756 0.095996
H63   H     H_    0.614914 0.279315 0.167017 0.100459
N1    N     N_R   0.947080 0.293830 0.002870 -0.042352
N2    N     N_R   0.153670 0.443180 0.946090 -0.036126
N3    N     N_R   0.002360 0.556820 0.208890 -0.040068
N4    N     N_R   0.210070 0.556820 0.002870 -0.035255
N5    N     N_R   0.945960 0.443180 0.152110 -0.040904
N6    N     N_R   0.151710 0.706170 0.208890 -0.041983
N7    N     N_R   0.004320 0.293830 0.946090 -0.041011
N8    N     N_R   0.789930 0.443180 0.997130 -0.038585
N9    N     N_1   0.531802 0.138987 0.809587 -0.121138
N10   N     N_R   0.054040 0.556820 0.847890 -0.039871
N11   N     N_R   0.848290 0.293830 0.791110 -0.050695
N12   N     N_R   0.995680 0.706170 0.053910 -0.041541
N13   N     N_R   0.052920 0.706170 0.997130 -0.041500
N14   N     N_R   0.791050 0.293830 0.847890 -0.061224
N15   N     N_R   0.846330 0.556820 0.053910 -0.037872
N16   N     N_R   0.997640 0.443180 0.791110 -0.038032
N17   N     N_R   0.208950 0.706170 0.152110 -0.038455
Ni1   Ni    Ni4+2 0.869690 0.369690 0.000000 0.222296
Ni2   Ni    Ni4+2 0.130310 0.630310 0.000000 0.211001
Ni3   Ni    Ni4+2 0.000970 0.369690 0.869780 0.212228
Ni4   Ni    Ni4+2 0.999030 0.630310 0.130220 0.214464

loop_
_geom_bond_atom_site_label_1
_geom_bond_atom_site_label_2
_ccdc_geom_bond_type
C25   C31   A    
C66   C68   A    
C63   C65   A    
C58   C62   S    
C6    C45   A    
C64   H58   S    
C27   C29   A    
C33   H17   S    
C41   C42   A    
C79   H52   S    
C35   C36   A    
C9    C72   S    
C82   H55   S    
C3    C6    A    
N10   N16   A    
C57   H41   S    
C81   C82   A    
N8    Ni1   S    
N17   Ni2   S    
C55   H32   S    
C52   N5    A    
C39   H20   S    
C58   H36   S    
C29   C30   A    
C29   H11   S    
C18   C24   A    
N1    N7    A    
C36   C37   A    
C38   H14   S    
C42   C53   S    
C79   C84   A    
C12   C64   A    
C57   C59   S    
C21   H7    S    
C10   C17   A    
C23   C40   A    
C30   H13   S    
C70   H43   S    
C63   H44   S    
C60   C62   S    
C18   C19   A    
C73   C74   A    
C78   H34   S    
C67   N11   A    
C13   C14   A    
C15   H5    S    
C75   C85   S    
N12   Ni4   S    
C83   C84   A    
C68   C69   A    
C54   H29   S    
C52   H51   S    
N10   Ni2   S    
C1    N1    A    
C32   C38   A    
C43   H21   S    
C4    C12   A    
C87   N13   A    
C73   C84   S    
C61   H42   S    
C47   C53   A    
C1    H1    S    
C81   H54   S    
C76   H59   S    
C69   H48   S    
C5    H61   S    
C21   C22   A    
C1    C85   A    
C40   N4    A    
C7    C56   A    
C44   C46   A    
C4    H3    S    
C54   C59   S    
C26   H9    S    
C23   C60   S    
C22   C34   S    
C74   H50   S    
C17   H62   S    
C76   N7    A    
C74   C75   A    
N14   Ni1   S    
C3    H56   S    
C8    C41   S    
C39   C41   A    
C2    N14   A    
C71   H49   S    
C5    C7    A    
C72   C73   A    
N6    N17   A    
C25   C26   A    
C80   H53   S    
C82   C83   A    
C51   H28   S    
N4    Ni2   S    
C60   C61   S    
C51   C53   A    
C87   H45   S    
C43   C44   A    
C37   C38   A    
N7    Ni3   S    
N2    Ni3   S    
C11   H2    S    
C67   H23   S    
C47   C48   A    
C63   C70   A    
N5    Ni1   S    
C40   H39   S    
N3    Ni4   S    
C50   C51   A    
C26   C27   A    
C32   H16   S    
C16   N2    A    
C49   H25   S    
C5    N16   A    
C57   C61   S    
C75   C77   A    
C28   H27   S    
N15   Ni4   S    
C57   H33   S    
N11   Ni3   S    
C16   H15   S    
C48   C49   A    
N2    N4    A    
C25   H8    S    
C16   C23   A    
C7    C19   S    
C39   C46   A    
C28   N3    A    
C22   C24   A    
N3    N5    A    
C42   C43   A    
C71   C77   A    
N11   N14   A    
C3    N15   A    
C78   N12   A    
N12   N13   A    
C86   N9    T    
C15   C17   A    
C66   C77   S    
C54   C55   S    
C27   H10   S    
C36   H18   S    
C45   H60   S    
C34   C52   A    
C6    C59   S    
C2    C8    A    
C45   N8    A    
C80   C81   A    
C62   H38   S    
N16   Ni3   S    
C64   N6    A    
N6    Ni4   S    
C58   H37   S    
C4    N17   A    
C50   H26   S    
C32   C33   A    
C19   C20   A    
C68   H47   S    
C58   C59   S    
C71   C72   A    
C56   N10   A    
C47   H22   S    
C10   H63   S    
C11   C13   A    
C30   C31   A    
C83   H57   S    
C33   C35   A    
C2    C86   S    
C9    C78   A    
C65   C66   A    
C69   C70   A    
N13   Ni2   S    
C65   H46   S    
C14   H4    S    
C10   C11   A    
C28   C34   A    
C79   C80   A    
C62   H40   S    
C37   H19   S    
C48   H24   S    
C20   C21   A    
C13   C24   S    
C8    C67   A    
C12   C44   S    
C49   C50   A    
C54   H30   S    
C18   H6    S    
C14   C15   A    
C61   H35   S    
C56   H12   S    
C55   C60   S    
C35   C46   S    
C76   C85   A    
C20   C31   S    
C9    C87   A    
N1    Ni1   S    
N8    N15   A    
C55   H31   S    
