data_mof_unit_44459.cif
_audit_creation_date              2012-10-26T19:39:39-0400
_audit_creation_method            fapswitch 2.2
_symmetry_space_group_name_H-M    P1
_symmetry_Int_Tables_number       1
_space_group_crystal_system       triclinic
_cell_length_a                    10.907322
_cell_length_b                    8.725815
_cell_length_c                    7.514553
_cell_angle_alpha                 103.22316
_cell_angle_beta                  95.108644
_cell_angle_gamma                 93.617234
_cell_volume                      690.897849237

loop_
_atom_site_label
_atom_site_type_symbol
_atom_type_description
_atom_site_fract_x
_atom_site_fract_y
_atom_site_fract_z
_atom_type_partial_charge
C1    C     C_R   0.495956 0.199984 0.453754 0.544741
C2    C     C_2   0.488986 0.032031 0.431954 -0.118479
C3    C     C_3   0.289185 0.297094 0.974829 0.055035
C4    C     C_3   0.214544 0.172822 0.819772 -0.284149
C5    C     C_3   0.090685 0.120782 0.876029 -0.513981
C6    C     C_3   0.649871 0.770254 0.091871 0.075517
C7    C     C_3   0.762909 0.831425 0.013617 -0.277764
C8    C     C_3   0.797903 0.006661 0.101718 -0.503071
C9    C     C_2   0.520162 0.968325 0.574217 0.044215
C10   C     C_R   0.265823 0.500361 0.500761 0.529248
C11   C     C_R   0.506811 0.799946 0.546979 0.514865
C12   C     C_R   0.733792 0.489731 0.497939 0.589188
C13   C     C_2   0.925091 0.447085 0.348781 0.061929
C14   C     C_2   0.861930 0.451233 0.497245 0.127403
C15   C     C_2   0.057675 0.428094 0.358181 -0.175663
C16   C     C_2   0.134628 0.507986 0.502422 -0.139047
Cu1   Cu    Cu3+1 0.513740 0.517380 0.684380 1.066610
Cu2   Cu    Cu3+1 0.486260 0.482620 0.315620 1.016390
H1    H     H_    0.093225 0.358873 0.237702 0.122626
H2    H     H_    0.236926 0.404055 0.004943 0.135938
H3    H     H_    0.302645 0.245488 0.095997 0.168038
H4    H     H_    0.198141 0.222034 0.696552 0.168948
H5    H     H_    0.268017 0.067855 0.782322 0.170554
H6    H     H_    0.105026 0.068620 0.997222 0.141716
H7    H     H_    0.039306 0.030397 0.760602 0.151613
H8    H     H_    0.034513 0.223126 0.910054 0.146961
H9    H     H_    0.663351 0.818251 0.242816 0.145201
H10   H     H_    0.565081 0.817887 0.039190 0.114892
H11   H     H_    0.843092 0.764977 0.040559 0.167520
H12   H     H_    0.102149 0.585115 0.619960 0.096977
H13   H     H_    0.743518 0.813300 0.862547 0.170708
H14   H     H_    0.716334 0.076164 0.097026 0.174919
H15   H     H_    0.869378 0.053122 0.027247 0.146410
H16   H     H_    0.835750 0.022584 0.247634 0.154033
H17   H     H_    0.454054 0.959226 0.297176 0.074759
H18   H     H_    0.870782 0.360097 0.078631 0.236236
H19   H     H_    0.916067 0.554579 0.138176 0.220487
H20   H     H_    0.954045 0.495644 0.756251 0.214965
H21   H     H_    0.973268 0.312505 0.620343 0.228439
H22   H     H_    0.663530 0.032214 0.772451 0.216270
H23   H     H_    0.522225 0.035919 0.852482 0.245756
N1    N     N_2   0.465540 0.456420 0.038510 0.085703
N2    N     N_2   0.534460 0.543580 0.961490 0.101605
N3    N     N_3   0.865407 0.464578 0.177549 -0.548811
N4    N     N_3   0.911952 0.399093 0.655626 -0.648772
N5    N     N_3   0.573337 0.062337 0.750394 -0.554844
O1    O     O_R   0.508930 0.286130 0.619780 -0.399738
O2    O     O_3   0.642621 0.603922 0.060820 -0.429790
O3    O     O_R   0.485720 0.256780 0.308360 -0.542543
O4    O     O_R   0.333540 0.514670 0.655670 -0.494386
O5    O     O_R   0.310330 0.485320 0.344250 -0.548204
O6    O     O_R   0.514280 0.743220 0.691640 -0.542442
O7    O     O_R   0.491070 0.713870 0.380220 -0.532680
O8    O     O_R   0.689670 0.514680 0.655750 -0.482776
O9    O     O_R   0.666460 0.485330 0.344330 -0.437101
O10   O     O_3   0.403051 0.333449 0.915056 -0.452176

loop_
_geom_bond_atom_site_label_1
_geom_bond_atom_site_label_2
_ccdc_geom_bond_type
Cu1   O4    S    
C2    H17   S    
H22   N5    S    
H23   N5    S    
Cu1   N2    S    
C6    C7    S    
C7    H11   S    
C4    H4    S    
N2    O2    S    
C6    H9    S    
C11   O7    A    
H21   N4    S    
C15   C16   D    
H19   N3    S    
C13   C15   S    
Cu1   Cu2   S    
C9    N5    S    
C10   C16   S    
C13   C14   D    
C15   H1    S    
C9    C11   S    
C5    H6    S    
C6    O2    S    
Cu2   O9    S    
C5    H7    S    
C10   O5    A    
Cu1   O6    S    
C12   C14   S    
Cu2   O5    S    
C1    C2    S    
C14   N4    S    
C8    H15   S    
Cu2   N1    S    
C12   O8    A    
H18   N3    S    
C12   O9    A    
C3    H3    S    
N1    N2    D    
C16   H12   S    
C5    H8    S    
C8    H14   S    
C3    H2    S    
C7    H13   S    
C7    C8    S    
C3    O10   S    
C4    H5    S    
C1    O1    A    
H20   N4    S    
C8    H16   S    
C11   O6    A    
Cu2   O7    S    
N1    O10   S    
C2    C9    D    
C1    O3    A    
Cu1   O8    S    
C13   N3    S    
C6    H10   S    
C3    C4    S    
Cu1   O1    S    
Cu2   O3    S    
C4    C5    S    
C10   O4    A    
