data_mof_unit_23931.cif
_audit_creation_date              2012-12-10T17:56:43-0500
_audit_creation_method            fapswitch 2.2
_symmetry_space_group_name_H-M    P1
_symmetry_Int_Tables_number       1
_space_group_crystal_system       triclinic
_cell_length_a                    10.911118
_cell_length_b                    9.508462
_cell_length_c                    10.828997
_cell_angle_alpha                 88.782075
_cell_angle_beta                  90.042434
_cell_angle_gamma                 88.675107
_cell_volume                      1122.93129365

loop_
_atom_site_label
_atom_site_type_symbol
_atom_type_description
_atom_site_fract_x
_atom_site_fract_y
_atom_site_fract_z
_atom_type_partial_charge
C1    C     C_R   0.262362 0.501091 0.503132 0.876527
C2    C     C_R   0.738109 0.497674 0.495803 0.851938
C3    C     C_R   0.935021 0.604870 0.437594 0.385754
C4    C     C_R   0.061786 0.614807 0.452400 0.395993
C5    C     C_R   0.432554 0.078440 0.414310 0.519398
C6    C     C_R   0.562309 0.071422 0.590407 0.556274
C7    C     C_R   0.432979 0.928806 0.415343 -0.132993
C8    C     C_R   0.564045 0.920676 0.586929 -0.118690
C9    C     C_R   0.507966 0.502795 0.261602 0.793256
C10   C     C_R   0.487266 0.499333 0.737327 0.792745
C11   C     C_R   0.504028 0.778786 0.098118 -0.002187
C12   C     C_R   0.369751 0.735881 0.883341 0.011068
C13   C     C_R   0.442197 0.891242 0.038305 -0.231280
C14   C     C_R   0.369546 0.868199 0.936168 -0.208504
C15   C     C_R   0.443436 0.624306 0.934977 0.037594
C16   C     C_R   0.489922 0.638365 0.055851 0.045200
C17   C     C_R   0.514116 0.510754 0.125993 -0.120093
C18   C     C_R   0.472145 0.498798 0.871794 -0.107175
C19   C     C_R   0.522352 0.382206 0.065083 -0.198187
C20   C     C_R   0.506795 0.377514 0.938803 -0.199722
C21   C     C_R   0.067346 0.384990 0.557493 -0.139638
C22   C     C_R   0.940854 0.375360 0.541761 -0.142590
C23   C     C_R   0.872675 0.491601 0.491706 -0.262344
C24   C     C_R   0.128623 0.501961 0.507266 -0.217059
Cu1   Cu    Cu3+1 0.500000 0.640660 0.500000 0.998712
Cu2   Cu    Cu3+1 0.500000 0.359340 0.500000 1.039195
H1    H     H_    0.542313 0.284333 0.114967 0.180058
H2    H     H_    0.521201 0.278443 0.893653 0.185246
H3    H     H_    0.449548 0.997601 0.071427 0.166175
H4    H     H_    0.314789 0.954594 0.896806 0.166340
H5    H     H_    0.382666 0.873716 0.346086 0.170849
H6    H     H_    0.616010 0.856752 0.652682 0.152809
N1    N     N_R   0.500000 0.852070 0.500000 -0.198746
N2    N     N_R   0.500000 0.147940 0.500000 -0.236567
O1    O     O_R   0.319640 0.618740 0.499990 -0.535058
O2    O     O_R   0.680360 0.618740 0.500010 -0.535099
O3    O     O_R   0.319620 0.381170 0.499990 -0.575336
O4    O     O_R   0.680380 0.381170 0.500010 -0.564002
O5    O     O_R   0.500000 0.618810 0.319650 -0.583697
O6    O     O_R   0.500000 0.618810 0.680350 -0.602120
O7    O     O_R   0.499970 0.381240 0.319640 -0.533989
O8    O     O_R   0.500030 0.381240 0.680360 -0.533355
C25   C     C_1   0.595647 0.818556 0.185853 0.228547
N3    N     N_1   0.667341 0.854856 0.256376 -0.221534
C26   C     C_1   0.275711 0.711589 0.793430 0.240794
N4    N     N_1   0.197631 0.693732 0.723784 -0.314230
C27   C     C_1   0.132782 0.275373 0.628732 0.279816
N5    N     N_1   0.184629 0.188184 0.685421 -0.317558
C28   C     C_1   0.888365 0.238194 0.560766 0.346450
N6    N     N_1   0.851130 0.125973 0.573118 -0.275113
O9    O     O_3   0.874888 0.699741 0.359015 -0.539455
C29   C     C_3   0.885085 0.648332 0.237609 -0.240289
H7    H     H_    0.862118 0.734600 0.170596 0.188776
H8    H     H_    0.819567 0.562115 0.223962 0.129212
H9    H     H_    0.979881 0.611586 0.214220 0.153696
O10   O     O_3   0.121944 0.728965 0.401676 -0.577811
C30   C     C_3   0.088830 0.852780 0.465247 -0.181128
H10   H     H_    0.040746 0.927346 0.400456 0.179053
H11   H     H_    0.029467 0.836960 0.548135 0.159338
H12   H     H_    0.173658 0.902208 0.497738 0.161537
O11   O     O_3   0.374669 0.155497 0.320322 -0.551978
C31   C     C_3   0.248546 0.127100 0.316860 -0.337572
H13   H     H_    0.206116 0.131475 0.410047 0.157226
H14   H     H_    0.232136 0.024648 0.273150 0.165873
H15   H     H_    0.201994 0.209669 0.258758 0.194655
O12   O     O_3   0.625103 0.146379 0.678951 -0.530366
C32   C     C_3   0.659362 0.066073 0.785227 -0.376376
H16   H     H_    0.735384 0.990508 0.764635 0.180742
H17   H     H_    0.579486 0.012196 0.826725 0.159956
H18   H     H_    0.695517 0.137960 0.855079 0.191039

loop_
_geom_bond_atom_site_label_1
_geom_bond_atom_site_label_2
_ccdc_geom_bond_type
C15   C18   A    
C6    C8    A    
C25   N3    T    
C29   H9    S    
Cu2   O3    S    
C11   C25   S    
C31   H13   S    
C12   C26   S    
C13   C14   A    
C10   O8    A    
C19   H1    S    
C11   C16   A    
C2    O4    A    
C3    C23   A    
C19   C20   A    
C12   C15   A    
C1    O3    A    
C32   H18   S    
C6    N2    A    
C5    N2    A    
O12   C32   S    
C12   C14   A    
C5    O11   S    
C21   C22   A    
C4    O10   S    
C11   C13   A    
C1    O1    A    
C30   H10   S    
Cu1   O1    S    
C22   C28   S    
C4    C24   A    
C9    C17   S    
C32   H16   S    
C17   C19   A    
C29   H8    S    
C18   C20   A    
C8    N1    A    
Cu1   O6    S    
O11   C31   S    
C10   C18   S    
C30   H11   S    
C7    H5    S    
O10   C30   S    
C7    N1    A    
Cu1   O2    S    
C2    O2    A    
O9    C29   S    
C8    H6    S    
C27   N5    T    
C26   N4    T    
C6    O12   S    
C29   H7    S    
Cu2   O8    S    
C1    C24   S    
C10   O6    A    
C28   N6    T    
C21   C24   A    
C13   H3    S    
C2    C23   S    
C5    C7    A    
C3    O9    S    
C22   C23   A    
Cu2   O4    S    
C30   H12   S    
C31   H14   S    
C20   H2    S    
C31   H15   S    
C32   H17   S    
Cu1   Cu2   S    
C14   H4    S    
C9    O7    A    
Cu2   N2    S    
C9    O5    A    
Cu1   O5    S    
C3    C4    A    
C15   C16   A    
Cu2   O7    S    
Cu1   N1    S    
C16   C17   A    
C21   C27   S    
