data_mof_unit_67966.cif
_audit_creation_date              2012-12-10T20:48:20-0500
_audit_creation_method            fapswitch 2.2
_symmetry_space_group_name_H-M    P1
_symmetry_Int_Tables_number       1
_space_group_crystal_system       triclinic
_cell_length_a                    10.93692
_cell_length_b                    9.276383
_cell_length_c                    8.207164
_cell_angle_alpha                 89.826175
_cell_angle_beta                  89.611494
_cell_angle_gamma                 89.626545
_cell_volume                      832.617755618

loop_
_atom_site_label
_atom_site_type_symbol
_atom_type_description
_atom_site_fract_x
_atom_site_fract_y
_atom_site_fract_z
_atom_type_partial_charge
C1    C     C_R   0.510481 0.218341 0.499854 0.917771
C2    C     C_1   0.509830 0.935462 0.499623 -0.200828
C3    C     C_3   0.063142 0.681044 0.519447 0.633413
C4    C     C_3   0.919481 0.670652 0.480817 0.671276
C5    C     C_3   0.119535 0.517413 0.500012 -0.410843
C6    C     C_3   0.877749 0.507880 0.498458 -0.314234
C7    C     C_3   0.118487 0.182629 0.623277 0.222835
C8    C     C_3   0.245801 0.130339 0.588926 -0.876248
C9    C     C_3   0.172830 0.359621 0.111249 0.135922
C10   C     C_3   0.259022 0.242062 0.050783 -0.764329
C11   C     C_3   0.815710 0.315751 0.860896 0.102974
C12   C     C_R   0.256863 0.507696 0.500315 0.974670
C13   C     C_3   0.706115 0.213946 0.868311 -0.786664
C14   C     C_3   0.842039 0.195437 0.271641 0.110370
C15   C     C_3   0.929868 0.094298 0.182679 -0.887272
C16   C     C_3   0.183769 0.780556 0.736129 0.127758
C17   C     C_3   0.219316 0.712472 0.897008 -0.923191
C18   C     C_3   0.208462 0.784800 0.321191 0.096188
C19   C     C_3   0.220867 0.920250 0.218062 -0.872761
C20   C     C_3   0.865351 0.899270 0.602187 0.229795
C21   C     C_3   0.869712 0.939309 0.780237 -0.882783
C22   C     C_3   0.786909 0.772609 0.274141 0.134690
C23   C     C_R   0.742259 0.498468 0.499438 1.030347
C24   C     C_3   0.753280 0.721428 0.104273 -0.801193
C25   C     C_R   0.504304 0.782183 0.500038 0.851746
C26   C     C_1   0.512626 0.064643 0.499468 -0.234490
C27   C     C_3   0.067708 0.434163 0.655076 0.263688
C28   C     C_3   0.066204 0.452073 0.336502 0.233792
C29   C     C_3   0.926908 0.445703 0.664135 0.243572
C30   C     C_3   0.928775 0.417602 0.354563 0.276059
H1    H     H_    0.093843 0.500568 0.759071 0.167121
H2    H     H_    0.224052 0.461876 0.102954 0.154536
H3    H     H_    0.092759 0.367810 0.029079 0.135481
H4    H     H_    0.206224 0.147550 0.010085 0.232617
H5    H     H_    0.312165 0.282496 0.944623 0.240391
H6    H     H_    0.324252 0.210561 0.147694 0.267737
H7    H     H_    0.780878 0.423278 0.899801 0.135912
H8    H     H_    0.886142 0.283613 0.948739 0.138508
H9    H     H_    0.717320 0.131715 0.964812 0.190260
H10   H     H_    0.621499 0.273437 0.899072 0.245434
H11   H     H_    0.692925 0.158861 0.750090 0.278709
H12   H     H_    0.065862 0.542374 0.247480 0.059045
H13   H     H_    0.788594 0.264688 0.188026 0.125348
H14   H     H_    0.772288 0.129971 0.335662 0.140908
H15   H     H_    0.880825 0.029584 0.092044 0.220901
H16   H     H_    0.001796 0.154295 0.118257 0.278704
H17   H     H_    0.974313 0.020999 0.271209 0.301839
H18   H     H_    0.171889 0.896415 0.760857 0.169729
H19   H     H_    0.259772 0.765430 0.649969 0.152575
H20   H     H_    0.138487 0.711218 0.979175 0.255636
H21   H     H_    0.251683 0.600956 0.882382 0.266544
H22   H     H_    0.296325 0.772928 0.949847 0.237503
H23   H     H_    0.905601 0.531346 0.756030 0.098860
H24   H     H_    0.205006 0.693510 0.237497 0.161504
H25   H     H_    0.288909 0.777660 0.397368 0.147278
H26   H     H_    0.203808 0.018438 0.290202 0.290718
H27   H     H_    0.314331 0.926700 0.165103 0.226996
H28   H     H_    0.151910 0.920449 0.119891 0.260887
H29   H     H_    0.786147 0.956369 0.547900 0.117820
H30   H     H_    0.948908 0.937163 0.540057 0.195876
H31   H     H_    0.940260 0.877274 0.846482 0.288588
H32   H     H_    0.892930 0.053191 0.792750 0.256258
H33   H     H_    0.779098 0.918794 0.836529 0.253417
H34   H     H_    0.885308 0.453262 0.238503 0.080618
H35   H     H_    0.788619 0.890313 0.272898 0.132861
H36   H     H_    0.715306 0.746792 0.362112 0.182835
H37   H     H_    0.832119 0.735774 0.021098 0.256664
H38   H     H_    0.731347 0.605468 0.103670 0.249385
H39   H     H_    0.673032 0.783007 0.058714 0.218327
H40   H     H_    0.073155 0.192698 0.507648 0.263014
H41   H     H_    0.071916 0.100924 0.697441 0.146810
H42   H     H_    0.302521 0.136690 0.700152 0.271565
H43   H     H_    0.245789 0.017425 0.548113 0.214536
H44   H     H_    0.282831 0.198135 0.489688 0.282957
N1    N     N_1   0.500000 0.500030 0.073640 -0.081340
N2    N     N_1   0.500000 0.500030 0.926360 -0.087552
O1    O     O_R   0.500000 0.285340 0.636850 -0.620718
O2    O     O_3   0.134047 0.332162 0.274133 -0.590587
O3    O     O_3   0.870865 0.312227 0.703883 -0.568916
O4    O     O_3   0.907513 0.270428 0.390585 -0.580694
O5    O     O_3   0.070002 0.726143 0.685219 -0.671682
O6    O     O_3   0.103495 0.798612 0.418252 -0.641045
O7    O     O_3   0.845460 0.749676 0.594692 -0.661448
O8    O     O_3   0.903509 0.718271 0.315359 -0.663742
O9    O     O_R   0.500000 0.285340 0.363150 -0.625509
O10   O     O_R   0.314790 0.499970 0.636880 -0.608579
O11   O     O_R   0.314790 0.499970 0.363120 -0.630633
O12   O     O_R   0.685210 0.499970 0.636880 -0.589528
O13   O     O_R   0.685210 0.499970 0.363120 -0.678327
O14   O     O_R   0.500000 0.714650 0.636900 -0.609143
O15   O     O_R   0.500000 0.714650 0.363100 -0.647296
O16   O     O_3   0.126075 0.308307 0.715521 -0.630933
Zn1   Zn    Zn3+2 0.500000 0.499990 0.682780 0.963442
Zn2   Zn    Zn3+2 0.500000 0.499990 0.317220 0.928986

loop_
_geom_bond_atom_site_label_1
_geom_bond_atom_site_label_2
_ccdc_geom_bond_type
C19   H26   S    
C30   H34   S    
C27   C29   S    
C1    O1    A    
C15   H17   S    
C17   H21   S    
C7    H40   S    
C13   H11   S    
C7    C8    S    
C19   H27   S    
C25   O14   A    
C7    H41   S    
C6    C23   S    
O11   Zn2   S    
C18   C19   S    
C28   H12   S    
O13   Zn2   S    
C11   H7    S    
C22   H36   S    
C13   H10   S    
C16   O5    S    
C9    H2    S    
C5    C27   S    
C16   C17   S    
C4    O8    S    
C3    O5    S    
C23   O13   A    
C10   H5    S    
C14   O4    S    
C20   H30   S    
C28   O2    S    
C9    C10   S    
C21   H31   S    
C24   H37   S    
C30   O4    S    
C9    H3    S    
C16   H18   S    
C17   H22   S    
C24   H39   S    
C19   H28   S    
C1    O9    A    
C13   H9    S    
C25   O15   A    
C8    H42   S    
C27   H1    S    
C16   H19   S    
C5    C12   S    
C10   H4    S    
C24   H38   S    
C22   O8    S    
C11   H8    S    
N1    N2    T    
C22   H35   S    
O10   Zn1   S    
N2    Zn1   S    
C5    C28   S    
O9    Zn2   S    
C29   O3    S    
C3    O6    S    
C8    H44   S    
C27   O16   S    
C2    C26   T    
C20   H29   S    
C21   H32   S    
C11   O3    S    
C18   H25   S    
C4    C6    S    
C6    C30   S    
C23   O12   A    
C1    C26   S    
C22   C24   S    
C15   H15   S    
C3    C4    S    
O14   Zn1   S    
C14   H14   S    
O12   Zn1   S    
C12   O11   A    
C3    C5    S    
C17   H20   S    
C12   O10   A    
C28   C30   S    
O15   Zn2   S    
C11   C13   S    
C4    O7    S    
C29   H23   S    
C7    O16   S    
O1    Zn1   S    
C8    H43   S    
C18   O6    S    
C2    C25   S    
C9    O2    S    
C21   H33   S    
C18   H24   S    
C6    C29   S    
C20   C21   S    
C20   O7    S    
C14   C15   S    
C10   H6    S    
C15   H16   S    
N1    Zn2   S    
C14   H13   S    
