data_mof_unit_10947.cif
_audit_creation_date              2012-12-11T16:56:17-0500
_audit_creation_method            fapswitch 2.2
_symmetry_space_group_name_H-M    P1
_symmetry_Int_Tables_number       1
_space_group_crystal_system       triclinic
_cell_length_a                    6.960567
_cell_length_b                    14.729373
_cell_length_c                    16.055076
_cell_angle_alpha                 90.489067
_cell_angle_beta                  90.46074
_cell_angle_gamma                 89.740804
_cell_volume                      1645.91373693

loop_
_atom_site_label
_atom_site_type_symbol
_atom_type_description
_atom_site_fract_x
_atom_site_fract_y
_atom_site_fract_z
_atom_type_partial_charge
O1    O     O_R   0.505830 0.583360 0.413880 -0.535398
O2    O     O_R   0.175830 0.595460 0.585520 -0.545111
O3    O     O_R   0.005520 0.416640 0.586120 -0.540210
C1    C     C_R   0.345077 0.614055 0.617061 0.692919
O4    O     O_R   0.176120 0.594390 0.414490 -0.542337
O5    O     O_R   0.005810 0.415570 0.413870 -0.539825
C2    C     C_R   0.344569 0.616408 0.386007 0.696545
O6    O     O_R   0.505540 0.584430 0.586130 -0.538848
O7    O     O_3   0.339200 0.441330 0.500000 -0.371746
V1    V     V_3+5 0.064350 0.510880 0.500000 1.368971
O8    O     O_R   0.676100 0.404540 0.414480 -0.542233
C3    C     C_R   0.844839 0.382573 0.385718 0.695913
O9    O     O_R   0.675810 0.405610 0.585510 -0.550334
C4    C     C_R   0.846258 0.381274 0.610858 0.695121
V2    V     V_3+5 0.564340 0.489120 0.500000 1.374908
O10   O     O_3   0.839360 0.558670 0.500000 -0.372982
C5    C     C_2   0.715940 0.228097 0.797511 0.112228
C6    C     C_2   0.878373 0.187969 0.828578 -0.308547
H1    H     H_    0.017489 0.209144 0.807200 0.167247
C7    C     C_2   0.722259 0.295148 0.727977 -0.161955
C8    C     C_2   0.862719 0.306867 0.671443 0.026558
H2    H     H_    0.599796 0.341061 0.724353 0.105659
C9    C     C_R   0.731317 0.247692 0.188247 0.053054
C10   C     C_R   0.883158 0.185295 0.183489 -0.096455
C11   C     C_R   0.032048 0.194173 0.242940 -0.184516
H3    H     H_    0.153741 0.148329 0.241384 0.124079
C12   C     C_R   0.018715 0.258093 0.308653 -0.195270
H4    H     H_    0.131364 0.259963 0.355460 0.128507
C13   C     C_R   0.857339 0.315816 0.316253 -0.129154
C14   C     C_R   0.719739 0.312416 0.252019 0.089906
C15   C     C_3   0.505566 0.303739 0.255530 -0.096650
C16   C     C_3   0.520083 0.232140 0.186480 -0.406032
H5    H     H_    0.457870 0.274545 0.315504 0.127113
H6    H     H_    0.453474 0.251486 0.126132 0.177869
H7    H     H_    0.483207 0.162743 0.207549 0.154559
C17   C     C_R   0.515842 0.736441 0.697856 0.072800
C18   C     C_R   0.357362 0.680039 0.687595 -0.107292
C19   C     C_R   0.206375 0.692989 0.743519 -0.210158
H8    H     H_    0.087266 0.647776 0.740380 0.151385
C20   C     C_R   0.216404 0.759163 0.807511 -0.188745
H9    H     H_    0.103514 0.762125 0.853301 0.128152
C21   C     C_R   0.375049 0.818111 0.814616 -0.126513
C22   C     C_R   0.515339 0.811434 0.752063 0.058485
C23   C     C_3   0.728308 0.807819 0.762720 -0.138765
C24   C     C_3   0.718202 0.712935 0.723220 -0.120740
H10   H     H_    0.777142 0.810696 0.828688 0.151130
H11   H     H_    0.815314 0.701393 0.669477 0.142527
C25   C     C_R   0.508314 0.682628 0.260968 0.115216
C26   C     C_R   0.352826 0.681693 0.315976 -0.119129
C27   C     C_R   0.201247 0.742864 0.299821 -0.184898
H12   H     H_    0.078164 0.744951 0.340310 0.136011
C28   C     C_R   0.213214 0.806523 0.234851 -0.177863
H13   H     H_    0.098031 0.855294 0.227140 0.127812
C29   C     C_R   0.377422 0.811284 0.184024 -0.113833
C30   C     C_R   0.520300 0.745496 0.196736 0.104294
C31   C     C_3   0.731001 0.756797 0.209618 -0.414374
C32   C     C_3   0.717912 0.687825 0.279227 -0.395902
H14   H     H_    0.767467 0.826202 0.232137 0.166051
H15   H     H_    0.815069 0.731932 0.155378 0.176946
H16   H     H_    0.747518 0.716960 0.342096 0.170466
H17   H     H_    0.793536 0.622954 0.264998 0.163980
O11   O     O_R   0.229930 0.912420 0.917160 -0.535787
O12   O     O_R   0.559420 0.902500 0.088780 -0.538013
O13   O     O_R   0.729660 0.081330 0.089380 -0.536641
C33   C     C_R   0.390869 0.880766 0.117573 0.699303
O14   O     O_R   0.559650 0.901420 0.917750 -0.546690
O15   O     O_R   0.729880 0.080250 0.917130 -0.543064
C34   C     C_R   0.390397 0.882146 0.886687 0.692607
O16   O     O_R   0.229700 0.913500 0.089410 -0.537996
O17   O     O_3   0.396250 0.055540 0.003280 -0.374031
V3    V     V_3+5 0.671130 0.986010 0.003260 1.375860
O18   O     O_R   0.059600 0.091310 0.917720 -0.546592
C35   C     C_R   0.888553 0.116614 0.892853 0.716612
O19   O     O_R   0.059370 0.092380 0.088750 -0.546331
C36   C     C_R   0.890820 0.114523 0.117353 0.687939
V4    V     V_3+5 0.171120 0.007820 0.003230 1.369980
O20   O     O_3   0.896130 0.938240 0.003240 -0.368922
C37   C     C_3   0.520062 0.220391 0.838691 -0.311358
C38   C     C_3   0.515100 0.277107 0.919575 -0.294709
C39   C     C_3   0.311341 0.288589 0.952582 -0.783797
H18   H     H_    0.214654 0.317032 0.903902 0.221387
H19   H     H_    0.255136 0.222626 0.973739 0.259017
H20   H     H_    0.312376 0.336130 0.006515 0.208882
H21   H     H_    0.606326 0.244852 0.968211 0.194077
H22   H     H_    0.573343 0.345834 0.907491 0.187812
H23   H     H_    0.407205 0.247036 0.795863 0.149660
H24   H     H_    0.476568 0.149152 0.848644 0.192870
C40   C     C_3   0.832422 0.876679 0.706426 -0.345911
C41   C     C_3   0.746823 0.972494 0.712155 -0.310721
C42   C     C_3   0.860508 0.038781 0.659688 -0.762260
H25   H     H_    0.006549 0.048518 0.686643 0.239026
H26   H     H_    0.872759 0.013473 0.594559 0.219936
H27   H     H_    0.784016 0.104902 0.658432 0.247598
H28   H     H_    0.595997 0.972288 0.688891 0.189453
H29   H     H_    0.746859 0.995538 0.777867 0.207093
H30   H     H_    0.825540 0.854545 0.640002 0.175438
H31   H     H_    0.986273 0.878992 0.724886 0.193040
C43   C     C_3   0.727917 0.639952 0.792897 -0.351818
C44   C     C_3   0.770492 0.543565 0.761164 -0.279556
C45   C     C_3   0.873740 0.488890 0.829032 -0.818185
H32   H     H_    0.007097 0.523859 0.849774 0.227168
H33   H     H_    0.778263 0.480114 0.883406 0.228257
H34   H     H_    0.917547 0.421486 0.805225 0.227339
H35   H     H_    0.633661 0.509625 0.743661 0.185382
H36   H     H_    0.862294 0.544978 0.705058 0.194248
H37   H     H_    0.842010 0.660058 0.838031 0.171639
H38   H     H_    0.593166 0.638954 0.829716 0.185713
N1    N     N_3   0.027584 0.248279 0.667257 -0.695407
H39   H     H_    0.035531 0.221761 0.606764 0.226469
H40   H     H_    0.150266 0.287555 0.677832 0.229325
C46   C     C_3   0.390528 0.389681 0.230891 -0.309081
C47   C     C_3   0.483802 0.448586 0.163588 -0.306003
C48   C     C_3   0.339373 0.516265 0.127466 -0.786601
H41   H     H_    0.225961 0.479796 0.091650 0.222915
H42   H     H_    0.270299 0.556369 0.177895 0.233052
H43   H     H_    0.413879 0.563352 0.084943 0.220413
H44   H     H_    0.606568 0.486406 0.191514 0.187161
H45   H     H_    0.539444 0.405924 0.111732 0.197036
H46   H     H_    0.245976 0.367853 0.209029 0.193606
H47   H     H_    0.369370 0.432124 0.287684 0.171565

loop_
_geom_bond_atom_site_label_1
_geom_bond_atom_site_label_2
_ccdc_geom_bond_type
C37   H24   S    
C25   C30   A    
O14   C34   A    
C30   C31   S    
O12   C33   A    
C3    C13   S    
C12   C13   A    
C46   C47   S    
V3    O20   S    
O18   V4    S    
C40   H30   S    
C25   C32   S    
C29   C33   S    
C31   C32   S    
C18   C19   A    
O19   V4    S    
C4    C8    S    
C17   C18   A    
C19   C20   A    
C24   C43   S    
O5    C3    A    
C14   C15   S    
V2    O10   S    
C5    C7    S    
N1    H39   S    
O16   V4    S    
C46   H46   S    
C6    H1    S    
O13   V3    S    
C41   H28   S    
C5    C37   S    
O8    V2    S    
C44   C45   S    
C28   C29   A    
C1    C18   S    
C27   C28   A    
C9    C10   A    
C15   H5    S    
O17   V3    S    
O15   C35   A    
C31   H14   S    
O7    V1    S    
C40   H31   S    
C1    O6    A    
C48   H43   S    
C37   H23   S    
C20   C21   A    
C44   H35   S    
O9    C4    A    
C21   C34   S    
O11   V4    S    
C39   H20   S    
C47   C48   S    
C23   H10   S    
C27   H12   S    
C24   H11   S    
C19   H8    S    
C44   H36   S    
O19   C36   A    
C16   H7    S    
C10   C11   A    
C2    C26   S    
C39   H19   S    
O4    C2    A    
C37   C38   S    
O18   C35   A    
C32   H16   S    
C11   H3    S    
C45   H34   S    
C43   H38   S    
C46   H47   S    
C16   H6    S    
C41   H29   S    
O2    C1    A    
C22   C23   S    
C9    C14   A    
C13   C14   A    
C42   H26   S    
O14   V3    S    
C7    C8    D    
C45   H33   S    
C5    C6    D    
C17   C24   S    
V4    O20   S    
O3    C4    A    
O1    V2    S    
C20   H9    S    
O12   V3    S    
C26   C27   A    
O6    V2    S    
O9    V2    S    
O17   V4    S    
C11   C12   A    
C21   C22   A    
O2    V1    S    
C38   H22   S    
C28   H13   S    
C42   H27   S    
C48   H41   S    
C29   C30   A    
C25   C26   A    
O1    C2    A    
C15   C16   S    
C23   C24   S    
C7    H2    S    
C39   H18   S    
O5    V1    S    
O8    C3    A    
C10   C36   S    
C32   H17   S    
C6    C35   S    
C43   H37   S    
C31   H15   S    
O11   C34   A    
C47   H44   S    
C9    C16   S    
O7    V2    S    
O4    V1    S    
O3    V1    S    
V1    O10   S    
C47   H45   S    
C42   H25   S    
C38   H21   S    
C33   O16   A    
C45   H32   S    
O13   C36   A    
N1    H40   S    
O15   V3    S    
C8    N1    S    
C38   C39   S    
C40   C41   S    
C43   C44   S    
C12   H4    S    
C15   C46   S    
C17   C22   A    
C41   C42   S    
C23   C40   S    
C48   H42   S    
