data_mof_unit_63318.cif
_audit_creation_date              2012-12-10T20:04:43-0500
_audit_creation_method            fapswitch 2.2
_symmetry_space_group_name_H-M    P1
_symmetry_Int_Tables_number       1
_space_group_crystal_system       triclinic
_cell_length_a                    10.910527
_cell_length_b                    19.317723
_cell_length_c                    18.419784
_cell_angle_alpha                 90.284772
_cell_angle_beta                  105.176195
_cell_angle_gamma                 89.792132
_cell_volume                      3746.82396958

loop_
_atom_site_label
_atom_site_type_symbol
_atom_type_description
_atom_site_fract_x
_atom_site_fract_y
_atom_site_fract_z
_atom_type_partial_charge
C1    C     C_R   0.500709 0.365476 0.499888 1.006538
C2    C     C_R   0.499291 0.634524 0.500112 1.006540
C3    C     C_R   0.496993 0.709911 0.500194 -0.396580
C4    C     C_R   0.503011 0.290089 0.499807 -0.396580
C5    C     C_R   0.384759 0.966650 0.497825 0.472762
C6    C     C_R   0.615255 0.033349 0.502178 0.472765
C7    C     C_R   0.390918 0.038327 0.499783 -0.164683
C8    C     C_R   0.609096 0.961673 0.500220 -0.164685
C9    C     C_R   0.505439 0.071528 0.501838 0.054548
C10   C     C_R   0.494575 0.928472 0.498164 0.054552
C11   C     C_R   0.419553 0.542614 0.714116 -0.132384
C12   C     C_R   0.580447 0.457386 0.285884 -0.132384
C13   C     C_R   0.418199 0.543183 0.790127 0.660493
C14   C     C_R   0.581801 0.456817 0.209873 0.660492
C15   C     C_R   0.500223 0.499308 0.841597 -0.100079
C16   C     C_R   0.499777 0.500692 0.158403 -0.100079
C17   C     C_R   0.583265 0.455979 0.814850 0.228988
C18   C     C_R   0.416734 0.544020 0.185150 0.228989
C19   C     C_R   0.581240 0.457225 0.738152 0.695157
C20   C     C_R   0.418760 0.542775 0.261848 0.695156
C21   C     C_R   0.441954 0.445302 0.953178 0.281550
C22   C     C_R   0.558046 0.554698 0.046822 0.281549
C23   C     C_R   0.258689 0.498981 0.468067 0.880457
C24   C     C_R   0.741311 0.501019 0.531933 0.880456
C25   C     C_R   0.443394 0.445970 0.029838 0.650170
C26   C     C_R   0.556605 0.554030 0.970162 0.650171
C27   C     C_R   0.500920 0.500561 0.077329 -0.180538
C28   C     C_R   0.499080 0.499439 0.922670 -0.180539
C29   C     C_2   0.122174 0.504112 0.448113 0.133888
C30   C     C_2   0.877826 0.495888 0.551887 0.133888
C31   C     C_2   0.063638 0.487815 0.501324 0.445214
C32   C     C_2   0.936362 0.512185 0.498676 0.445214
C33   C     C_R   0.504715 0.745509 0.435289 -0.266558
C34   C     C_R   0.495285 0.254491 0.564711 -0.266554
C35   C     C_R   0.502922 0.817207 0.434356 0.677075
C36   C     C_R   0.497082 0.182793 0.565645 0.677073
C37   C     C_R   0.492714 0.853654 0.498233 -0.278391
C38   C     C_R   0.507300 0.146346 0.501769 -0.278392
C39   C     C_R   0.484905 0.818802 0.563175 0.605877
C40   C     C_R   0.515112 0.181197 0.436828 0.605879
C41   C     C_R   0.486727 0.747066 0.564338 0.578972
C42   C     C_R   0.513286 0.252933 0.435664 0.578969
H1    H     H_    0.512624 0.718010 0.385311 0.260099
H2    H     H_    0.487369 0.281990 0.614688 0.260097
H3    H     H_    0.306389 0.068319 0.498943 0.215833
H4    H     H_    0.693625 0.931680 0.501059 0.215832
H5    H     H_    0.356041 0.576312 0.674633 0.232067
H6    H     H_    0.643959 0.423688 0.325367 0.232070
N1    N     N_R   0.500020 0.499980 0.689440 -0.212903
N2    N     N_R   0.499980 0.500020 0.310560 -0.212904
O1    O     O_R   0.500000 0.398180 0.560840 -0.578908
O2    O     O_R   0.500000 0.601820 0.439160 -0.578908
O3    O     O_R   0.499950 0.398180 0.439200 -0.573552
O4    O     O_R   0.500050 0.601820 0.560800 -0.573551
O5    O     O_R   0.317830 0.500010 0.538110 -0.587683
O6    O     O_R   0.682170 0.499990 0.461890 -0.587682
O7    O     O_R   0.317770 0.500000 0.416470 -0.549256
O8    O     O_R   0.682230 0.500000 0.583530 -0.549256
Zn1   Zn    Zn3+2 0.500040 0.500000 0.581220 1.115274
Zn2   Zn    Zn3+2 0.499960 0.500000 0.418780 1.115274
F1    F     F_    0.874250 0.552554 0.439884 -0.604823
F2    F     F_    0.125750 0.447446 0.560116 -0.604823
F3    F     F_    0.336691 0.585905 0.813204 -0.542201
F4    F     F_    0.663309 0.414095 0.186796 -0.542200
Cl1   Cl    Cl    0.691644 0.401023 0.876125 -0.304694
Cl2   Cl    Cl    0.308356 0.598977 0.123875 -0.304694
F5    F     F_    0.661057 0.415741 0.712191 -0.550943
F6    F     F_    0.338943 0.584258 0.287809 -0.550943
Cl3   Cl    Cl    0.365595 0.376522 0.895939 -0.294476
Cl4   Cl    Cl    0.634405 0.623478 0.104060 -0.294476
F7    F     F_    0.387203 0.393612 0.058033 -0.518567
F8    F     F_    0.612796 0.606388 0.941967 -0.518566
Cl5   Cl    Cl    0.953530 0.461038 0.641212 -0.329311
Cl6   Cl    Cl    0.046470 0.538962 0.358788 -0.329311
F9    F     F_    0.510767 0.851137 0.371343 -0.552322
F10   F     F_    0.489233 0.148863 0.628657 -0.552322
F11   F     F_    0.477064 0.854483 0.625547 -0.523590
F12   F     F_    0.522961 0.145516 0.374457 -0.523588
F13   F     F_    0.478455 0.714511 0.628064 -0.557766
F14   F     F_    0.521564 0.285488 0.371939 -0.557766
Cl7   Cl    Cl    0.238278 0.926385 0.493243 -0.394763
Cl8   Cl    Cl    0.761736 0.073615 0.506761 -0.394758

loop_
_geom_bond_atom_site_label_1
_geom_bond_atom_site_label_2
_ccdc_geom_bond_type
C30   C32   D    
C42   F14   S    
C6    Cl8   S    
O5    Zn1   S    
C26   F8    S    
C11   H5    S    
C12   H6    S    
C6    C9    A    
C39   C41   A    
C35   F9    S    
C10   C37   S    
C23   C29   S    
C35   C37   A    
C32   F1    S    
C3    C33   A    
C18   C20   A    
C23   O7    A    
C1    O3    A    
C20   N2    A    
O2    Zn2   S    
C17   C19   A    
C19   F5    S    
C25   F7    S    
C36   F10   S    
C34   C36   A    
C16   C27   S    
C40   C42   A    
C31   F2    S    
O3    Zn2   S    
C24   C30   S    
O4    Zn1   S    
C4    C34   A    
C33   H1    S    
C34   H2    S    
C2    O4    A    
C5    C7    A    
C30   Cl5   S    
O7    Zn2   S    
C6    C8    A    
C29   Cl6   S    
O8    Zn1   S    
O6    Zn2   S    
C21   Cl3   S    
C11   N1    A    
C5    Cl7   S    
C19   N1    A    
C31   C32   S    
C13   F3    S    
C29   C31   D    
C14   F4    S    
C16   C18   A    
C1    O1    A    
C2    O2    A    
C8    C10   A    
C21   C28   A    
C12   C14   A    
C22   C27   A    
C13   C15   A    
C14   C16   A    
C24   O6    A    
C7    H3    S    
C7    C9    A    
C21   C25   A    
C18   Cl2   S    
C3    C41   A    
C26   C28   A    
C20   F6    S    
C41   F13   S    
C12   N2    A    
C23   O5    A    
C25   C27   A    
C17   Cl1   S    
N1    Zn1   S    
C1    C4    S    
N2    Zn2   S    
C36   C38   A    
C2    C3    S    
C5    C10   A    
C37   C39   A    
C38   C40   A    
C11   C13   A    
C15   C28   S    
C4    C42   A    
C9    C38   S    
C33   C35   A    
C40   F12   S    
C8    H4    S    
O1    Zn1   S    
C24   O8    A    
C22   C26   A    
C39   F11   S    
C15   C17   A    
C22   Cl4   S    
