data_mof_unit_39507.cif
_audit_creation_date              2012-12-11T15:43:57-0500
_audit_creation_method            fapswitch 2.2
_symmetry_space_group_name_H-M    P1
_symmetry_Int_Tables_number       1
_space_group_crystal_system       triclinic
_cell_length_a                    14.614289
_cell_length_b                    16.12215
_cell_length_c                    6.912929
_cell_angle_alpha                 90.028598
_cell_angle_beta                  99.331138
_cell_angle_gamma                 90.00935
_cell_volume                      1607.22849332

loop_
_atom_site_label
_atom_site_type_symbol
_atom_type_description
_atom_site_fract_x
_atom_site_fract_y
_atom_site_fract_z
_atom_type_partial_charge
O1    O     O_R   0.831700 0.662810 0.581550 -0.501154
O2    O     O_R   0.168300 0.337190 0.418450 -0.502373
O3    O     O_R   0.168300 0.162810 0.418450 -0.501016
O4    O     O_R   0.831700 0.837190 0.581550 -0.510119
O5    O     O_R   0.842890 0.834390 0.255500 -0.530357
O6    O     O_R   0.157110 0.165610 0.744500 -0.542590
O7    O     O_R   0.157110 0.334390 0.744500 -0.530939
O8    O     O_R   0.842890 0.665610 0.255500 -0.543531
O9    O     O_R   0.661690 0.835580 0.024130 -0.546819
O10   O     O_R   0.338310 0.164420 0.975870 -0.570618
O11   O     O_R   0.338310 0.335580 0.975870 -0.559632
O12   O     O_R   0.661690 0.664420 0.024130 -0.569483
C1    C     C_R   0.863666 0.865985 0.431038 0.809767
C2    C     C_R   0.137046 0.133582 0.569290 0.791306
C3    C     C_R   0.136664 0.366195 0.569077 0.777228
C4    C     C_R   0.863166 0.633689 0.430744 0.783358
C5    C     C_R   0.069563 0.063129 0.535380 -0.250762
C6    C     C_R   0.931974 0.935942 0.465523 -0.235471
C7    C     C_R   0.930875 0.563342 0.464669 -0.247112
C8    C     C_R   0.068622 0.436275 0.534453 -0.247593
H1    H     H_    0.017508 0.884454 0.270824 0.192826
H2    H     H_    0.983903 0.114627 0.729753 0.198541
H3    H     H_    0.984071 0.385778 0.732239 0.193853
H4    H     H_    0.015485 0.613845 0.266940 0.197228
C9    C     C_R   0.009713 0.934995 0.370136 -0.239546
C10   C     C_R   0.991991 0.063910 0.631122 -0.236026
C11   C     C_R   0.991454 0.435892 0.631613 -0.215596
C12   C     C_R   0.007959 0.563628 0.367184 -0.222370
O13   O     O_3   0.687240 0.750000 0.366320 -0.397211
O14   O     O_3   0.312760 0.250000 0.633680 -0.399208
V1    V     V_3+5 0.757720 0.750000 0.115230 1.556087
V2    V     V_3+5 0.242280 0.250000 0.884770 1.548523
O15   O     O_R   0.650500 0.664000 0.690740 -0.521205
O16   O     O_R   0.349500 0.336000 0.309260 -0.527762
O17   O     O_R   0.349500 0.164000 0.309260 -0.521927
O18   O     O_R   0.650500 0.836000 0.690740 -0.541334
C13   C     C_R   0.624632 0.638541 0.851532 0.727329
C14   C     C_R   0.373567 0.362729 0.147510 0.756815
C15   C     C_R   0.375494 0.138707 0.148513 0.725597
C16   C     C_R   0.626244 0.862545 0.852631 0.721002
C17   C     C_R   0.078821 0.996632 0.404560 0.490748
C18   C     C_R   0.922794 0.002515 0.595921 0.491842
C19   C     C_R   0.922165 0.497287 0.596874 0.487122
C20   C     C_R   0.077168 0.502165 0.401737 0.423077
V3    V     V_3+5 0.735670 0.750000 0.607790 1.598447
V4    V     V_3+5 0.264330 0.250000 0.392210 1.614038
O19   O     O_3   0.806150 0.750000 0.906560 -0.339705
O20   O     O_3   0.193850 0.250000 0.093440 -0.338922
H5    H     H_    0.406901 0.032451 0.877515 0.161366
H6    H     H_    0.586711 0.959298 0.135534 0.151917
H7    H     H_    0.593441 0.532589 0.123806 0.157938
H8    H     H_    0.412992 0.459977 0.866023 0.137234
C21   C     C_2   0.548998 0.923507 0.841333 0.058764
C22   C     C_2   0.454698 0.078836 0.161755 0.132804
C23   C     C_2   0.451007 0.423496 0.159436 0.111842
C24   C     C_2   0.545824 0.578233 0.838930 0.129479
C25   C     C_2   0.537395 0.968157 0.001885 -0.102239
C26   C     C_2   0.460785 0.029078 0.005475 -0.176076
C27   C     C_2   0.462670 0.468353 0.999389 -0.113438
C28   C     C_2   0.539647 0.528950 0.995760 -0.173114
S1    S     S_3+6 0.177307 0.985391 0.287288 -0.025593
O21   O     O_2   0.263410 0.011166 0.423423 -0.371134
O22   O     O_2   0.187235 0.896588 0.227301 -0.345753
O23   O     O_3   0.163525 0.045717 0.086423 -0.496809
H9    H     H_    0.210262 0.025629 0.008418 0.342921
S2    S     S_3+6 0.822252 0.015552 0.704767 -0.005217
O24   O     O_2   0.827478 0.958806 0.878597 -0.340203
O25   O     O_2   0.814381 0.103700 0.771178 -0.325354
O26   O     O_3   0.728605 0.992001 0.538973 -0.530624
H10   H     H_    0.675882 0.996650 0.611422 0.343998
S3    S     S_3+6 0.823925 0.485988 0.714951 -0.023496
O27   O     O_2   0.737536 0.511066 0.578921 -0.371377
O28   O     O_2   0.814529 0.397302 0.776205 -0.342412
O29   O     O_3   0.837630 0.546852 0.915035 -0.496785
H11   H     H_    0.790926 0.526921 0.993261 0.343298
S4    S     S_3+6 0.176180 0.513857 0.285950 0.001483
O30   O     O_2   0.167507 0.456476 0.112619 -0.322255
O31   O     O_2   0.183824 0.601468 0.215918 -0.326446
O32   O     O_3   0.272868 0.490157 0.443159 -0.513751
H12   H     H_    0.264956 0.517410 0.567807 0.306592
N1    N     N_2   0.528904 0.078600 0.326684 -0.536391
H13   H     H_    0.594034 0.084051 0.288693 0.288486
C29   C     C_3   0.520100 0.122634 0.505486 -0.433907
H14   H     H_    0.583329 0.113237 0.615746 0.207589
H15   H     H_    0.460529 0.098187 0.569144 0.235906
H16   H     H_    0.512650 0.190228 0.477427 0.165585
N2    N     N_2   0.484542 0.930275 0.663768 -0.521095
H17   H     H_    0.515450 0.927450 0.540024 0.282028
C30   C     C_3   0.407775 0.872836 0.652325 -0.413049
H18   H     H_    0.362842 0.878404 0.507393 0.263083
H19   H     H_    0.365631 0.886630 0.768479 0.217130
H20   H     H_    0.433573 0.807996 0.669184 0.145531
N3    N     N_2   0.471300 0.577533 0.675021 -0.528567
H21   H     H_    0.406855 0.586596 0.713990 0.264801
C31   C     C_3   0.480963 0.617151 0.491605 -0.405315
H22   H     H_    0.418858 0.603455 0.380848 0.232597
H23   H     H_    0.542228 0.592328 0.434731 0.233067
H24   H     H_    0.486261 0.685437 0.510461 0.156041
N4    N     N_2   0.515821 0.429487 0.336679 -0.519856
H25   H     H_    0.485366 0.425140 0.460829 0.295277
C32   C     C_3   0.593576 0.373344 0.344391 -0.436478
H26   H     H_    0.638412 0.377857 0.489710 0.266555
H27   H     H_    0.635528 0.389353 0.229336 0.220649
H28   H     H_    0.568903 0.308320 0.322893 0.148419

loop_
_geom_bond_atom_site_label_1
_geom_bond_atom_site_label_2
_ccdc_geom_bond_type
S2    O25   D    
N2    H17   S    
N3    H21   S    
C23   C27   D    
S1    O23   S    
O15   V3    S    
O6    V2    S    
C31   H22   S    
S4    O32   S    
C17   S1    S    
N1    H13   S    
C31   H24   S    
O2    V4    S    
C32   H26   S    
C1    C6    S    
C5    C10   A    
S4    O31   D    
C6    C18   A    
S2    O26   S    
O12   C13   A    
S1    O22   D    
O4    C1    A    
C20   S4    S    
N1    C29   S    
C13   C24   S    
C14   C23   S    
C29   H14   S    
O16   V4    S    
H3    C11   S    
C30   H19   S    
O5    C1    A    
S1    O21   D    
O7    C3    A    
S2    O24   D    
C27   C28   S    
O8    C4    A    
V1    O19   S    
V2    O20   S    
C2    C5    S    
C3    C8    S    
C6    C9    A    
C8    C20   A    
C7    C19   A    
O4    V3    S    
V3    O19   S    
C24   N3    S    
V4    O20   S    
O29   H11   S    
O18   C16   A    
S4    O30   D    
C9    C17   A    
S3    O28   D    
C21   C25   D    
C12   C20   A    
O9    C16   A    
O15   C13   A    
H5    C26   S    
C24   C28   D    
O13   V3    S    
O10   C15   A    
O11   C14   A    
O17   C15   A    
C7    C12   A    
H8    C27   S    
C11   C19   A    
O6    C2    A    
N4    H25   S    
O18   V3    S    
C21   N2    S    
O1    C4    A    
C30   H20   S    
O2    C3    A    
O3    C2    A    
N4    C32   S    
O11   V2    S    
C32   H28   S    
N2    C30   S    
O12   V1    S    
C10   C18   A    
C22   C26   D    
H1    C9    S    
C19   S3    S    
O7    V2    S    
C29   H15   S    
O16   C14   A    
O8    V1    S    
O14   V4    S    
H4    C12   S    
S3    O29   S    
C31   H23   S    
C8    C11   A    
O3    V4    S    
O23   H9    S    
S3    O27   D    
O13   V1    S    
O14   V2    S    
H6    C25   S    
O1    V3    S    
C25   C26   S    
N3    C31   S    
C4    C7    S    
O26   H10   S    
C5    C17   A    
O9    V1    S    
O32   H12   S    
C15   C22   S    
O10   V2    S    
C29   H16   S    
C32   H27   S    
C16   C21   S    
H2    C10   S    
C23   N4    S    
C18   S2    S    
H7    C28   S    
C30   H18   S    
O17   V4    S    
C22   N1    S    
O5    V1    S    
