data_mof_unit_43535.cif
_audit_creation_date              2012-10-26T18:30:21-0400
_audit_creation_method            fapswitch 2.2
_symmetry_space_group_name_H-M    P1
_symmetry_Int_Tables_number       1
_space_group_crystal_system       triclinic
_cell_length_a                    10.628774
_cell_length_b                    12.976546
_cell_length_c                    11.743631
_cell_angle_alpha                 100.829419
_cell_angle_beta                  94.128158
_cell_angle_gamma                 91.346658
_cell_volume                      1585.63027522

loop_
_atom_site_label
_atom_site_type_symbol
_atom_type_description
_atom_site_fract_x
_atom_site_fract_y
_atom_site_fract_z
_atom_type_partial_charge
C1    C     C_R   0.500490 0.298959 0.477651 0.568665
C2    C     C_R   0.600112 0.597553 0.860849 0.159929
C3    C     C_R   0.545215 0.547464 0.159204 0.023931
C4    C     C_R   0.454773 0.452536 0.840792 0.023929
C5    C     C_R   0.539846 0.538456 0.036055 -0.054659
C6    C     C_R   0.460146 0.461531 0.963940 -0.054644
C7    C     C_R   0.259253 0.499829 0.500076 0.549693
C8    C     C_R   0.740747 0.500171 0.499924 0.549654
C9    C     C_3   0.049628 0.506195 0.609677 -0.111226
C10   C     C_3   0.950371 0.493806 0.390322 -0.111268
C11   C     C_3   0.958917 0.417027 0.542227 -0.119321
C12   C     C_R   0.499511 0.701041 0.522348 0.568623
C13   C     C_3   0.041082 0.582974 0.457773 -0.119337
C14   C     C_3   0.877611 0.500093 0.499464 0.045484
C15   C     C_3   0.122389 0.499908 0.500536 0.045481
C16   C     C_3   0.966041 0.589257 0.566786 -0.126256
C17   C     C_3   0.033959 0.410744 0.433214 -0.126284
C18   C     C_R   0.494205 0.815020 0.536239 0.025348
C19   C     C_R   0.505806 0.184980 0.463754 0.025413
C20   C     C_R   0.567408 0.015571 0.362371 -0.114463
C21   C     C_R   0.432620 0.984431 0.637628 -0.114404
C22   C     C_R   0.555721 0.123994 0.365779 0.277083
C23   C     C_R   0.464027 0.137926 0.552840 -0.175264
C24   C     C_R   0.444318 0.876015 0.634216 0.276871
C25   C     C_3   0.420725 0.883574 0.831175 -0.083374
C26   C     C_3   0.579972 0.116300 0.168856 -0.083177
C27   C     C_2   0.670368 0.677541 0.812299 0.292243
C28   C     C_2   0.329770 0.322398 0.187704 0.292971
C29   C     C_3   0.186058 0.363299 0.936136 -0.117535
C30   C     C_3   0.813974 0.636632 0.063883 -0.117415
C31   C     C_R   0.535980 0.862072 0.447151 -0.175233
C32   C     C_R   0.473907 0.030712 0.547832 -0.007125
C33   C     C_R   0.526109 0.969289 0.452162 -0.007087
C34   C     C_R   0.387105 0.395024 0.016310 0.251709
C35   C     C_R   0.612923 0.604943 0.983697 0.251763
C36   C     C_R   0.399933 0.402420 0.139154 0.159977
Cu1   Cu    Cu3+1 0.509400 0.507730 0.615930 0.945442
Cu2   Cu    Cu3+1 0.490600 0.492270 0.384070 0.945579
H1    H     H_    0.922133 0.349207 0.576754 0.119625
H2    H     H_    0.389325 0.032660 0.708670 0.115156
H3    H     H_    0.394256 0.392739 0.784954 0.170048
H4    H     H_    0.605733 0.607261 0.215041 0.170102
H5    H     H_    0.346943 0.941839 0.852186 0.119528
H6    H     H_    0.516528 0.922684 0.845485 0.148093
H7    H     H_    0.416614 0.828690 0.892869 0.167521
H8    H     H_    0.484336 0.076888 0.154250 0.147959
H9    H     H_    0.654106 0.058280 0.148223 0.119451
H10   H     H_    0.584093 0.171108 0.107081 0.167442
H11   H     H_    0.709405 0.659594 0.729490 0.133378
H12   H     H_    0.077866 0.650795 0.423245 0.119633
H13   H     H_    0.290361 0.340432 0.270342 0.132895
H14   H     H_    0.190063 0.432923 0.893543 0.090182
H15   H     H_    0.145719 0.384680 0.021941 0.114303
H16   H     H_    0.120973 0.303480 0.880204 0.149640
H17   H     H_    0.854581 0.615861 0.978144 0.115026
H18   H     H_    0.809884 0.566612 0.105823 0.089943
H19   H     H_    0.878862 0.696230 0.120390 0.149463
H20   H     H_    0.092815 0.511206 0.699590 0.117669
H21   H     H_    0.907184 0.488797 0.300410 0.117675
H22   H     H_    0.935089 0.662209 0.621395 0.114120
H23   H     H_    0.064909 0.337792 0.378605 0.114048
H24   H     H_    0.575695 0.814728 0.373012 0.132568
H25   H     H_    0.424304 0.185267 0.626977 0.132574
H26   H     H_    0.610706 0.967325 0.291343 0.114971
N1    N     N_R   0.523540 0.519360 0.790140 -0.295347
N2    N     N_R   0.476460 0.480640 0.209860 -0.295364
O1    O     O_R   0.506670 0.354460 0.582000 -0.523963
O2    O     O_3   0.604446 0.174596 0.282956 -0.546100
O3    O     O_2   0.686718 0.767427 0.866462 -0.506522
O4    O     O_2   0.313950 0.232404 0.133738 -0.506202
O5    O     O_3   0.305799 0.319874 0.947154 -0.547090
O6    O     O_3   0.694236 0.680062 0.052894 -0.547005
O7    O     O_R   0.493330 0.645540 0.418000 -0.523937
O8    O     O_R   0.490800 0.341410 0.386200 -0.464076
O9    O     O_R   0.509200 0.658590 0.613800 -0.464338
O10   O     O_R   0.324790 0.506500 0.597880 -0.496263
O11   O     O_R   0.675210 0.493500 0.402120 -0.496266
O12   O     O_R   0.308910 0.493440 0.402080 -0.542995
O13   O     O_R   0.691090 0.506560 0.597920 -0.543033
O14   O     O_3   0.395598 0.825455 0.717064 -0.546228

loop_
_geom_bond_atom_site_label_1
_geom_bond_atom_site_label_2
_ccdc_geom_bond_type
C2    C35   A    
C3    H4    S    
C25   O14   S    
C2    N1    A    
C25   H5    S    
Cu1   O13   S    
C12   O9    A    
C18   C24   A    
C1    O8    A    
C9    C16   S    
C5    C6    A    
C28   H13   S    
C36   N2    A    
C29   H16   S    
C10   C17   S    
C30   H19   S    
C5    C35   A    
C9    H20   S    
C16   H22   S    
C17   H23   S    
C24   O14   S    
Cu2   N2    S    
Cu1   N1    S    
C8    O13   A    
C31   C33   A    
C2    C27   S    
C27   O3    D    
C26   H10   S    
C23   H25   S    
Cu1   O9    S    
C12   O7    A    
C31   H24   S    
C25   H6    S    
C21   C32   A    
C1    C19   S    
C19   C22   A    
C4    C6    A    
C10   C14   S    
C11   C14   S    
Cu2   O12   S    
C30   H18   S    
C6    C34   A    
C20   H26   S    
C19   C23   A    
Cu1   Cu2   S    
C11   H1    S    
C9    C11   S    
C22   O2    S    
C26   H9    S    
C7    O12   A    
C20   C33   A    
Cu1   O10   S    
C20   C22   A    
C35   O6    S    
C13   C15   S    
C8    O11   A    
C14   C16   S    
C21   C24   A    
C3    N2    A    
C25   H7    S    
Cu2   O8    S    
C15   C17   S    
C11   C17   S    
C8    C14   S    
C28   O4    D    
C3    C5    A    
C10   C13   S    
C30   O6    S    
C7    O10   A    
Cu2   O11   S    
C30   H17   S    
C26   O2    S    
C23   C32   A    
C10   H21   S    
C9    C15   S    
C32   C33   A    
C4    N1    A    
C21   H2    S    
C29   H15   S    
Cu1   O1    S    
C7    C15   S    
C1    O1    A    
C34   C36   A    
C26   H8    S    
C13   H12   S    
C28   C36   S    
C4    H3    S    
C13   C16   S    
C12   C18   S    
C18   C31   A    
C34   O5    S    
Cu2   O7    S    
C27   H11   S    
C29   O5    S    
C29   H14   S    
