data_mof_unit_45374.cif
_audit_creation_date              2012-10-26T19:39:28-0400
_audit_creation_method            fapswitch 2.2
_symmetry_space_group_name_H-M    P1
_symmetry_Int_Tables_number       1
_space_group_crystal_system       triclinic
_cell_length_a                    10.841403
_cell_length_b                    8.695218
_cell_length_c                    7.489591
_cell_angle_alpha                 102.674647
_cell_angle_beta                  95.049068
_cell_angle_gamma                 92.918755
_cell_volume                      684.359890782

loop_
_atom_site_label
_atom_site_type_symbol
_atom_type_description
_atom_site_fract_x
_atom_site_fract_y
_atom_site_fract_z
_atom_type_partial_charge
C1    C     C_R   0.486505 0.200168 0.453973 0.554747
C2    C     C_2   0.456942 0.033380 0.431938 -0.030596
C3    C     C_3   0.919826 0.701850 0.772782 -0.018284
C4    C     C_3   0.031519 0.805925 0.877672 -0.357446
C5    C     C_3   0.039577 0.228756 0.071336 0.026127
C6    C     C_3   0.946170 0.254854 0.918112 -0.376524
C7    C     C_2   0.365834 0.948116 0.275081 0.236733
C8    C     C_2   0.377171 0.342155 0.928188 0.521296
C9    C     C_2   0.503738 0.967267 0.566617 -0.179181
C10   C     C_R   0.265007 0.488866 0.499629 0.559130
C11   C     C_R   0.499849 0.799610 0.545704 0.528346
C12   C     C_R   0.734958 0.506907 0.500044 0.546644
C13   C     C_2   0.917352 0.405724 0.375590 -0.118982
C14   C     C_2   0.868986 0.517837 0.497206 0.215931
C15   C     C_2   0.051346 0.410142 0.352345 0.257382
C16   C     C_2   0.132273 0.461138 0.503192 -0.036535
Cu1   Cu    Cu3+1 0.513740 0.517380 0.684380 0.967717
Cu2   Cu    Cu3+1 0.486260 0.482620 0.315620 1.026740
H1    H     H_    0.856243 0.309546 0.290480 0.077229
H2    H     H_    0.996781 0.149987 0.151630 0.087225
H3    H     H_    0.115231 0.163021 0.006670 0.196699
H4    H     H_    0.993401 0.318329 0.826923 0.167878
H5    H     H_    0.904543 0.139176 0.834945 0.095589
H6    H     H_    0.870861 0.325690 0.976121 0.151637
H7    H     H_    0.313297 0.840794 0.283422 0.145058
H8    H     H_    0.403758 0.224794 0.869591 0.088218
H9    H     H_    0.100059 0.476847 0.638795 0.114746
H10   H     H_    0.557710 0.037355 0.689509 0.116251
H11   H     H_    0.596655 0.623702 0.051314 0.227567
H12   H     H_    0.907986 0.598948 0.837779 0.145433
H13   H     H_    0.836530 0.771532 0.785410 0.155871
H14   H     H_    0.114875 0.736678 0.876259 0.194377
H15   H     H_    0.049974 0.906509 0.812390 0.156297
H16   H     H_    0.013317 0.851905 0.022624 0.106235
N1    N     N_2   0.465540 0.456420 0.038510 -0.163134
N2    N     N_2   0.534460 0.543580 0.961490 -0.266467
O1    O     O_R   0.508930 0.286130 0.619780 -0.556369
O2    O     O_3   0.093021 0.375665 0.178530 -0.494016
O3    O     O_2   0.345692 0.999232 0.136733 -0.519787
O4    O     O_2   0.268244 0.370183 0.913453 -0.504291
O5    O     O_R   0.485720 0.256780 0.308360 -0.465954
O6    O     O_R   0.333540 0.514670 0.655670 -0.484352
O7    O     O_R   0.310330 0.485320 0.344250 -0.433470
O8    O     O_R   0.514280 0.743220 0.691640 -0.485739
O9    O     O_R   0.491070 0.713870 0.380220 -0.523465
O10   O     O_R   0.689670 0.514680 0.655750 -0.533482
O11   O     O_R   0.666460 0.485330 0.344330 -0.530250
O12   O     O_3   0.941092 0.655117 0.585913 -0.588783

loop_
_geom_bond_atom_site_label_1
_geom_bond_atom_site_label_2
_ccdc_geom_bond_type
C3    H12   S    
C14   O12   S    
C15   O2    S    
Cu1   N2    S    
C10   O6    A    
C8    H8    S    
Cu2   N1    S    
N1    N2    D    
C7    H7    S    
C1    O1    A    
C6    H6    S    
Cu2   O11   S    
C16   H9    S    
Cu1   Cu2   S    
Cu1   O8    S    
C11   O8    A    
C5    H2    S    
Cu1   O1    S    
C13   C14   D    
C3    H13   S    
C9    C11   S    
H11   N2    S    
C4    H14   S    
C12   O11   A    
C6    H5    S    
C1    O5    A    
C12   C14   S    
C13   C15   S    
C5    C6    S    
C4    H16   S    
C11   O9    A    
C13   H1    S    
C15   C16   D    
C6    H4    S    
Cu2   O9    S    
C3    O12   S    
C5    H3    S    
Cu1   O10   S    
C12   O10   A    
C1    C2    S    
Cu2   O5    S    
Cu2   O7    S    
C4    H15   S    
C7    O3    D    
Cu1   O6    S    
C10   C16   S    
C8    O4    D    
C10   O7    A    
C5    O2    S    
C2    C9    D    
C3    C4    S    
C2    C7    S    
C9    H10   S    
C8    N1    S    
