data_mof_unit_47855.cif
_audit_creation_date              2012-12-10T20:42:39-0500
_audit_creation_method            fapswitch 2.2
_symmetry_space_group_name_H-M    P1
_symmetry_Int_Tables_number       1
_space_group_crystal_system       triclinic
_cell_length_a                    8.881405
_cell_length_b                    10.678267
_cell_length_c                    9.964695
_cell_angle_alpha                 89.099861
_cell_angle_beta                  90.450313
_cell_angle_gamma                 90.540222
_cell_volume                      944.845157501

loop_
_atom_site_label
_atom_site_type_symbol
_atom_type_description
_atom_site_fract_x
_atom_site_fract_y
_atom_site_fract_z
_atom_type_partial_charge
C1    C     C_R   0.510591 0.260602 0.500805 0.905580
C2    C     C_R   0.606594 0.936203 0.395053 0.033069
C3    C     C_R   0.532479 0.871342 0.500088 -0.134824
C4    C     C_R   0.496276 0.934272 0.615695 0.063008
C5    C     C_3   0.361950 0.925858 0.705204 -0.071985
C6    C     C_3   0.370212 0.068088 0.710453 -0.514267
C7    C     C_R   0.446863 0.398370 0.070709 0.137077
C8    C     C_R   0.568907 0.593046 0.070644 -0.073900
C9    C     C_R   0.570338 0.592360 0.927262 -0.071004
C10   C     C_R   0.438590 0.403502 0.930452 0.083140
C11   C     C_3   0.283603 0.348830 0.924098 -0.061501
C12   C     C_R   0.219149 0.501666 0.499806 0.944883
C13   C     C_3   0.302963 0.319243 0.074960 0.184840
C14   C     C_R   0.506888 0.739609 0.499115 0.915138
C15   C     C_R   0.780915 0.500849 0.500399 0.921453
C16   C     C_1   0.065525 0.502870 0.500186 -0.128441
C17   C     C_1   0.934452 0.502398 0.500899 -0.129314
C18   C     C_R   0.502200 0.061178 0.618729 0.077306
C19   C     C_R   0.540905 0.129455 0.504113 -0.167813
C20   C     C_R   0.612458 0.067826 0.397251 0.086089
H1    H     H_    0.273995 0.265790 0.860145 0.139980
H2    H     H_    0.385430 0.877286 0.802608 0.181055
H3    H     H_    0.272497 0.117750 0.664588 0.202218
H4    H     H_    0.406352 0.100240 0.810943 0.193158
H5    H     H_    0.622629 0.669344 0.122977 0.152546
H6    H     H_    0.625399 0.668218 0.873056 0.141076
N1    N     N_R   0.499010 0.499140 0.142800 -0.093485
N2    N     N_R   0.499010 0.499180 0.857150 -0.087899
O1    O     O_R   0.500020 0.316790 0.614690 -0.617557
O2    O     O_R   0.500000 0.316760 0.385350 -0.601489
O3    O     O_R   0.285350 0.500020 0.614650 -0.589273
O4    O     O_R   0.285340 0.499980 0.385310 -0.592041
O5    O     O_R   0.500000 0.683240 0.614650 -0.624921
O6    O     O_R   0.499980 0.683210 0.385310 -0.608044
O7    O     O_R   0.714660 0.500020 0.614690 -0.611808
O8    O     O_R   0.714650 0.499980 0.385350 -0.588582
Zn1   Zn    Zn3+2 0.500010 0.500020 0.653130 0.984860
Zn2   Zn    Zn3+2 0.499990 0.499980 0.346870 1.005774
I1    I     I_    0.730819 0.165779 0.240879 -0.368370
I2    I     I_    0.106396 0.357133 0.191560 -0.245963
N3    N     N_3   0.338716 0.186454 0.096849 -0.449151
H7    H     H_    0.434542 0.161664 0.043246 0.172392
H8    H     H_    0.364341 0.172820 0.198519 0.230198
N4    N     N_3   0.672377 0.868838 0.287214 -0.438202
H9    H     H_    0.622946 0.899055 0.196960 0.203312
H10   H     H_    0.787664 0.889217 0.284676 0.214022
N5    N     N_3   0.226950 0.878289 0.636629 -0.430545
H11   H     H_    0.208274 0.928677 0.547152 0.199865
H12   H     H_    0.134847 0.893970 0.698647 0.210077
I3    I     I_    0.118164 0.491703 0.874677 -0.281738

loop_
_geom_bond_atom_site_label_1
_geom_bond_atom_site_label_2
_ccdc_geom_bond_type
C14   O6    A    
C7    C10   A    
C13   N3    S    
O4    Zn2   S    
N3    H8    S    
N3    H7    S    
C19   C20   A    
C7    C13   S    
C6    H4    S    
C14   O5    A    
O8    Zn2   S    
C2    C3    A    
C8    C9    A    
C4    C18   A    
N5    H12   S    
C11   I3    S    
C12   O4    A    
C8    H5    S    
C5    N5    S    
C16   C17   T    
C3    C14   S    
N2    Zn1   S    
C6    H3    S    
C1    O1    A    
C1    O2    A    
O7    Zn1   S    
N4    H10   S    
C9    H6    S    
C12   O3    A    
C5    C6    S    
C6    C18   S    
C1    C19   S    
O1    Zn1   S    
C10   C11   S    
N1    Zn2   S    
C10   N2    A    
C3    C4    A    
N5    H11   S    
O3    Zn1   S    
C15   O8    A    
C11   C13   S    
C7    N1    A    
N4    H9    S    
O2    Zn2   S    
C18   C19   A    
C15   O7    A    
C15   C17   S    
C20   I1    S    
C8    N1    A    
C13   I2    S    
O6    Zn2   S    
C2    C20   A    
C11   H1    S    
O5    Zn1   S    
C5    H2    S    
C12   C16   S    
C9    N2    A    
C2    N4    S    
C4    C5    S    
