data_mof_unit_7522.cif
_audit_creation_date              2012-10-26T19:09:53-0400
_audit_creation_method            fapswitch 2.2
_symmetry_space_group_name_H-M    P1
_symmetry_Int_Tables_number       1
_space_group_crystal_system       triclinic
_cell_length_a                    15.192964
_cell_length_b                    15.716311
_cell_length_c                    9.757314
_cell_angle_alpha                 89.825055
_cell_angle_beta                  90.447729
_cell_angle_gamma                 90.251439
_cell_volume                      2329.72136721

loop_
_atom_site_label
_atom_site_type_symbol
_atom_type_description
_atom_site_fract_x
_atom_site_fract_y
_atom_site_fract_z
_atom_type_partial_charge
C1    C     C_R   0.121242 0.381924 0.499846 0.694135
C2    C     C_R   0.878502 0.617700 0.499197 0.513801
C3    C     C_R   0.382308 0.878633 0.499833 0.550939
C4    C     C_R   0.378696 0.118209 0.499861 0.524098
C5    C     C_3   0.826405 0.250760 0.630610 -0.239934
C6    C     C_3   0.828010 0.249308 0.378952 -0.240983
C7    C     C_3   0.798898 0.723125 0.641577 -0.243292
C8    C     C_3   0.837297 0.760023 0.403400 -0.193004
C9    C     C_3   0.312985 0.761902 0.639065 -0.250584
C10   C     C_3   0.335773 0.739608 0.393973 -0.255864
C11   C     C_3   0.339522 0.263774 0.586924 -0.276099
C12   C     C_R   0.122283 0.616942 0.500311 0.606146
C13   C     C_3   0.292616 0.220734 0.353261 -0.230839
C14   C     C_3   0.238563 0.694118 0.645863 0.403776
C15   C     C_3   0.265151 0.667114 0.391026 0.391667
C16   C     C_3   0.278196 0.342629 0.570143 0.355209
C17   C     C_3   0.214873 0.284435 0.347389 0.429365
C18   C     C_3   0.753433 0.180408 0.638945 0.410517
C19   C     C_3   0.760186 0.174917 0.377006 0.390508
C20   C     C_3   0.724188 0.789055 0.649861 0.400249
C21   C     C_3   0.773110 0.836815 0.412287 0.380024
C22   C     C_3   0.716553 0.346265 0.499912 0.232042
C23   C     C_R   0.620950 0.881317 0.500533 0.631018
C24   C     C_3   0.714522 0.651006 0.445826 0.209094
C25   C     C_3   0.217821 0.847975 0.469934 0.262646
C26   C     C_3   0.214931 0.151728 0.552981 0.188150
C27   C     C_3   0.813341 0.308605 0.502217 -0.039969
C28   C     C_3   0.807620 0.685626 0.496611 -0.030026
C29   C     C_3   0.312583 0.809299 0.499786 -0.058812
C30   C     C_3   0.307371 0.186265 0.500311 -0.027346
C31   C     C_3   0.191219 0.686776 0.500532 0.179837
C32   C     C_3   0.189890 0.311889 0.499014 0.231906
C33   C     C_3   0.694616 0.183590 0.502982 0.195738
C34   C     C_R   0.624888 0.114214 0.500606 0.618093
C35   C     C_3   0.689538 0.810503 0.500299 0.202472
C36   C     C_3   0.145302 0.774701 0.466044 0.416636
C37   C     C_3   0.150766 0.230604 0.574736 0.424434
C38   C     C_3   0.645638 0.271557 0.496606 0.383526
C39   C     C_3   0.645655 0.727580 0.438930 0.428411
C40   C     C_3   0.997125 0.590481 0.081254 0.361290
C41   C     C_3   0.984410 0.588777 0.915288 0.381139
C42   C     C_3   0.927175 0.445613 0.085326 0.423036
C43   C     C_3   0.932257 0.439342 0.918669 0.343871
C44   C     C_3   0.503698 0.090914 0.080382 0.384575
C45   C     C_3   0.085939 0.462611 0.086321 0.525889
C46   C     C_3   0.486677 0.089936 0.914799 0.408706
C47   C     C_3   0.422025 0.952841 0.082830 0.375741
C48   C     C_3   0.426720 0.944842 0.916610 0.370292
C49   C     C_3   0.090290 0.472970 0.918319 0.504950
C50   C     C_3   0.582322 0.957038 0.086842 0.575820
C51   C     C_3   0.589305 0.971183 0.921877 0.502791
C52   C     C_R   0.881770 0.379122 0.500281 0.558947
Cu1   Cu    Cu3+1 0.000100 0.500000 0.642410 1.112314
Cu2   Cu    Cu3+1 0.000100 0.500000 0.357590 1.183862
Cu3   Cu    Cu3+1 0.500100 0.000000 0.642410 1.113938
Cu4   Cu    Cu3+1 0.500100 0.000000 0.357590 1.148790
H1    H     H_    0.828171 0.288786 0.725403 0.161972
H2    H     H_    0.896470 0.224178 0.382214 0.192520
H3    H     H_    0.862874 0.752650 0.672327 0.153144
H4    H     H_    0.904941 0.780710 0.432456 0.158425
H5    H     H_    0.378440 0.731901 0.656751 0.174190
H6    H     H_    0.401216 0.712801 0.420073 0.147580
H7    H     H_    0.406545 0.281972 0.554041 0.120877
H8    H     H_    0.354271 0.252164 0.317912 0.150138
H9    H     H_    0.304961 0.620645 0.772614 0.316496
H10   H     H_    0.346885 0.575080 0.350655 0.346143
H11   H     H_    0.373687 0.424412 0.534422 0.331359
H12   H     H_    0.824166 0.286246 0.283417 0.131695
H13   H     H_    0.259727 0.335809 0.178451 0.296241
H14   H     H_    0.825900 0.098132 0.738359 0.352719
H15   H     H_    0.840384 0.089937 0.302969 0.369271
H16   H     H_    0.780939 0.847860 0.804612 0.328718
H17   H     H_    0.778690 0.953088 0.480120 0.403056
H18   H     H_    0.208050 0.719970 0.836194 0.310960
H19   H     H_    0.226365 0.712454 0.209630 0.322227
H20   H     H_    0.318893 0.393892 0.742165 0.317912
H21   H     H_    0.158329 0.228050 0.189896 0.320386
H22   H     H_    0.697768 0.251846 0.782558 0.346722
H23   H     H_    0.785515 0.671213 0.715113 0.153179
H24   H     H_    0.703138 0.231864 0.218389 0.323132
H25   H     H_    0.678534 0.741816 0.822047 0.318474
H26   H     H_    0.744244 0.817228 0.215335 0.359505
H27   H     H_    0.641250 0.422576 0.626360 0.268603
H28   H     H_    0.746616 0.449232 0.620563 0.262349
H29   H     H_    0.644577 0.432911 0.385159 0.225893
H30   H     H_    0.704283 0.368144 0.290489 0.221266
H31   H     H_    0.665949 0.607957 0.635013 0.278062
H32   H     H_    0.628594 0.553937 0.499906 0.214696
H33   H     H_    0.759568 0.557176 0.318419 0.296755
H34   H     H_    0.842350 0.737018 0.297349 0.145684
H35   H     H_    0.662130 0.592222 0.273442 0.217341
H36   H     H_    0.188216 0.881944 0.672989 0.271133
H37   H     H_    0.245477 0.955009 0.585762 0.235789
H38   H     H_    0.158003 0.923510 0.322291 0.289650
H39   H     H_    0.230315 0.854394 0.256707 0.224561
H40   H     H_    0.257378 0.135371 0.755120 0.242804
H41   H     H_    0.162679 0.084962 0.717188 0.262211
H42   H     H_    0.224137 0.052001 0.415139 0.238986
H43   H     H_    0.124455 0.059916 0.486851 0.280396
H44   H     H_    0.034056 0.747922 0.563160 0.314498
H45   H     H_    0.305190 0.807495 0.723320 0.122107
H46   H     H_    0.047450 0.743370 0.340554 0.343387
H47   H     H_    0.193078 0.253283 0.763857 0.331247
H48   H     H_    0.038343 0.169456 0.576349 0.344391
H49   H     H_    0.539065 0.239520 0.598263 0.347387
H50   H     H_    0.547949 0.319408 0.388126 0.331858
H51   H     H_    0.537808 0.660407 0.473221 0.297577
H52   H     H_    0.571790 0.706312 0.273769 0.326601
H53   H     H_    0.073477 0.694336 0.094605 0.329791
H54   H     H_    0.031591 0.704679 0.881325 0.319342
H55   H     H_    0.889607 0.325249 0.096479 0.333808
H56   H     H_    0.345247 0.766712 0.291767 0.142246
H57   H     H_    0.978299 0.348925 0.795131 0.414978
H58   H     H_    0.588510 0.187697 0.082816 0.332728
H59   H     H_    0.535197 0.205333 0.877910 0.300575
H60   H     H_    0.360520 0.844849 0.114134 0.285061
H61   H     H_    0.389382 0.823105 0.905745 0.309387
H62   H     H_    0.865192 0.624943 0.133878 0.234798
H63   H     H_    0.933130 0.706374 0.109591 0.178403
H64   H     H_    0.844232 0.598614 0.926822 0.194100
H65   H     H_    0.893825 0.687621 0.887853 0.185275
H66   H     H_    0.804346 0.512582 0.070244 0.194680
H67   H     H_    0.344988 0.245797 0.696036 0.123415
H68   H     H_    0.799469 0.425361 0.154799 0.223370
H69   H     H_    0.841553 0.489838 0.773933 0.297384
H70   H     H_    0.805286 0.399833 0.858820 0.255331
H71   H     H_    0.378086 0.136838 0.137078 0.210691
H72   H     H_    0.451979 0.212100 0.113774 0.174339
H73   H     H_    0.348168 0.103758 0.941316 0.232412
H74   H     H_    0.397474 0.190397 0.891582 0.169885
H75   H     H_    0.335501 0.999852 0.228516 0.295794
H76   H     H_    0.284079 0.961571 0.092966 0.220730
H77   H     H_    0.340194 0.993533 0.762907 0.317342
H78   H     H_    0.278563 0.167686 0.281950 0.131338
H79   H     H_    0.292561 0.920041 0.866714 0.195886
H80   H     H_    0.212957 0.478080 0.109444 0.328890
H81   H     H_    0.171377 0.572969 0.943353 0.359393
H82   H     H_    0.071408 0.335618 0.058489 0.377702
H83   H     H_    0.174568 0.381045 0.904897 0.337384
H84   H     H_    0.710019 0.966120 0.109455 0.348996
H85   H     H_    0.713562 0.008090 0.891764 0.359295
H86   H     H_    0.554841 0.833512 0.054206 0.352615
H87   H     H_    0.576583 0.856368 0.842181 0.408268
H88   H     H_    0.892552 0.220876 0.626612 0.152844
N1    N     N_3   0.001260 0.500000 0.143650 -0.157099
N2    N     N_3   0.219217 0.894868 0.339085 -0.619566
N3    N     N_3   0.224745 0.101320 0.679317 -0.647910
N4    N     N_3   0.176835 0.095340 0.447048 -0.551442
N5    N     N_3   0.929847 0.643775 0.145985 -0.575247
N6    N     N_3   0.897396 0.621844 0.873699 -0.602445
N7    N     N_3   0.841681 0.476440 0.137227 -0.579551
N8    N     N_3   0.843422 0.455140 0.864078 -0.662554
N9    N     N_3   0.443966 0.149932 0.150340 -0.554233
N10   N     N_3   0.398853 0.124432 0.879166 -0.605855
N11   N     N_3   0.339913 0.996058 0.122876 -0.657905
N12   N     N_3   0.001260 0.500000 0.856350 -0.193998
N13   N     N_3   0.339440 0.968689 0.860525 -0.619219
N14   N     N_3   0.501260 0.000000 0.143650 -0.181206
N15   N     N_3   0.501260 0.000000 0.856350 -0.188748
N16   N     N_3   0.704656 0.396970 0.624958 -0.609029
N17   N     N_3   0.705765 0.403165 0.380747 -0.628738
N18   N     N_3   0.684478 0.583760 0.540269 -0.655106
N19   N     N_3   0.723644 0.613113 0.308756 -0.609970
N20   N     N_3   0.195258 0.910230 0.576834 -0.557218
O1    O     O_R   0.091250 0.408820 0.620260 -0.407929
O2    O     O_R   0.908940 0.408800 0.379740 -0.436197
O3    O     O_R   0.908940 0.591200 0.620260 -0.507948
O4    O     O_R   0.908940 0.591200 0.379740 -0.495259
O5    O     O_R   0.408940 0.908800 0.620260 -0.515431
O6    O     O_R   0.408940 0.908800 0.379740 -0.463254
O7    O     O_R   0.408940 0.091200 0.620260 -0.493389
O8    O     O_R   0.408940 0.091200 0.379740 -0.525665
O9    O     O_3   0.273827 0.614273 0.683345 -0.579367
O10   O     O_3   0.306070 0.589739 0.425988 -0.586555
O11   O     O_3   0.319187 0.404740 0.487208 -0.606134
O12   O     O_R   0.091250 0.408820 0.379740 -0.367361
O13   O     O_3   0.241151 0.355920 0.270226 -0.597272
O14   O     O_3   0.793755 0.100118 0.649356 -0.607866
O15   O     O_3   0.806062 0.097653 0.388290 -0.618830
O16   O     O_3   0.756681 0.863616 0.713178 -0.615134
O17   O     O_3   0.819116 0.903879 0.476258 -0.593758
O18   O     O_3   0.177812 0.719507 0.745543 -0.637943
O19   O     O_3   0.229091 0.657137 0.258042 -0.598108
O20   O     O_3   0.261526 0.379647 0.698261 -0.654921
O21   O     O_3   0.141210 0.245858 0.283508 -0.583635
O22   O     O_3   0.702262 0.190906 0.757955 -0.578731
O23   O     O_R   0.091250 0.591180 0.620260 -0.374926
O24   O     O_3   0.715201 0.173357 0.250719 -0.581326
O25   O     O_3   0.655453 0.754165 0.728517 -0.654168
O26   O     O_3   0.749402 0.865347 0.280205 -0.629586
O27   O     O_3   0.079098 0.793677 0.563038 -0.631210
O28   O     O_3   0.105536 0.771980 0.334571 -0.724648
O29   O     O_3   0.136357 0.247778 0.714964 -0.669323
O30   O     O_3   0.067324 0.212500 0.516957 -0.637344
O31   O     O_3   0.589056 0.279281 0.610479 -0.719346
O32   O     O_3   0.593335 0.274820 0.376089 -0.736097
O33   O     O_3   0.568773 0.709558 0.515233 -0.676864
O34   O     O_R   0.091250 0.591180 0.379740 -0.408452
O35   O     O_3   0.620759 0.744575 0.301783 -0.652376
O36   O     O_3   0.077553 0.632255 0.111749 -0.605943
O37   O     O_3   0.045154 0.645144 0.855490 -0.581867
O38   O     O_3   0.935137 0.362343 0.139354 -0.612598
O39   O     O_3   0.952895 0.353675 0.886995 -0.702820
O40   O     O_3   0.588165 0.125743 0.102341 -0.524766
O41   O     O_3   0.546764 0.145606 0.850904 -0.536965
O42   O     O_3   0.418416 0.870185 0.138249 -0.654324
O43   O     O_3   0.439791 0.859271 0.878715 -0.724457
O44   O     O_3   0.158788 0.502660 0.149129 -0.523738
O45   O     O_R   0.591250 0.908820 0.620260 -0.423393
O46   O     O_3   0.157089 0.529651 0.873760 -0.574366
O47   O     O_3   0.094029 0.376520 0.126854 -0.598382
O48   O     O_3   0.115830 0.394560 0.865089 -0.607082
O49   O     O_3   0.657378 0.991791 0.151773 -0.496846
O50   O     O_3   0.654093 0.034028 0.895001 -0.519635
O51   O     O_3   0.583500 0.869875 0.123569 -0.582030
O52   O     O_3   0.622873 0.896504 0.865727 -0.678700
O53   O     O_R   0.591250 0.908820 0.379740 -0.382776
O54   O     O_R   0.591250 0.091180 0.620260 -0.403888
O55   O     O_R   0.591250 0.091180 0.379740 -0.379630
O56   O     O_R   0.908940 0.408800 0.620260 -0.576784

loop_
_geom_bond_atom_site_label_1
_geom_bond_atom_site_label_2
_ccdc_geom_bond_type
H65   N6    S    
H38   N2    S    
C46   O41   S    
Cu3   Cu4   S    
C23   O53   A    
C1    O12   A    
H63   N5    S    
H79   N13   S    
C4    O7    A    
C19   O15   S    
C36   O27   S    
H21   O21   S    
C13   H78   S    
C6    H2    S    
C49   N12   S    
C14   C31   S    
H43   N4    S    
H19   O19   S    
H71   N9    S    
H28   N16   S    
C20   O16   S    
C26   C37   S    
Cu1   Cu2   S    
C50   N14   S    
C21   O17   S    
C6    C19   S    
C45   O47   S    
C22   N16   S    
C40   N1    S    
H54   O37   S    
C9    H5    S    
C44   N9    S    
C7    H23   S    
H86   O51   S    
C14   O9    S    
C11   H7    S    
C10   C15   S    
H73   N10   S    
C25   N20   S    
H15   O15   S    
H76   N11   S    
C22   C38   S    
H82   O47   S    
C24   C39   S    
C44   N14   S    
C38   O31   S    
C49   O48   S    
C7    H3    S    
H37   N20   S    
C3    C29   S    
H29   N17   S    
Cu4   N14   S    
H13   O13   S    
C3    O5    A    
C5    C27   S    
C20   C35   S    
H70   N8    S    
Cu1   O3    S    
H27   N16   S    
C6    C27   S    
C11   C30   S    
C17   O21   S    
C15   O19   S    
C49   O46   S    
H46   O28   S    
C10   H56   S    
C25   N2    S    
H22   O22   S    
C1    O1    A    
Cu3   N15   S    
H77   N13   S    
C15   O10   S    
C9    C29   S    
C41   N12   S    
H9    O9    S    
H36   N20   S    
Cu1   O56   S    
C6    H12   S    
C39   O33   S    
Cu2   O12   S    
H26   O26   S    
H41   N3    S    
H35   N19   S    
C10   H6    S    
H39   N2    S    
Cu2   O2    S    
H55   O38   S    
Cu3   O7    S    
Cu4   O53   S    
C14   O18   S    
C44   C46   S    
C8    C21   S    
Cu3   O54   S    
C25   C29   S    
C46   N10   S    
C48   N15   S    
C24   N18   S    
C52   O56   A    
C51   O52   S    
C13   C30   S    
C33   C34   S    
C19   C33   S    
H11   O11   S    
C20   O25   S    
H51   O33   S    
C22   N17   S    
C34   O55   A    
H14   O14   S    
C5    H88   S    
H50   O32   S    
C41   N6    S    
C40   O36   S    
C50   O49   S    
C12   O23   A    
C18   O22   S    
C1    C32   S    
C4    C30   S    
C7    C28   S    
C37   O29   S    
H62   N5    S    
C35   C39   S    
C9    C14   S    
H69   N8    S    
C19   O24   S    
Cu3   O45   S    
H17   O17   S    
C11   C16   S    
C47   C48   S    
C45   C49   S    
C34   O54   A    
C50   C51   S    
H24   O24   S    
H74   N10   S    
H30   N17   S    
C32   C37   S    
C26   N4    S    
C42   N7    S    
H25   O25   S    
H72   N9    S    
Cu2   N1    S    
H18   O18   S    
H84   O49   S    
C51   O50   S    
Cu1   O1    S    
C40   C41   S    
H68   N7    S    
C26   C30   S    
C45   O44   S    
C23   C35   S    
C22   C27   S    
H59   O41   S    
C12   C31   S    
C43   O39   S    
C8    C28   S    
C45   N1    S    
C42   O38   S    
C24   N19   S    
C8    H34   S    
C42   C43   S    
H16   O16   S    
C41   O37   S    
C43   N12   S    
C2    O4    A    
C27   C52   S    
C16   O11   S    
H80   O44   S    
C17   O13   S    
H49   O31   S    
H40   N3    S    
C39   O35   S    
H48   O30   S    
C4    O8    A    
C47   O42   S    
Cu4   O6    S    
C36   O28   S    
C11   H67   S    
C24   C28   S    
Cu2   O4    S    
H61   O43   S    
H85   O50   S    
C16   O20   S    
C3    O6    A    
C15   C31   S    
C21   C35   S    
C13   C17   S    
H83   O48   S    
C16   C32   S    
C23   O45   A    
C48   N13   S    
H64   N6    S    
C33   C38   S    
Cu2   O34   S    
C5    H1    S    
H81   O46   S    
H66   N7    S    
H52   O35   S    
H75   N11   S    
Cu1   O23   S    
C37   O30   S    
H33   N19   S    
C10   C29   S    
C21   O26   S    
C13   H8    S    
H42   N4    S    
C50   O51   S    
C5    C18   S    
H32   N18   S    
C46   N15   S    
Cu4   O8    S    
C48   O43   S    
C51   N15   S    
C38   O32   S    
C40   N5    S    
H58   O40   S    
H57   O39   S    
C26   N3    S    
C18   C33   S    
H60   O42   S    
C25   C36   S    
C52   O2    A    
H44   O27   S    
H31   N18   S    
C18   O14   S    
Cu1   N12   S    
C9    H45   S    
C7    C20   S    
C44   O40   S    
C17   C32   S    
C12   O34   A    
C31   C36   S    
H10   O10   S    
H53   O36   S    
C2    C28   S    
H47   O29   S    
H20   O20   S    
C42   N1    S    
C2    O3    A    
Cu3   O5    S    
Cu4   O55   S    
C8    H4    S    
C43   N8    S    
H87   O52   S    
C47   N11   S    
C47   N14   S    
