data_mof_unit_19962.cif
_audit_creation_date              2012-12-11T17:07:30-0500
_audit_creation_method            fapswitch 2.2
_symmetry_space_group_name_H-M    P1
_symmetry_Int_Tables_number       1
_space_group_crystal_system       triclinic
_cell_length_a                    6.960016
_cell_length_b                    14.535979
_cell_length_c                    16.049471
_cell_angle_alpha                 89.979075
_cell_angle_beta                  90.047271
_cell_angle_gamma                 90.00231
_cell_volume                      1623.73469349

loop_
_atom_site_label
_atom_site_type_symbol
_atom_type_description
_atom_site_fract_x
_atom_site_fract_y
_atom_site_fract_z
_atom_type_partial_charge
O1    O     O_R   0.505720 0.583900 0.413310 -0.537524
O2    O     O_R   0.175940 0.594920 0.586080 -0.542858
O3    O     O_R   0.005640 0.416100 0.586690 -0.534188
C1    C     C_R   0.344901 0.617070 0.614720 0.696734
O4    O     O_R   0.176000 0.594930 0.413930 -0.543228
O5    O     O_R   0.005700 0.416110 0.413310 -0.541843
C2    C     C_R   0.344606 0.616681 0.385030 0.695785
O6    O     O_R   0.505660 0.583890 0.586690 -0.539502
O7    O     O_3   0.339200 0.441330 0.500000 -0.366308
V1    V     V_3+5 0.064350 0.510880 0.500000 1.390781
O8    O     O_R   0.675980 0.405080 0.413920 -0.538948
C3    C     C_R   0.845012 0.382780 0.385377 0.687125
O9    O     O_R   0.675920 0.405070 0.586070 -0.537293
C4    C     C_R   0.844663 0.383166 0.614594 0.698614
V2    V     V_3+5 0.564340 0.489120 0.500000 1.403796
O10   O     O_3   0.839360 0.558670 0.500000 -0.373572
H1    H     H_    0.142485 0.097363 0.515231 0.109840
C5    C     C_R   0.694233 0.423430 0.778891 -0.145109
C6    C     C_R   0.624440 0.445893 0.857616 -0.124555
C7    C     C_R   0.639233 0.383204 0.922665 -0.123607
C8    C     C_R   0.723325 0.297488 0.909384 -0.131093
C9    C     C_R   0.793581 0.272226 0.829808 0.070277
C10   C     C_R   0.779783 0.336772 0.763246 0.069623
C11   C     C_R   0.879773 0.185050 0.816369 -0.187607
C12   C     C_R   0.952338 0.162536 0.736283 0.071128
C13   C     C_R   0.939458 0.227264 0.669817 0.071071
C14   C     C_R   0.854155 0.314634 0.683377 -0.187337
C15   C     C_R   0.034423 0.075198 0.720274 -0.144587
C16   C     C_R   0.103003 0.052481 0.641391 -0.126166
C17   C     C_R   0.090172 0.115548 0.576558 -0.123851
C18   C     C_R   0.008707 0.201803 0.590126 -0.134730
H2    H     H_    0.680719 0.474976 0.730762 0.109264
H3    H     H_    0.559598 0.512566 0.868270 0.115456
H4    H     H_    0.586103 0.401198 0.983914 0.110844
H5    H     H_    0.733854 0.251864 0.962445 0.104998
H6    H     H_    0.045222 0.023203 0.768175 0.101338
H7    H     H_    0.165264 0.985305 0.630430 0.114369
H8    H     H_    0.998999 0.247624 0.537175 0.103051
C19   C     C_R   0.725516 0.247770 0.189058 0.095147
C20   C     C_R   0.882909 0.188558 0.180472 -0.111121
C21   C     C_R   0.036084 0.199614 0.237011 -0.180150
H9    H     H_    0.159464 0.154789 0.233395 0.134553
C22   C     C_R   0.023909 0.262952 0.303299 -0.184594
H10   H     H_    0.139745 0.266146 0.348112 0.130834
C23   C     C_R   0.857884 0.316824 0.315155 -0.106747
C24   C     C_R   0.713156 0.310211 0.254810 0.101028
C25   C     C_3   0.504055 0.292452 0.265957 -0.418306
C26   C     C_3   0.517400 0.225043 0.193902 -0.403342
H11   H     H_    0.415441 0.354060 0.251527 0.173967
H12   H     H_    0.472854 0.258680 0.326613 0.171186
H13   H     H_    0.437623 0.247942 0.137556 0.176545
H14   H     H_    0.492643 0.152334 0.212589 0.166844
C27   C     C_R   0.510387 0.684580 0.739998 0.093623
C28   C     C_R   0.353515 0.682789 0.685209 -0.108581
C29   C     C_R   0.200634 0.743501 0.701608 -0.182521
H15   H     H_    0.077297 0.745019 0.660784 0.134442
C30   C     C_R   0.211324 0.807378 0.767374 -0.182010
H16   H     H_    0.094890 0.855626 0.775630 0.124605
C31   C     C_R   0.375941 0.813042 0.818310 -0.108601
C32   C     C_R   0.521475 0.748305 0.804818 0.100480
C33   C     C_3   0.730185 0.764212 0.790685 -0.408042
C34   C     C_3   0.718407 0.694854 0.720248 -0.404506
H17   H     H_    0.819114 0.740259 0.844009 0.176064
H18   H     H_    0.760122 0.835412 0.768950 0.167119
H19   H     H_    0.801510 0.631120 0.732885 0.168419
H20   H     H_    0.741747 0.725664 0.657645 0.169625
C35   C     C_R   0.499410 0.752143 0.314435 0.059256
C36   C     C_R   0.351936 0.686983 0.318435 -0.101930
C37   C     C_R   0.203575 0.694536 0.258917 -0.178837
H21   H     H_    0.083713 0.647218 0.260326 0.120620
C38   C     C_R   0.215755 0.758902 0.193217 -0.185363
H22   H     H_    0.104394 0.759358 0.146117 0.125798
C39   C     C_R   0.375849 0.818014 0.185649 -0.129029
C40   C     C_R   0.508941 0.817211 0.251161 0.077945
C41   C     C_3   0.723652 0.817580 0.252669 -0.096999
C42   C     C_3   0.712466 0.743116 0.320143 -0.387722
H23   H     H_    0.785114 0.791743 0.193242 0.128380
H24   H     H_    0.769549 0.762429 0.382221 0.163699
H25   H     H_    0.761242 0.674603 0.297996 0.150860
O11   O     O_R   0.229140 0.916090 0.913340 -0.542193
O12   O     O_R   0.558860 0.905090 0.086080 -0.544656
O13   O     O_R   0.729100 0.083920 0.086690 -0.540771
C43   C     C_R   0.389862 0.883679 0.115318 0.692983
O14   O     O_R   0.558860 0.905090 0.913930 -0.538744
O15   O     O_R   0.729100 0.083920 0.913310 -0.534469
C44   C     C_R   0.389743 0.883246 0.885020 0.699728
O16   O     O_R   0.229140 0.916080 0.086720 -0.540213
O17   O     O_3   0.395570 0.058660 0.000020 -0.365234
V3    V     V_3+5 0.670450 0.989140 0.000000 1.390384
O18   O     O_R   0.058810 0.094980 0.913910 -0.536455
C45   C     C_R   0.889969 0.116730 0.885297 0.699619
O19   O     O_R   0.058810 0.094980 0.086060 -0.541647
C46   C     C_R   0.890185 0.117417 0.114462 0.681209
V4    V     V_3+5 0.170450 0.010950 0.999970 1.398240
O20   O     O_3   0.895460 0.941370 0.999990 -0.373567
C47   C     C_3   0.811260 0.910709 0.280149 -0.303752
C48   C     C_3   0.721664 0.953665 0.359133 -0.306283
C49   C     C_3   0.798432 0.050400 0.374630 -0.791246
H26   H     H_    0.958010 0.050366 0.375873 0.228023
H27   H     H_    0.746765 0.097437 0.325098 0.241696
H28   H     H_    0.744852 0.076221 0.435441 0.222449
H29   H     H_    0.562973 0.958139 0.352907 0.192133
H30   H     H_    0.755841 0.911213 0.414637 0.191270
H31   H     H_    0.967832 0.900779 0.290483 0.175464
H32   H     H_    0.794675 0.959696 0.227470 0.173207

loop_
_geom_bond_atom_site_label_1
_geom_bond_atom_site_label_2
_ccdc_geom_bond_type
C43   O16   A    
C29   H15   S    
C21   H9    S    
C6    C7    A    
C42   H25   S    
C20   C46   S    
C1    O6    A    
C48   C49   S    
O15   C45   A    
C25   H11   S    
C27   C28   A    
C12   C15   A    
C13   C14   A    
O13   V3    S    
C15   C16   A    
C42   H24   S    
O5    C3    A    
C17   C18   A    
C30   C31   A    
V2    O10   S    
O16   V4    S    
C37   C38   A    
C5    C6    A    
C39   C40   A    
C33   H17   S    
O11   C44   A    
C2    C36   S    
C28   C29   A    
O8    V2    S    
C26   H13   S    
C36   C37   A    
O1    V2    S    
C10   C14   A    
C4    C14   S    
O7    V1    S    
C48   H29   S    
O18   C45   A    
O12   V3    S    
C31   C32   A    
O13   C46   A    
C8    C9    A    
H1    C17   S    
C21   C22   A    
C37   H21   S    
O12   C43   A    
C27   C32   A    
C41   C47   S    
O18   V4    S    
C25   H12   S    
O17   V4    S    
C40   C41   S    
C34   H20   S    
C5    C10   A    
C11   C12   A    
C6    H3    S    
C19   C20   A    
C38   C39   A    
O15   V3    S    
C12   C13   A    
C23   C24   A    
C35   C36   A    
C32   C33   S    
V3    O20   S    
C33   H18   S    
O2    C1    A    
C41   C42   S    
C16   C17   A    
C41   H23   S    
C27   C34   S    
C25   C26   S    
O9    V2    S    
C47   C48   S    
O19   V4    S    
V4    O20   S    
C35   C40   A    
O17   V3    S    
C22   C23   A    
C48   H30   S    
O3    C4    A    
C19   C24   A    
C20   C21   A    
O6    V2    S    
C49   H27   S    
C47   H31   S    
C22   H10   S    
C9    C11   A    
C5    H2    S    
O14   V3    S    
O11   V4    S    
O2    V1    S    
C11   C45   S    
C47   H32   S    
O4    C2    A    
C24   C25   S    
C34   H19   S    
C1    C28   S    
O1    C2    A    
C13   C18   A    
O14   C44   A    
C3    C23   S    
O5    V1    S    
O8    C3    A    
C8    H5    S    
C49   H28   S    
C18   H8    S    
C29   C30   A    
O7    V2    S    
C31   C44   S    
C7    H4    S    
O4    V1    S    
O3    V1    S    
V1    O10   S    
C30   H16   S    
O19   C46   A    
C33   C34   S    
C26   H14   S    
C38   H22   S    
C7    C8    A    
C15   H6    S    
C49   H26   S    
C16   H7    S    
C9    C10   A    
C35   C42   S    
O9    C4    A    
C39   C43   S    
C19   C26   S    
