data_mof_unit_28511.cif
_audit_creation_date              2012-12-11T19:58:25-0500
_audit_creation_method            fapswitch 2.2
_symmetry_space_group_name_H-M    P1
_symmetry_Int_Tables_number       1
_space_group_crystal_system       triclinic
_cell_length_a                    8.245775
_cell_length_b                    16.255947
_cell_length_c                    22.896252
_cell_angle_alpha                 108.20289
_cell_angle_beta                  89.21361
_cell_angle_gamma                 83.888936
_cell_volume                      2895.33603541

loop_
_atom_site_label
_atom_site_type_symbol
_atom_type_description
_atom_site_fract_x
_atom_site_fract_y
_atom_site_fract_z
_atom_type_partial_charge
Ba1   Ba    Ba6+2 0.335320 0.541410 0.478120 1.666614
Ba2   Ba    Ba6+2 0.854470 0.458670 0.521900 1.685131
C1    C     C_3   0.024831 0.858022 0.364953 0.151434
C2    C     C_R   0.571799 0.575330 0.951338 -0.072552
C3    C     C_R   0.528172 0.571356 0.890594 0.619243
C4    C     C_3   0.520939 0.725713 0.346017 0.335768
C5    C     C_R   0.482054 0.421972 0.869265 0.589797
C6    C     C_R   0.525730 0.424087 0.929275 -0.047087
C7    C     C_R   0.570508 0.501119 0.970712 -0.059822
C8    C     C_R   0.616036 0.652201 0.993240 -0.117537
C9    C     C_R   0.656322 0.656580 0.053506 0.420279
C10   C     C_R   0.659016 0.581529 0.073089 -0.062431
C11   C     C_R   0.614544 0.503732 0.031452 -0.167896
C12   C     C_3   0.034705 0.769783 0.375948 0.322539
C13   C     C_R   0.525388 0.349903 0.948337 -0.133405
C14   C     C_R   0.569440 0.350843 0.007726 0.421602
C15   C     C_R   0.615191 0.428323 0.050097 -0.029087
C16   C     C_3   0.496249 0.750070 0.287612 -0.328856
C17   C     C_R   0.662448 0.432136 0.110462 0.633413
C18   C     C_R   0.703803 0.582542 0.133154 0.589234
C19   C     C_2   0.303879 0.452329 0.763567 -0.135095
C20   C     C_3   0.291804 0.419234 0.694826 -0.031388
C21   C     C_1   0.496055 0.515020 0.686885 0.037343
C22   C     C_2   0.539455 0.522192 0.744512 -0.174808
C23   C     C_3   0.060098 0.330739 0.325459 0.350717
C24   C     C_2   0.436855 0.490794 0.787051 0.189862
C25   C     C_R   0.889857 0.548288 0.239031 -0.087207
C26   C     C_R   0.929740 0.554720 0.299503 -0.019084
C27   C     C_R   0.697600 0.481577 0.311996 0.021040
C28   C     C_3   0.612978 0.727719 0.632254 0.301152
C29   C     C_R   0.653004 0.477200 0.251665 -0.096620
C30   C     C_R   0.747764 0.511828 0.214376 0.188030
C31   C     C_2   0.380208 0.466955 0.659939 0.103011
C32   C     C_2   0.402219 0.241258 0.484724 -0.266831
C33   C     C_R   0.800542 0.750628 0.512713 -0.306376
C34   C     C_3   0.060679 0.307972 0.255551 0.233124
C35   C     C_2   0.238248 0.125000 0.432164 -0.144620
C36   C     C_2   0.261717 0.209403 0.449055 0.021391
C37   C     C_2   0.507944 0.187615 0.503275 0.004124
C38   C     C_3   0.459378 0.099893 0.501667 -0.068120
C39   C     C_3   0.361019 0.059075 0.445601 0.031287
C40   C     C_3   0.585211 0.825902 0.663291 -0.363660
C41   C     C_2   0.598152 0.035993 0.506055 -0.052295
C42   C     C_2   0.566576 0.966880 0.521823 -0.072298
C43   C     C_R   0.837434 0.927724 0.556597 -0.003536
C44   C     C_R   0.697248 0.900710 0.525763 0.008879
C45   C     C_3   0.664863 0.272777 0.655938 0.309379
C46   C     C_R   0.955864 0.866927 0.567041 -0.134904
C47   C     C_R   0.934702 0.778508 0.546609 0.073763
C48   C     C_R   0.678484 0.811363 0.503822 0.013815
C49   C     C_3   0.584499 0.272862 0.370058 0.430771
C50   C     C_3   0.622947 0.174288 0.341845 0.316675
C51   C     C_3   0.134059 0.652568 0.668154 0.295104
C52   C     C_3   0.136783 0.675603 0.737774 -0.349817
C53   C     C_3   0.832533 0.062877 0.304006 0.264031
C54   C     C_3   0.997067 0.039159 0.268463 -0.305100
C55   C     C_3   0.561640 0.790456 0.119033 0.309620
C56   C     C_3   0.690414 0.247632 0.714246 0.225515
C57   C     C_3   0.611956 0.872213 0.165478 -0.291436
C58   C     C_3   0.141569 0.228166 0.626018 0.347282
C59   C     C_3   0.133211 0.140900 0.636734 -0.358320
C60   C     C_R   0.832263 0.523046 0.335702 -0.306323
H1    H     H_    0.098027 0.774680 0.419260 0.069752
H2    H     H_    0.063134 0.596267 0.650682 0.063354
H3    H     H_    0.213391 0.729246 0.756381 0.139261
H4    H     H_    0.187932 0.618083 0.750493 0.049317
H5    H     H_    0.010698 0.696508 0.758606 0.136666
H6    H     H_    0.908223 0.753929 0.380715 -0.028677
H7    H     H_    0.958875 0.854415 0.322400 0.089314
H8    H     H_    0.931602 0.345113 0.343843 -0.044198
H9    H     H_    0.124183 0.389595 0.344152 0.013448
H10   H     H_    0.998899 0.248479 0.236257 0.126839
H11   H     H_    0.991393 0.361687 0.242615 -0.032754
H12   H     H_    0.661473 0.844751 0.703918 0.135766
H13   H     H_    0.149689 0.874902 0.358309 0.067620
H14   H     H_    0.510138 0.690078 0.247329 0.116876
H15   H     H_    0.721165 0.333724 0.661286 0.048530
H16   H     H_    0.531852 0.284701 0.650378 -0.005432
H17   H     H_    0.819027 0.220028 0.715745 0.079500
H18   H     H_    0.666888 0.307214 0.754529 0.094442
H19   H     H_    0.271665 0.240653 0.628135 -0.020850
H20   H     H_    0.099057 0.223052 0.579271 0.071844
H21   H     H_    0.216393 0.089547 0.602625 0.068015
H22   H     H_    0.007317 0.122412 0.631359 0.138190
H23   H     H_    0.618350 0.860425 0.631033 0.049281
H24   H     H_    0.448781 0.671067 0.343609 0.103463
H25   H     H_    0.171312 0.144772 0.683764 0.147082
H26   H     H_    0.490803 0.290149 0.916730 0.129669
H27   H     H_    0.969647 0.571675 0.211356 0.119634
H28   H     H_    0.619500 0.710071 0.979540 0.136365
H29   H     H_    0.651636 0.548992 0.760664 0.144696
H30   H     H_    0.221817 0.431377 0.792132 0.130926
H31   H     H_    0.545760 0.446700 0.233924 0.129928
H32   H     H_    0.866222 0.526983 0.381895 0.081161
H33   H     H_    0.652625 0.704123 0.348133 -0.039665
H34   H     H_    0.454511 0.846374 0.678460 0.128807
H35   H     H_    0.137397 0.102115 0.404028 0.092823
H36   H     H_    0.059789 0.889193 0.593297 0.089798
H37   H     H_    0.426460 0.307627 0.491031 0.106416
H38   H     H_    0.785696 0.681930 0.496994 0.071326
H39   H     H_    0.721988 0.042641 0.493096 0.142657
H40   H     H_    0.440896 0.958495 0.530972 0.094672
H41   H     H_    0.371595 0.783779 0.288412 0.125505
H42   H     H_    0.587245 0.793658 0.283102 0.118933
H43   H     H_    0.743541 0.708144 0.618130 0.002455
H44   H     H_    0.537317 0.710606 0.591371 0.054986
H45   H     H_    0.453674 0.289036 0.383991 -0.132589
H46   H     H_    0.741950 0.025532 0.274217 0.020425
H47   H     H_    0.843532 0.043342 0.346378 0.094947
H48   H     H_    0.090605 0.076044 0.296180 0.132231
H49   H     H_    0.035989 0.968249 0.257584 0.053068
H50   H     H_    0.987474 0.055146 0.224797 0.139203
H51   H     H_    0.018110 0.939648 0.447376 0.305150
H52   H     H_    0.261796 0.349735 0.238558 0.314512
H53   H     H_    0.626284 0.130982 0.688485 0.310584
H54   H     H_    0.532673 0.228855 0.990246 0.305096
H55   H     H_    0.482572 0.759368 0.143893 0.037857
H56   H     H_    0.659149 0.294644 0.410826 0.033237
H57   H     H_    0.490166 0.810120 0.083657 0.024865
H58   H     H_    0.686292 0.906633 0.141879 0.129343
H59   H     H_    0.501621 0.916652 0.188273 0.054163
H60   H     H_    0.685188 0.854615 0.201081 0.131684
H61   H     H_    0.299526 0.471197 0.583984 0.309864
H62   H     H_    0.541379 0.151298 0.303152 0.043858
H63   H     H_    0.597480 0.143620 0.377653 -0.104500
H64   H     H_    0.260759 0.634566 0.648411 -0.009272
N1    N     N_R   0.483628 0.495055 0.849806 -0.420027
N2    N     N_R   0.702638 0.508956 0.151854 -0.443109
O1    O     O_2   0.414630 0.451750 0.353890 -0.458703
O2    O     O_2   0.845133 0.188692 0.494326 -0.484611
O3    O     O_3   0.739593 0.205252 0.605425 -0.627047
O4    O     O_3   0.654720 0.452660 0.425060 -0.499231
O5    O     O_3   0.021450 0.605740 0.544090 -0.499773
O6    O     O_2   0.953100 0.285520 0.441860 -0.443436
O7    O     O_3   0.138140 0.259583 0.340503 -0.619446
O8    O     O_2   0.946197 0.462352 0.703672 -0.505574
O9    O     O_3   0.041635 0.294199 0.670918 -0.603980
O10   O     O_2   0.527351 0.636395 0.874607 -0.588461
O11   O     O_2   0.443290 0.354166 0.834163 -0.575257
O12   O     O_3   0.061916 0.725239 0.653616 -0.628571
O13   O     O_2   0.671117 0.366329 0.125779 -0.513043
O14   O     O_2   0.743539 0.649443 0.168992 -0.578285
O15   O     O_3   0.116150 0.611500 0.411510 -0.486226
O16   O     O_2   0.267883 0.547805 0.299862 -0.502947
O17   O     O_3   0.618331 0.312262 0.325860 -0.616846
O18   O     O_3   0.123236 0.706616 0.326098 -0.633480
O19   O     O_2   0.236590 0.714510 0.558180 -0.461354
O20   O     O_3   0.511480 0.656670 0.446630 -0.499251
O21   O     O_2   0.339129 0.810045 0.504355 -0.498806
O22   O     O_3   0.788092 0.153739 0.320015 -0.623906
O23   O     O_3   0.466875 0.798248 0.397100 -0.602078
O24   O     O_3   0.939612 0.922830 0.414399 -0.764327
O25   O     O_3   0.221241 0.292000 0.230318 -0.674463
O26   O     O_3   0.583003 0.188172 0.718420 -0.691952
O27   O     O_3   0.567301 0.276606 0.024943 -0.652332
O28   O     O_3   0.703189 0.733686 0.091738 -0.601368
O29   O     O_3   0.382806 0.432769 0.597044 -0.716077
O30   O     O_2   0.775060 0.548280 0.646150 -0.463720
O31   O     O_3   0.534950 0.547420 0.574950 -0.468052
O32   O     O_3   0.073530 0.388570 0.588510 -0.464351
O33   O     O_3   0.569147 0.687519 0.674842 -0.630031
O34   O     O_3   0.168220 0.394330 0.455930 -0.478655
O35   O     O_3   0.678190 0.343400 0.553390 -0.437037
P1    P     P_3+3 0.594550 0.425840 0.359090 1.005618
P2    P     P_3+3 0.065650 0.701630 0.573510 0.980909
P3    P     P_3+3 0.497408 0.769787 0.464141 0.940074
P4    P     P_3+3 0.595130 0.574230 0.640920 1.022423
P5    P     P_3+3 0.693875 0.230557 0.538321 0.969874
P6    P     P_3+3 0.110373 0.603579 0.333547 0.934414
P7    P     P_3+3 0.134200 0.285606 0.420667 0.985020
P8    P     P_3+3 0.085881 0.394709 0.665910 0.961558

loop_
_geom_bond_atom_site_label_1
_geom_bond_atom_site_label_2
_ccdc_geom_bond_type
C57   H59   S    
C53   C54   S    
C57   H58   S    
C51   O12   S    
O20   P3    S    
C27   P1    S    
C19   C24   D    
Ba1   O4    S    
Ba2   O34   S    
C35   H35   S    
C3    O10   D    
C52   H3    S    
C43   C44   A    
H53   O26   S    
C47   P2    S    
C1    O24   S    
Ba2   O6    S    
C40   H34   S    
C50   H63   S    
C1    H7    S    
C22   C24   S    
C18   N2    Am   
Ba1   O1    S    
C51   H2    S    
C55   C57   S    
C49   O17   S    
C13   C14   A    
C17   N2    Am   
C49   H56   S    
Ba1   Ba2   S    
O7    P7    S    
C37   P5    S    
C7    C11   A    
H54   O27   S    
O19   P2    D    
C58   H20   S    
C38   C41   S    
Ba1   P1    S    
C42   C44   S    
C14   C15   A    
C21   C31   D    
C33   C47   A    
Ba2   O4    S    
C21   C22   D    
C23   H9    S    
C56   O26   S    
C54   H49   S    
C20   P8    S    
C56   H18   S    
C58   O9    S    
C55   H57   S    
C57   H60   S    
C17   O13   D    
C19   C20   S    
C53   H47   S    
H51   O24   S    
C10   C18   A    
C14   O27   S    
C49   H45   S    
Ba1   O5    S    
C54   H48   S    
C31   O29   S    
C34   O25   S    
C36   P7    S    
C4    C16   S    
C55   O28   S    
C40   H12   S    
Ba2   O5    S    
C49   C50   S    
C18   O14   D    
Ba1   O31   S    
O15   P6    S    
C59   H21   S    
C37   C38   S    
C42   H40   S    
Ba2   O31   S    
C52   H5    S    
H61   O29   S    
C51   C52   S    
O16   P6    D    
C32   C37   D    
O1    P1    D    
C45   O3    S    
C58   C59   S    
C41   C42   D    
O4    P1    S    
C48   P3    S    
C35   C36   D    
Ba1   O15   S    
O5    P2    S    
C58   H19   S    
C29   C30   A    
O34   P7    S    
O8    P8    D    
Ba1   P2    S    
Ba2   O30   S    
C3    N1    Am   
C33   C48   A    
C32   H37   S    
C6    C7    A    
C51   H64   S    
C40   H23   S    
C16   H42   S    
O33   P4    S    
C1    C12   S    
C56   H17   S    
C21   P4    S    
C4    O23   S    
C9    O28   S    
Ba2   O32   S    
C46   C47   A    
O3    P5    S    
C6    C13   A    
C8    C9    A    
C60   H32   S    
C28   H43   S    
C45   H16   S    
O30   P4    D    
Ba1   O19   S    
C59   H25   S    
C45   H15   S    
C2    C8    A    
C33   H38   S    
C22   H29   S    
C1    H13   S    
C24   N1    S    
C53   O22   S    
C55   H55   S    
C41   H39   S    
C43   C46   A    
O12   P2    S    
C20   C31   S    
C44   C48   A    
C27   C60   A    
C38   C39   S    
C16   H14   S    
H52   O25   S    
C25   C30   A    
C32   C36   S    
O21   P3    D    
C2    C3    A    
C59   H22   S    
Ba2   O35   S    
Ba1   O34   S    
C9    C10   A    
C52   H4    S    
O17   P1    S    
O23   P3    S    
C46   H36   S    
C12   O18   S    
C4    H24   S    
C11   C15   A    
C53   H46   S    
C30   N2    S    
O35   P5    S    
C27   C29   A    
C29   H31   S    
C45   C56   S    
C5    O11   D    
C50   H62   S    
C12   H1    S    
C15   C17   A    
O32   P8    S    
O31   P4    S    
C25   H27   S    
C16   H41   S    
C35   C39   S    
C23   O7    S    
O9    P8    S    
C5    C6    A    
C34   H11   S    
C23   C34   S    
O2    P5    D    
C26   P6    S    
C10   C11   A    
C8    H28   S    
C50   O22   S    
C4    H33   S    
O6    P7    D    
O18   P6    S    
C25   C26   A    
C12   H6    S    
C28   C40   S    
Ba1   O20   S    
C23   H8    S    
C28   O33   S    
C5    N1    Am   
C2    C7    A    
Ba2   P4    S    
C54   H50   S    
C28   H44   S    
C34   H10   S    
C13   H26   S    
C19   H30   S    
C26   C60   A    
