data_mof_unit_30110.cif
_audit_creation_date              2012-10-26T20:59:16-0400
_audit_creation_method            fapswitch 2.2
_symmetry_space_group_name_H-M    P1
_symmetry_Int_Tables_number       1
_space_group_crystal_system       triclinic
_cell_length_a                    15.881864
_cell_length_b                    9.187165
_cell_length_c                    7.810813
_cell_angle_alpha                 90.193958
_cell_angle_beta                  93.67694
_cell_angle_gamma                 89.042208
_cell_volume                      1137.16233471

loop_
_atom_site_label
_atom_site_type_symbol
_atom_type_description
_atom_site_fract_x
_atom_site_fract_y
_atom_site_fract_z
_atom_type_partial_charge
C1    C     C_1   0.500040 0.065202 0.499769 -0.048382
C2    C     C_3   0.973408 0.601974 0.607813 0.134107
C3    C     C_1   0.249504 0.507053 0.481066 -0.041949
C4    C     C_1   0.750409 0.487669 0.522048 -0.007888
C5    C     C_3   0.043311 0.491758 0.672785 0.255595
C6    C     C_3   0.958609 0.481649 0.365198 0.273169
C7    C     C_3   0.083292 0.502540 0.496755 -0.028775
C8    C     C_3   0.917904 0.476003 0.539899 -0.001801
C9    C     C_1   0.173944 0.508313 0.478902 -0.061049
C10   C     C_1   0.825962 0.479921 0.536448 -0.018047
C11   C     C_3   0.012033 0.135924 0.294325 -0.307166
C12   C     C_1   0.499994 0.934799 0.500239 -0.048389
C13   C     C_3   0.006598 0.818212 0.781762 -0.295786
C14   C     C_3   0.888895 0.172650 0.666205 -0.323817
C15   C     C_3   0.938952 0.812887 0.283622 -0.302247
C16   C     C_3   0.949261 0.470529 0.069656 -0.094101
C17   C     C_3   0.161522 0.545006 0.856882 -0.122399
C18   C     C_R   0.500077 0.219968 0.499835 0.547782
C19   C     C_R   0.499942 0.780031 0.500169 0.547846
C20   C     C_R   0.339324 0.502754 0.494440 0.539955
C21   C     C_R   0.660674 0.497059 0.505760 0.541917
C22   C     C_3   0.987226 0.365329 0.604342 0.138344
C23   C     C_3   0.011949 0.611093 0.432185 0.126294
C24   C     C_3   0.028163 0.373562 0.431882 0.136124
Cu1   Cu    Cu3+1 0.500010 0.500000 0.669080 1.022580
Cu2   Cu    Cu3+1 0.499990 0.500000 0.330920 1.031502
H1    H     H_    0.124324 0.223612 0.389410 0.262161
H2    H     H_    0.844011 0.236840 0.740871 0.146184
H3    H     H_    0.887759 0.058664 0.709662 0.150579
H4    H     H_    0.867904 0.174047 0.527757 0.163555
H5    H     H_    0.059299 0.731827 0.236846 0.240893
H6    H     H_    0.946114 0.888013 0.175310 0.103164
H7    H     H_    0.914195 0.872930 0.393673 0.176273
H8    H     H_    0.890990 0.733499 0.237436 0.195009
H9    H     H_    0.997456 0.382050 0.070668 0.196357
H10   H     H_    0.978304 0.577995 0.054889 0.161284
H11   H     H_    0.904882 0.453088 0.956273 0.145049
H12   H     H_    0.005791 0.068699 0.410202 0.187678
H13   H     H_    0.166133 0.647103 0.782168 0.117132
H14   H     H_    0.208778 0.462224 0.820156 0.160068
H15   H     H_    0.176788 0.572666 0.993609 0.138417
H16   H     H_    0.041768 0.069338 0.195166 0.142352
H17   H     H_    0.948824 0.173946 0.241987 0.172016
H18   H     H_    0.898777 0.694357 0.790523 0.243599
H19   H     H_    0.976786 0.911095 0.846391 0.125567
H20   H     H_    0.046920 0.859925 0.682365 0.185091
H21   H     H_    0.045458 0.760323 0.883263 0.152304
H22   H     H_    0.996387 0.228137 0.819229 0.266010
N1    N     N_1   0.499990 0.500000 0.076820 -0.080131
N2    N     N_1   0.500010 0.500000 0.923180 -0.079795
N3    N     N_2   0.065698 0.256285 0.337769 -0.517407
N4    N     N_2   0.942443 0.723870 0.705533 -0.515333
N5    N     N_2   0.973001 0.230427 0.693223 -0.520925
N6    N     N_2   0.019409 0.743427 0.335154 -0.520612
O1    O     O_R   0.500000 0.288400 0.642760 -0.495423
O2    O     O_3   0.080334 0.485770 0.842280 -0.617823
O3    O     O_R   0.500000 0.711600 0.357240 -0.496370
O4    O     O_R   0.500000 0.288400 0.357240 -0.495470
O5    O     O_R   0.500000 0.711600 0.642760 -0.495869
O6    O     O_R   0.379080 0.500000 0.642760 -0.506734
O7    O     O_R   0.620920 0.500000 0.357240 -0.486580
O8    O     O_R   0.379070 0.500000 0.357190 -0.499550
O9    O     O_R   0.620930 0.500000 0.642810 -0.502790
O10   O     O_3   0.903677 0.467306 0.216772 -0.593351

loop_
_geom_bond_atom_site_label_1
_geom_bond_atom_site_label_2
_ccdc_geom_bond_type
C11   H12   S    
C8    C22   S    
C19   O5    A    
C11   H17   S    
C3    C9    T    
Cu1   O6    S    
C16   O10   S    
C20   O6    A    
C13   N4    S    
C5    C7    S    
C15   H8    S    
C21   O7    A    
Cu1   O9    S    
C16   H11   S    
C6    C24   S    
C22   N5    S    
H18   N4    S    
C24   N3    S    
Cu2   O8    S    
C3    C20   S    
H5    N6    S    
C16   H10   S    
C13   H19   S    
C4    C21   S    
Cu2   O4    S    
C17   O2    S    
C1    C18   S    
C13   H20   S    
C1    C12   T    
C2    N4    S    
C18   O1    A    
C14   H4    S    
C7    C23   S    
C6    C23   S    
C12   C19   S    
Cu2   O7    S    
H1    N3    S    
C5    O2    S    
C22   C24   S    
C16   H9    S    
C20   O8    A    
H22   N5    S    
Cu2   O3    S    
C17   H15   S    
C21   O9    A    
C2    C5    S    
C11   N3    S    
C14   H3    S    
C4    C10   T    
C7    C24   S    
C15   N6    S    
C15   H6    S    
C14   N5    S    
C23   N6    S    
C8    C10   S    
N1    N2    T    
C17   H13   S    
Cu2   N1    S    
C6    O10   S    
C2    C23   S    
C7    C9    S    
Cu1   N2    S    
C2    C8    S    
C6    C8    S    
C11   H16   S    
Cu1   O5    S    
C14   H2    S    
Cu1   Cu2   S    
C13   H21   S    
C15   H7    S    
C19   O3    A    
C5    C22   S    
Cu1   O1    S    
C18   O4    A    
C17   H14   S    
