data_mof_unit_35007.cif
_audit_creation_date              2012-10-26T18:50:27-0400
_audit_creation_method            fapswitch 2.2
_symmetry_space_group_name_H-M    P1
_symmetry_Int_Tables_number       1
_space_group_crystal_system       triclinic
_cell_length_a                    9.681058
_cell_length_b                    10.798969
_cell_length_c                    15.581284
_cell_angle_alpha                 85.382041
_cell_angle_beta                  73.673435
_cell_angle_gamma                 93.078331
_cell_volume                      1553.22074561

loop_
_atom_site_label
_atom_site_type_symbol
_atom_type_description
_atom_site_fract_x
_atom_site_fract_y
_atom_site_fract_z
_atom_type_partial_charge
Br1   Br    Br    0.830674 0.188303 0.717103 -0.464330
Br2   Br    Br    0.301420 0.927054 0.756235 -0.298894
Br3   Br    Br    0.320716 0.800957 0.567840 -0.336076
Br4   Br    Br    0.306159 0.756518 0.341048 -0.471957
Br5   Br    Br    0.258243 0.309959 0.646172 -0.423278
Br6   Br    Br    0.432269 0.517551 0.773930 -0.547108
C1    C     C_R   0.994067 0.261934 0.503569 0.577511
C2    C     C_R   0.219157 0.534859 0.040942 0.007686
C3    C     C_R   0.311916 0.484141 0.088546 -0.006702
C4    C     C_R   0.917447 0.500944 0.672010 0.568477
C5    C     C_R   0.070962 0.543610 0.088484 0.035354
C6    C     C_R   0.028006 0.527173 0.182250 -0.103257
C7    C     C_R   0.265412 0.474190 0.183440 -0.139135
C8    C     C_R   0.987675 0.092378 0.666980 0.152221
C9    C     C_R   0.060816 0.039915 0.724072 -0.049039
C10   C     C_R   0.158975 0.952566 0.693777 0.190272
C11   C     C_R   0.158148 0.895165 0.615543 0.179409
C12   C     C_R   0.652714 0.461893 0.902594 0.074547
C13   C     C_R   0.065135 0.937437 0.564105 -0.025999
C14   C     C_R   0.011398 0.054385 0.580235 0.018663
C15   C     C_R   0.979350 0.126126 0.509982 0.055206
C16   C     C_R   0.003887 0.737722 0.502112 0.565721
C17   C     C_R   0.952740 0.068041 0.438825 -0.114991
C18   C     C_R   0.961951 0.940357 0.437308 -0.098260
C19   C     C_R   0.018430 0.873515 0.499081 0.048460
C20   C     C_R   0.717998 0.646854 0.367037 -0.106915
C21   C     C_R   0.698213 0.684216 0.285164 -0.138086
C22   C     C_R   0.563114 0.668419 0.272595 0.012286
C23   C     C_R   0.729993 0.387549 0.949418 0.069584
C24   C     C_R   0.443351 0.636512 0.349062 0.147117
C25   C     C_R   0.462459 0.572024 0.430543 0.150447
C26   C     C_R   0.610077 0.574045 0.434426 0.126777
C27   C     C_R   0.543655 0.419910 0.556793 0.135632
C28   C     C_R   0.082058 0.498524 0.328342 0.546074
C29   C     C_R   0.395616 0.423253 0.559149 0.301790
C30   C     C_R   0.866846 0.483049 0.771192 0.009815
C31   C     C_R   0.126191 0.500264 0.229897 -0.014358
C32   C     C_R   0.872206 0.361738 0.907280 -0.123504
C33   C     C_R   0.940737 0.410642 0.819310 -0.106281
C34   C     C_R   0.505256 0.482593 0.946154 0.055084
C35   C     C_R   0.729026 0.516796 0.815635 -0.083194
C36   C     C_2   0.955414 0.556243 0.043257 0.270446
C37   C     C_2   0.585831 0.321097 0.612725 0.371979
C38   C     C_2   0.545552 0.706043 0.182248 0.315431
C39   C     C_2   0.210179 0.667273 0.901653 0.263658
C40   C     C_R   0.450524 0.450038 0.040778 0.016544
C41   C     C_R   0.531689 0.376080 0.084500 -0.092913
C42   C     C_R   0.666777 0.342610 0.038830 -0.070596
C43   C     C_R   0.409730 0.532581 0.899886 0.122728
C44   C     C_R   0.276324 0.571700 0.947865 0.010645
Cu1   Cu    Cu3+1 0.140660 0.499990 0.500010 1.089768
Cu2   Cu    Cu3+1 0.859340 0.500010 0.499990 0.999306
H1    H     H_    0.724497 0.284761 0.074896 0.127748
H2    H     H_    0.048176 0.385764 0.787823 0.199197
H3    H     H_    0.685099 0.587955 0.781170 0.182771
H4    H     H_    0.490166 0.337238 0.153627 0.117144
H5    H     H_    0.976373 0.545936 0.972689 0.113656
H6    H     H_    0.620473 0.342697 0.670247 0.187312
H7    H     H_    0.443534 0.685086 0.168678 0.136395
H8    H     H_    0.208930 0.662139 0.832718 0.181901
H9    H     H_    0.923189 0.121040 0.385510 0.133359
H10   H     H_    0.049255 0.073905 0.789051 0.186658
H11   H     H_    0.929634 0.894122 0.385992 0.130850
H12   H     H_    0.823277 0.670400 0.371765 0.184555
H13   H     H_    0.789526 0.727662 0.231674 0.192415
H14   H     H_    0.338236 0.451977 0.222608 0.120879
H15   H     H_    0.916576 0.535017 0.218627 0.164468
H16   H     H_    0.931084 0.304342 0.942792 0.126888
N1    N     N_R   0.648320 0.501210 0.499140 -0.280296
N2    N     N_R   0.352470 0.501290 0.499110 -0.224516
O1    O     O_R   0.118810 0.319640 0.500010 -0.467286
O2    O     O_2   0.577838 0.212918 0.595893 -0.419602
O3    O     O_2   0.643640 0.762746 0.122539 -0.425335
O4    O     O_2   0.158412 0.755263 0.940437 -0.441089
O5    O     O_R   0.881240 0.319660 0.500000 -0.480712
O6    O     O_R   0.055570 0.499980 0.629840 -0.451284
O7    O     O_R   0.818000 0.500010 0.629830 -0.507387
O8    O     O_R   0.118760 0.680340 0.500000 -0.421304
O9    O     O_R   0.881190 0.680360 0.499990 -0.517730
O10   O     O_R   0.182000 0.499990 0.370170 -0.491737
O11   O     O_R   0.944430 0.500020 0.370160 -0.542193
O12   O     O_2   0.832972 0.575529 0.085117 -0.489486

loop_
_geom_bond_atom_site_label_1
_geom_bond_atom_site_label_2
_ccdc_geom_bond_type
C39   H8    S    
C20   C26   A    
C37   O2    D    
C28   C31   S    
C13   C14   A    
C36   O12   D    
Cu2   O5    S    
C34   C40   A    
C20   C21   A    
C16   O9    A    
C1    O1    A    
C32   C33   A    
C33   H2    S    
C38   H7    S    
C9    C10   A    
C3    C7    A    
C5    C36   S    
C6    C31   A    
C20   H12   S    
Cu1   O10   S    
C35   H3    S    
C12   C34   A    
Cu2   N1    S    
C37   H6    S    
C11   C13   A    
C4    O6    A    
C25   N2    A    
C25   C26   A    
C29   N2    A    
C2    C3    A    
C16   C19   S    
C23   C32   A    
C17   C18   A    
C28   O11   A    
Cu2   O9    S    
Br2   C10   S    
C7    C31   A    
C27   N1    A    
C28   O10   A    
C3    C40   A    
C30   C35   A    
C38   O3    D    
Cu1   O1    S    
C36   H5    S    
C4    O7    A    
C7    H14   S    
C42   H1    S    
C6    H15   S    
C23   C42   A    
Cu1   Cu2   S    
C27   C37   S    
C8    C14   A    
C18   C19   A    
C16   O8    A    
C12   C35   A    
C10   C11   A    
C1    O5    A    
C1    C15   S    
C22   C38   S    
C39   O4    D    
C21   H13   S    
C41   C42   A    
C12   C23   A    
Cu1   O6    S    
Cu1   N2    S    
C32   H16   S    
C18   H11   S    
C15   C17   A    
Cu2   O7    S    
C2    C44   A    
C40   C41   A    
C30   C33   A    
C5    C6    A    
C26   N1    A    
C22   C24   A    
Cu1   O8    S    
C24   C25   A    
C39   C44   S    
C2    C5    A    
Br5   C29   S    
C27   C29   A    
C9    H10   S    
Br3   C11   S    
Br6   C43   S    
Cu2   O11   S    
C13   C19   A    
C17   H9    S    
C14   C15   A    
C43   C44   A    
C21   C22   A    
C8    C9    A    
C4    C30   S    
Br1   C8    S    
Br4   C24   S    
C34   C43   A    
C41   H4    S    
