data_mof_unit_16219.cif
_audit_creation_date              2012-10-26T18:44:11-0400
_audit_creation_method            fapswitch 2.2
_symmetry_space_group_name_H-M    P1
_symmetry_Int_Tables_number       1
_space_group_crystal_system       triclinic
_cell_length_a                    19.337182
_cell_length_b                    9.076092
_cell_length_c                    7.785241
_cell_angle_alpha                 90.000034
_cell_angle_beta                  89.656234
_cell_angle_gamma                 90.0
_cell_volume                      1366.33224746

loop_
_atom_site_label
_atom_site_type_symbol
_atom_type_description
_atom_site_fract_x
_atom_site_fract_y
_atom_site_fract_z
_atom_type_partial_charge
Br1   Br    Br    0.297847 0.773662 0.679550 -0.432818
Br2   Br    Br    0.702153 0.773688 0.320509 -0.432832
Br3   Br    Br    0.690046 0.217709 0.688316 -0.417011
Br4   Br    Br    0.309951 0.217740 0.311619 -0.417021
C1    C     C_R   0.500000 0.220042 0.500000 0.580911
C2    C     C_R   0.258176 0.368321 0.431353 0.119599
C3    C     C_R   0.181153 0.590500 0.596758 0.238970
C4    C     C_R   0.818848 0.590516 0.403273 0.238974
C5    C     C_R   0.814007 0.354644 0.554571 0.233242
C6    C     C_R   0.185992 0.354653 0.445405 0.233241
C7    C     C_R   0.146654 0.470381 0.519089 -0.025367
C8    C     C_R   0.853346 0.470385 0.480917 -0.025367
C9    C     C_R   0.291817 0.490771 0.503512 -0.042579
C10   C     C_R   0.708183 0.490771 0.496488 -0.042578
C11   C     C_R   0.929892 0.469519 0.489948 0.359837
C12   C     C_R   0.500000 0.779959 0.500000 0.582097
C13   C     C_R   0.070108 0.469517 0.510063 0.359838
C14   C     C_3   0.132166 0.659447 0.849520 -0.060760
C15   C     C_3   0.867838 0.659505 0.150530 -0.060775
C16   C     C_3   0.846469 0.118067 0.503559 -0.017830
C17   C     C_3   0.153529 0.118067 0.496357 -0.017833
C18   C     C_R   0.367336 0.499027 0.500595 0.601519
C19   C     C_R   0.632664 0.499028 0.499405 0.601527
C20   C     C_1   0.500000 0.065406 0.500000 0.036774
C21   C     C_1   0.500000 0.934597 0.500000 0.036007
C22   C     C_R   0.253313 0.601316 0.586556 0.129782
C23   C     C_R   0.746687 0.601329 0.413472 0.129783
C24   C     C_R   0.741822 0.368310 0.568621 0.119597
Cu1   Cu    Cu3+1 0.500000 0.500000 0.669080 1.143528
Cu2   Cu    Cu3+1 0.500000 0.500000 0.330920 1.143526
H1    H     H_    0.099581 0.558555 0.857186 0.118863
H2    H     H_    0.128856 0.152072 0.619725 0.131179
H3    H     H_    0.206653 0.077041 0.521335 0.190564
H4    H     H_    0.123121 0.024695 0.444350 0.185355
H5    H     H_    0.103615 0.749422 0.915287 0.163756
H6    H     H_    0.181473 0.642221 0.919856 0.160903
H7    H     H_    0.818531 0.642293 0.080185 0.160903
H8    H     H_    0.900421 0.558613 0.142845 0.118860
H9    H     H_    0.896390 0.749490 0.084787 0.163757
H10   H     H_    0.871149 0.152091 0.380208 0.131163
H11   H     H_    0.793345 0.077057 0.478554 0.190572
H12   H     H_    0.876870 0.024679 0.555549 0.185383
N1    N     N_1   0.500000 0.500000 0.076820 -0.053684
N2    N     N_1   0.500000 0.500000 0.923180 -0.053684
N3    N     N_R   0.034303 0.341197 0.504850 -0.193890
N4    N     N_R   0.965680 0.598028 0.495432 -0.175483
N5    N     N_R   0.965696 0.341199 0.495146 -0.193885
N6    N     N_R   0.034320 0.598027 0.504596 -0.175486
O1    O     O_R   0.500000 0.288390 0.642760 -0.486987
O2    O     O_3   0.855601 0.701714 0.322481 -0.525615
O3    O     O_3   0.846366 0.233330 0.625702 -0.520677
O4    O     O_3   0.153631 0.233354 0.374245 -0.520683
O5    O     O_R   0.500000 0.711610 0.357240 -0.488080
O6    O     O_R   0.500000 0.711610 0.642760 -0.488078
O7    O     O_R   0.500000 0.288390 0.357240 -0.486986
O8    O     O_R   0.400140 0.500000 0.642830 -0.480868
O9    O     O_R   0.599860 0.500000 0.357170 -0.480874
O10   O     O_R   0.599860 0.500000 0.642830 -0.473343
O11   O     O_R   0.400140 0.500000 0.357170 -0.473339
O12   O     O_3   0.144400 0.701684 0.677577 -0.525599

loop_
_geom_bond_atom_site_label_1
_geom_bond_atom_site_label_2
_ccdc_geom_bond_type
C10   C19   S    
C2    C6    A    
C19   O10   A    
C16   H12   S    
N1    N2    T    
C13   N6    A    
Br2   C23   S    
C17   H4    S    
C15   H8    S    
C10   C23   A    
Cu2   O7    S    
C5    O3    S    
C8    C11   S    
C11   N5    A    
C4    C8    A    
Cu1   O6    S    
C6    O4    S    
Cu2   O11   S    
Cu1   O8    S    
C16   H11   S    
Cu1   O1    S    
C20   C21   T    
C2    C9    A    
C3    C7    A    
C1    C20   S    
C15   O2    S    
C1    O1    A    
Cu1   Cu2   S    
C3    C22   A    
C15   H9    S    
Cu2   N1    S    
C14   O12   S    
Br3   C24   S    
C17   H2    S    
C13   N3    A    
C9    C18   S    
C16   O3    S    
N4    N6    A    
C6    C7    A    
N3    N5    A    
Cu1   N2    S    
Br1   C22   S    
C16   H10   S    
Cu2   O5    S    
C12   O6    A    
C9    C22   A    
C17   H3    S    
C5    C8    A    
Cu2   O9    S    
C4    O2    S    
C3    O12   S    
C12   C21   S    
Cu1   O10   S    
Br4   C2    S    
C14   H5    S    
C18   O11   A    
C19   O9    A    
C4    C23   A    
C12   O5    A    
C7    C13   S    
C18   O8    A    
C14   H1    S    
C15   H7    S    
C11   N4    A    
C10   C24   A    
C14   H6    S    
C1    O7    A    
C17   O4    S    
C5    C24   A    
