data_mof_unit_12734.cif
_audit_creation_date              2012-12-10T19:16:19-0500
_audit_creation_method            fapswitch 2.2
_symmetry_space_group_name_H-M    P1
_symmetry_Int_Tables_number       1
_space_group_crystal_system       triclinic
_cell_length_a                    10.850341
_cell_length_b                    9.820228
_cell_length_c                    27.621366
_cell_angle_alpha                 89.989808
_cell_angle_beta                  92.208401
_cell_angle_gamma                 90.487867
_cell_volume                      2940.84192821

loop_
_atom_site_label
_atom_site_type_symbol
_atom_type_description
_atom_site_fract_x
_atom_site_fract_y
_atom_site_fract_z
_atom_type_partial_charge
C1    C     C_R   0.257462 0.498836 0.499573 0.916536
C2    C     C_R   0.575440 0.633118 0.281567 -0.003407
C3    C     C_R   0.581930 0.508991 0.255993 0.239691
C4    C     C_R   0.575844 0.507421 0.104138 -0.052833
C5    C     C_R   0.465419 0.514399 0.129356 -0.022404
C6    C     C_R   0.351845 0.520355 0.103980 -0.099569
C7    C     C_R   0.690910 0.501119 0.130241 -0.094195
C8    C     C_R   0.535078 0.503092 0.354672 -0.082581
C9    C     C_R   0.509433 0.500068 0.646805 -0.018191
C10   C     C_R   0.449159 0.492697 0.976339 0.041793
C11   C     C_R   0.674469 0.521848 0.976043 0.039062
C12   C     C_R   0.508525 0.500441 0.406344 0.981732
C13   C     C_R   0.559320 0.507599 0.950725 0.080550
C14   C     C_R   0.337570 0.465866 0.949964 -0.195484
C15   C     C_R   0.333477 0.461507 0.899875 -0.124049
C16   C     C_R   0.440142 0.484287 0.874297 -0.022846
C17   C     C_R   0.553977 0.508161 0.899417 -0.051128
C18   C     C_R   0.661778 0.532320 0.873240 -0.102528
C19   C     C_R   0.652643 0.521180 0.822245 0.532669
C20   C     C_R   0.435302 0.482948 0.823815 0.511921
C21   C     C_R   0.513167 0.377039 0.722734 -0.090221
C22   C     C_R   0.501971 0.376941 0.672456 -0.184552
C23   C     C_R   0.741790 0.500791 0.505371 0.914983
C24   C     C_R   0.528668 0.622988 0.672065 -0.167063
C25   C     C_R   0.540296 0.622620 0.722295 -0.097311
C26   C     C_R   0.532387 0.499825 0.747573 0.306907
C27   C     C_R   0.453988 0.504088 0.027405 0.040038
C28   C     C_R   0.570299 0.506754 0.052809 0.080945
C29   C     C_R   0.680645 0.509079 0.027231 0.045223
C30   C     C_R   0.345956 0.514906 0.053941 -0.194804
C31   C     C_R   0.800954 0.498202 0.104180 -0.009497
C32   C     C_R   0.779252 0.554395 0.949552 -0.247031
C33   C     C_R   0.773775 0.564021 0.899106 -0.015372
C34   C     C_R   0.501402 0.499998 0.593920 0.935420
C35   C     C_R   0.794033 0.499077 0.053613 -0.252853
C36   C     C_3   0.078795 0.637486 0.520817 -0.433378
C37   C     C_3   0.077720 0.393687 0.540012 -0.515693
C38   C     C_3   0.938561 0.638176 0.532223 -0.166216
C39   C     C_3   0.935498 0.369032 0.535388 -0.176756
C40   C     C_3   0.054872 0.473569 0.447626 -0.261421
C41   C     C_3   0.120159 0.496498 0.500668 -0.048334
C42   C     C_3   0.879008 0.501950 0.507379 -0.074250
C43   C     C_3   0.914502 0.500375 0.453115 -0.444360
C44   C     C_3   0.389589 0.081836 0.472221 -0.158028
C45   C     C_3   0.379399 0.921428 0.479741 -0.150757
C46   C     C_3   0.611073 0.080260 0.477038 -0.164778
C47   C     C_3   0.598837 0.921232 0.469810 -0.194680
C48   C     C_3   0.500662 0.080293 0.549006 -0.296259
C49   C     C_3   0.517056 0.919567 0.548780 -0.281287
C50   C     C_R   0.470689 0.516732 0.179761 0.545003
C51   C     C_R   0.689707 0.494053 0.181370 0.608028
C52   C     C_R   0.572890 0.384588 0.280235 -0.080508
C53   C     C_R   0.550612 0.381794 0.329315 -0.149242
C54   C     C_R   0.553805 0.627904 0.331139 -0.242590
H1    H     H_    0.535663 0.719130 0.653104 0.159946
H2    H     H_    0.100859 0.716234 0.493753 0.238787
H3    H     H_    0.131353 0.298830 0.542739 0.155224
H4    H     H_    0.883547 0.594874 0.435348 0.245927
H5    H     H_    0.855878 0.427680 0.431495 0.204248
H6    H     H_    0.308690 0.124949 0.489252 0.129713
H7    H     H_    0.310128 0.905487 0.508208 0.113110
H8    H     H_    0.576569 0.127431 0.571614 0.209617
H9    H     H_    0.609797 0.892853 0.564263 0.211731
H10   H     H_    0.266328 0.528676 0.122736 0.207310
H11   H     H_    0.487529 0.280829 0.653770 0.157016
H12   H     H_    0.252143 0.443384 0.967098 0.165280
H13   H     H_    0.255239 0.523771 0.036965 0.157193
N1    N     N_R   0.581399 0.507227 0.204396 -0.344303
N2    N     N_R   0.540497 0.500722 0.799157 -0.358674
N3    N     N_3   0.499750 0.138610 0.498940 -0.119068
N4    N     N_3   0.499750 0.861390 0.498940 -0.105111
O1    O     O_R   0.314910 0.616040 0.499990 -0.635604
O2    O     O_R   0.314910 0.383960 0.499990 -0.636777
O3    O     O_R   0.500140 0.616020 0.428740 -0.589697
O4    O     O_R   0.500140 0.383980 0.428740 -0.611300
O5    O     O_R   0.685320 0.616040 0.499970 -0.637704
O6    O     O_R   0.685320 0.383960 0.499970 -0.590467
O7    O     O_R   0.500090 0.616050 0.571230 -0.633823
O8    O     O_R   0.500090 0.383950 0.571230 -0.616513
O9    O     O_2   0.365854 0.527347 0.204292 -0.538690
O10   O     O_2   0.326342 0.464063 0.799330 -0.539380
O11   O     O_2   0.794203 0.472891 0.208174 -0.491409
O12   O     O_2   0.754351 0.525735 0.795722 -0.508752
Zn1   Zn    Zn3+2 0.500150 0.654960 0.499980 0.975227
Zn2   Zn    Zn3+2 0.500150 0.345040 0.499980 0.981972
H14   H     H_    0.553113 0.721749 0.351437 0.239653
H15   H     H_    0.579010 0.289760 0.260486 0.162952
C55   C     C_2   0.926239 0.502904 0.127476 0.994692
O13   O     O_2   0.001559 0.416102 0.117745 -0.622196
O14   O     O_R   0.960093 0.610561 0.158480 -0.722461
H16   H     H_    0.048527 0.603666 0.171442 0.366713
H17   H     H_    0.865482 0.582910 0.967709 0.165404
C56   C     C_2   0.885493 0.617677 0.876067 1.008979
O15   O     O_2   0.877097 0.711432 0.847001 -0.570448
O16   O     O_R   0.001343 0.566349 0.889941 -0.817183
H18   H     H_    0.070691 0.613174 0.872632 0.352203
H19   H     H_    0.554712 0.717608 0.741691 0.146888
H20   H     H_    0.880013 0.490863 0.035480 0.161158
H21   H     H_    0.137183 0.667999 0.553003 0.209522
H22   H     H_    0.104652 0.438324 0.575852 0.262696
C57   C     C_2   0.918156 0.635438 0.586932 0.833403
O17   O     O_2   0.812708 0.630795 0.601212 -0.624685
O18   O     O_R   0.016969 0.642606 0.620976 -0.793740
H23   H     H_    0.989213 0.640753 0.655601 0.380865
C58   C     C_2   0.882045 0.346224 0.585611 0.863379
O19   O     O_2   0.771459 0.326026 0.589339 -0.620710
O20   O     O_R   0.959204 0.340689 0.627389 -0.787241
H24   H     H_    0.912117 0.323689 0.657841 0.370969
C59   C     C_2   0.588324 0.768311 0.257524 0.963699
O21   O     O_2   0.560270 0.872137 0.278824 -0.604581
O22   O     O_R   0.633532 0.778423 0.210934 -0.786856
H25   H     H_    0.637658 0.875863 0.198930 0.359598
C60   C     C_2   0.889825 0.776395 0.513048 0.950758
O23   O     O_2   0.896510 0.804393 0.470160 -0.527000
O24   O     O_R   0.844687 0.878249 0.543197 -0.773757
H26   H     H_    0.868702 0.873046 0.578810 0.328146
C61   C     C_2   0.915305 0.231115 0.509987 0.965469
O25   O     O_2   0.858947 0.221257 0.471172 -0.579568
O26   O     O_R   0.964206 0.111817 0.530407 -0.719270
H27   H     H_    0.005831 0.124385 0.563546 0.304803
C62   C     C_2   0.110888 0.570958 0.410961 0.962859
O27   O     O_2   0.050869 0.662696 0.391858 -0.510526
O28   O     O_R   0.229083 0.544134 0.395114 -0.795588
H28   H     H_    0.248822 0.596678 0.364838 0.353687
C63   C     C_2   0.061783 0.334383 0.421443 1.071111
O29   O     O_2   0.021596 0.326826 0.379488 -0.510065
O30   O     O_R   0.102673 0.213663 0.442354 -0.675790
H29   H     H_    0.144095 0.226463 0.474574 0.299713
C64   C     C_2   0.384973 0.127044 0.418931 0.981215
O31   O     O_2   0.312224 0.213726 0.404945 -0.551007
O32   O     O_R   0.462627 0.069281 0.385508 -0.812271
H30   H     H_    0.437196 0.091634 0.350736 0.366273
C65   C     C_2   0.318865 0.854208 0.435568 0.994447
O33   O     O_2   0.206463 0.848715 0.432532 -0.576585
O34   O     O_R   0.385656 0.822467 0.395156 -0.775904
H31   H     H_    0.331307 0.805716 0.365078 0.354405
H32   H     H_    0.631649 0.132614 0.442658 0.217685
H33   H     H_    0.584206 0.895851 0.430997 0.232601
H34   H     H_    0.413677 0.106675 0.566785 0.155783
H35   H     H_    0.449537 0.872763 0.573218 0.163929
H36   H     H_    0.691922 0.098645 0.501910 0.227184
H37   H     H_    0.685805 0.872874 0.479957 0.228744
H38   H     H_    0.506804 0.282098 0.742465 0.144986
H39   H     H_    0.245878 0.439683 0.881235 0.212849
H40   H     H_    0.545835 0.285081 0.347400 0.188939

loop_
_geom_bond_atom_site_label_1
_geom_bond_atom_site_label_2
_ccdc_geom_bond_type
C10   C27   A    
C21   C26   A    
C2    C59   S    
C57   O17   D    
C49   H9    S    
C12   O3    A    
C45   N4    S    
O16   H18   S    
C23   O5    A    
O5    Zn1   S    
O28   H28   S    
C32   H17   S    
C52   C53   A    
C24   H1    S    
C40   C62   S    
C58   O20   S    
C47   H37   S    
C56   O15   D    
C23   C42   S    
C48   N3    S    
C28   C29   A    
C3    N1    S    
C38   C42   S    
C38   C57   S    
C59   O22   S    
C5    C6    A    
C3    C52   A    
C9    C22   A    
C15   C16   A    
C18   C19   A    
C6    H10   S    
C20   O10   S    
O18   H23   S    
C43   H4    S    
O4    Zn2   S    
C40   C43   S    
O22   H25   S    
C16   C17   A    
O20   H24   S    
C44   N3    S    
C39   C42   S    
C35   H20   S    
C30   H13   S    
C43   H5    S    
C45   H7    S    
O6    Zn2   S    
C56   O16   S    
C21   C22   A    
C27   C30   A    
C36   C41   S    
C4    C7    A    
C19   O12   S    
C4    C28   A    
C46   H36   S    
C1    O1    A    
C7    C31   A    
O34   H31   S    
C24   C25   A    
C21   H38   S    
C10   C14   A    
C8    C54   A    
C54   H14   S    
C38   C60   S    
C64   O31   D    
C25   C26   A    
C39   C61   S    
C50   O9    S    
N4    Zn1   S    
C22   H11   S    
C36   H2    S    
C34   O8    A    
C48   H8    S    
C8    C12   S    
C47   N4    S    
C53   H40   S    
C17   C18   A    
C14   H12   S    
C16   C20   A    
C23   O6    A    
C51   O11   S    
O2    Zn2   S    
C62   O27   D    
O1    Zn1   S    
C46   H32   S    
C25   H19   S    
C48   C49   S    
C6    C30   A    
C55   O14   S    
C11   C32   A    
C2    C54   A    
C63   O29   D    
C31   C35   A    
C20   N2    A    
C19   N2    A    
C42   C43   S    
O30   H29   S    
O8    Zn2   S    
C62   O28   S    
C44   C45   S    
C65   O34   S    
C60   O23   D    
C1    C41   S    
C39   C58   S    
C46   C47   S    
C40   C41   S    
C31   C55   S    
C48   H34   S    
C52   H15   S    
O3    Zn1   S    
C4    C5    A    
C10   C13   A    
C33   C56   S    
C8    C53   A    
O26   H27   S    
C9    C24   A    
C58   O19   D    
C29   C35   A    
C45   C65   S    
C13   C17   A    
C1    O2    A    
C32   C33   A    
C61   O26   S    
C2    C3    A    
C44   C64   S    
C7    C51   A    
C37   C39   S    
C61   O25   D    
C34   O7    A    
C11   C13   A    
O14   H16   S    
C65   O33   D    
C60   O24   S    
C44   H6    S    
C40   C63   S    
C47   H33   S    
C36   C38   S    
C9    C34   S    
C36   H21   S    
C51   N1    A    
C37   C41   S    
C5    C50   A    
C18   C33   A    
C46   N3    S    
C12   O4    A    
C15   H39   S    
O7    Zn1   S    
C55   O13   D    
C11   C29   A    
C57   O18   S    
C49   N4    S    
C49   H35   S    
C27   C28   A    
C63   O30   S    
C26   N2    S    
C14   C15   A    
O24   H26   S    
C59   O21   D    
N3    Zn2   S    
C50   N1    A    
C37   H22   S    
C37   H3    S    
O32   H30   S    
C64   O32   S    
