data_mof_unit_53704.cif
_audit_creation_date              2012-12-10T18:47:01-0500
_audit_creation_method            fapswitch 2.2
_symmetry_space_group_name_H-M    P1
_symmetry_Int_Tables_number       1
_space_group_crystal_system       triclinic
_cell_length_a                    10.735878
_cell_length_b                    9.823577
_cell_length_c                    14.915723
_cell_angle_alpha                 90.006543
_cell_angle_beta                  91.04042
_cell_angle_gamma                 89.995319
_cell_volume                      1572.82324984

loop_
_atom_site_label
_atom_site_type_symbol
_atom_type_description
_atom_site_fract_x
_atom_site_fract_y
_atom_site_fract_z
_atom_type_partial_charge
C1    C     C_R   0.259798 0.499971 0.500355 0.892228
C2    C     C_R   0.740200 0.499947 0.499418 0.892403
C3    C     C_R   0.272778 0.522907 0.042846 -0.188308
C4    C     C_R   0.726867 0.522319 0.957188 -0.188045
C5    C     C_R   0.063963 0.375863 0.505313 -0.216887
C6    C     C_R   0.936051 0.623566 0.493596 -0.162825
C7    C     C_R   0.936319 0.375787 0.504347 -0.221876
C8    C     C_R   0.063661 0.623610 0.494208 -0.164690
C9    C     C_R   0.872633 0.499725 0.498879 0.003911
C10   C     C_R   0.127360 0.499818 0.500198 0.001467
C11   C     C_R   0.580093 0.072057 0.554802 -0.083143
C12   C     C_R   0.419917 0.928025 0.445193 -0.067785
C13   C     C_R   0.419910 0.072050 0.445196 -0.083302
C14   C     C_R   0.580083 0.928032 0.554806 -0.067927
C15   C     C_R   0.499683 0.499606 0.327066 1.033282
C16   C     C_R   0.500131 0.499627 0.672938 1.034375
C17   C     C_R   0.614773 0.503225 0.815035 0.334381
C18   C     C_R   0.384853 0.503448 0.185020 0.334307
C19   C     C_R   0.500471 0.497677 0.768295 -0.304166
C20   C     C_R   0.499194 0.497577 0.231720 -0.303638
C21   C     C_R   0.386663 0.486853 0.811748 0.368264
C22   C     C_R   0.612941 0.486384 0.188237 0.367865
C23   C     C_R   0.385455 0.504425 0.904724 0.012245
C24   C     C_R   0.614152 0.504040 0.095284 0.012318
C25   C     C_R   0.499916 0.510225 0.953149 -0.019265
C26   C     C_R   0.499693 0.510184 0.046877 -0.019186
C27   C     C_R   0.614657 0.511978 0.908159 0.041423
C28   C     C_R   0.384963 0.512222 0.091882 0.041445
C29   C     C_R   0.272905 0.517730 0.950039 -0.215894
C30   C     C_R   0.726730 0.517093 0.049981 -0.216197
H1    H     H_    0.184227 0.532050 0.075895 0.181163
H2    H     H_    0.815439 0.531243 0.924145 0.181183
N1    N     N_R   0.500000 0.857200 0.500000 -0.086891
N2    N     N_R   0.500000 0.142800 0.500000 -0.086804
O1    O     O_R   0.316770 0.614620 0.499990 -0.622923
O2    O     O_R   0.683230 0.385380 0.500010 -0.656169
O3    O     O_R   0.683230 0.614620 0.500010 -0.623637
O4    O     O_R   0.316770 0.385380 0.499990 -0.656710
O5    O     O_R   0.499980 0.614680 0.367850 -0.604105
O6    O     O_R   0.500020 0.385320 0.632150 -0.665426
O7    O     O_R   0.500020 0.614680 0.632150 -0.603212
O8    O     O_R   0.499980 0.385320 0.367850 -0.665214
Zn1   Zn    Zn3+2 0.500000 0.653120 0.500000 0.979419
Zn2   Zn    Zn3+2 0.500000 0.346880 0.500000 0.908581
O9    O     O_3   0.726441 0.502709 0.769583 -0.649500
C31   C     C_3   0.755619 0.368394 0.741824 0.105375
H3    H     H_    0.795868 0.375366 0.674023 0.170123
H4    H     H_    0.673615 0.298912 0.735969 0.124064
C32   C     C_3   0.852282 0.304104 0.805360 -0.381027
H5    H     H_    0.932684 0.374275 0.814261 0.224808
H6    H     H_    0.810170 0.286274 0.871800 0.219555
C33   C     C_3   0.897738 0.168139 0.768891 -0.982946
H7    H     H_    0.818972 0.095184 0.762631 0.269236
H8    H     H_    0.969175 0.124790 0.815485 0.273025
H9    H     H_    0.939708 0.182509 0.702018 0.259956
O10   O     O_3   0.273199 0.503529 0.230518 -0.650288
C34   C     C_3   0.243543 0.369438 0.258458 0.104833
H10   H     H_    0.202512 0.376862 0.325996 0.170620
H11   H     H_    0.325412 0.299940 0.264948 0.124829
C35   C     C_3   0.147516 0.304835 0.194582 -0.381501
H12   H     H_    0.067034 0.374795 0.185356 0.224518
H13   H     H_    0.190146 0.287030 0.128329 0.219871
C36   C     C_3   0.102101 0.168780 0.230909 -0.982965
H14   H     H_    0.180924 0.095923 0.237254 0.269011
H15   H     H_    0.030876 0.125387 0.184184 0.272604
H16   H     H_    0.059902 0.183010 0.297710 0.261465
O11   O     O_3   0.277916 0.466918 0.761305 -0.641708
C37   C     C_3   0.230247 0.333619 0.775100 0.041037
H17   H     H_    0.132190 0.333500 0.750468 0.185674
H18   H     H_    0.228204 0.304384 0.847110 0.136750
C38   C     C_3   0.301365 0.225419 0.722211 -0.341923
H19   H     H_    0.298913 0.252071 0.649989 0.266102
H20   H     H_    0.399674 0.221026 0.746549 0.220003
C39   C     C_3   0.244314 0.084289 0.732875 -0.958852
H21   H     H_    0.240997 0.055730 0.804848 0.269577
H22   H     H_    0.301929 0.008307 0.697247 0.277142
H23   H     H_    0.148841 0.082004 0.703225 0.265989
O12   O     O_3   0.721677 0.466120 0.238637 -0.642463
C40   C     C_3   0.769116 0.332751 0.224685 0.040726
H24   H     H_    0.867351 0.332538 0.248916 0.185763
H25   H     H_    0.770574 0.303378 0.152677 0.136605
C41   C     C_3   0.698297 0.224745 0.277911 -0.338858
H26   H     H_    0.701332 0.251502 0.350125 0.267004
H27   H     H_    0.599813 0.220486 0.253953 0.219692
C42   C     C_3   0.755085 0.083504 0.267052 -0.959887
H28   H     H_    0.757613 0.054786 0.195074 0.269397
H29   H     H_    0.697771 0.007682 0.303054 0.276641
H30   H     H_    0.850861 0.081133 0.296173 0.266410
H31   H     H_    0.184518 0.522915 0.914000 0.172616
H32   H     H_    0.815130 0.522017 0.086019 0.172487
H33   H     H_    0.112519 0.279345 0.510059 0.155110
H34   H     H_    0.887534 0.720115 0.489003 0.154601
H35   H     H_    0.887986 0.279219 0.508550 0.153286
H36   H     H_    0.111951 0.720175 0.489851 0.153768
H37   H     H_    0.644109 0.126779 0.598528 0.117718
H38   H     H_    0.355926 0.873347 0.401427 0.134076
H39   H     H_    0.355899 0.126766 0.401467 0.118444
H40   H     H_    0.644071 0.873360 0.598574 0.135371

loop_
_geom_bond_atom_site_label_1
_geom_bond_atom_site_label_2
_ccdc_geom_bond_type
C36   H15   S    
C18   C28   A    
C30   H32   S    
C6    C9    A    
C29   H31   S    
C42   H28   S    
C31   C32   S    
C39   H22   S    
C35   C36   S    
C23   C29   A    
C3    C28   A    
C19   C21   A    
C17   O9    S    
C16   C19   S    
C11   C14   A    
C34   H11   S    
C11   H37   S    
O10   C34   S    
C35   H13   S    
C3    C29   A    
C37   H17   S    
C32   H6    S    
C39   H23   S    
O1    Zn1   S    
C33   H9    S    
C18   O10   S    
C36   H16   S    
C21   O11   S    
O7    Zn1   S    
O8    Zn2   S    
C14   N1    A    
C5    C10   A    
C33   H8    S    
C14   H40   S    
C42   H29   S    
C15   C20   S    
C7    H35   S    
C31   H4    S    
C39   H21   S    
O11   C37   S    
N1    Zn1   S    
N2    Zn2   S    
C22   O12   S    
C5    C7    A    
O12   C40   S    
C34   C35   S    
O5    Zn1   S    
C25   C26   A    
O9    C31   S    
C40   H24   S    
C35   H12   S    
C17   C27   A    
O3    Zn1   S    
O4    Zn2   S    
C38   C39   S    
C32   C33   S    
C8    H36   S    
C4    H2    S    
C3    H1    S    
C15   O5    A    
C5    H33   S    
C1    O4    A    
C16   O6    A    
C37   H18   S    
C20   C22   A    
C32   H5    S    
C41   H27   S    
C21   C23   A    
C22   C24   A    
O2    Zn2   S    
C4    C27   A    
C33   H7    S    
C1    O1    A    
C40   H25   S    
C42   H30   S    
C2    O2    A    
C7    C9    A    
C31   H3    S    
C11   N2    A    
C1    C10   S    
C15   O8    A    
C24   C26   A    
C40   C41   S    
C6    C8    A    
C25   C27   A    
C41   C42   S    
C26   C28   A    
C13   N2    A    
C2    O3    A    
C34   H10   S    
C37   C38   S    
C6    H34   S    
C17   C19   A    
C18   C20   A    
C23   C25   A    
C13   H39   S    
C24   C30   A    
C36   H14   S    
O6    Zn2   S    
C38   H19   S    
C12   C13   A    
C8    C10   A    
C41   H26   S    
C38   H20   S    
C12   H38   S    
C12   N1    A    
C2    C9    S    
C16   O7    A    
C4    C30   A    
