data_mof_unit_49357.cif
_audit_creation_date              2013-03-05T15:49:30-0500
_audit_creation_method            fapswitch 2.2
_symmetry_space_group_name_H-M    P1
_symmetry_Int_Tables_number       1
_space_group_crystal_system       triclinic
_cell_length_a                    14.118899
_cell_length_b                    14.11648
_cell_length_c                    27.362049
_cell_angle_alpha                 90.175096
_cell_angle_beta                  89.743993
_cell_angle_gamma                 119.571351
_cell_volume                      4743.09327559

loop_
_atom_site_label
_atom_site_type_symbol
_atom_site_description
_atom_site_fract_x
_atom_site_fract_y
_atom_site_fract_z
_atom_type_partial_charge
O1    O     O_R   0.137310 0.468260 0.552980 -0.514873
O2    O     O_R   0.531740 0.669050 0.552980 -0.508565
O3    O     O_R   0.330950 0.862690 0.552980 -0.496350
O4    O     O_R   0.174120 0.688790 0.549730 -0.514669
O5    O     O_R   0.311210 0.485330 0.549730 -0.506119
O6    O     O_R   0.514670 0.825880 0.549730 -0.497568
C1    C     C_R   0.233482 0.788302 0.567637 0.528649
C2    C     C_R   0.211011 0.444396 0.567379 0.532513
C3    C     C_R   0.554396 0.766066 0.568173 0.527367
O7    O     O_R   0.139940 0.470480 0.446230 -0.517018
O8    O     O_R   0.529520 0.669460 0.446230 -0.517225
O9    O     O_R   0.330540 0.860060 0.446230 -0.517531
O10   O     O_R   0.176560 0.690850 0.450770 -0.505918
O11   O     O_R   0.309150 0.485710 0.450770 -0.504769
O12   O     O_R   0.514290 0.823440 0.450770 -0.505577
C4    C     C_R   0.234133 0.786952 0.431574 0.543429
C5    C     C_R   0.213317 0.446815 0.431582 0.545973
C6    C     C_R   0.553329 0.765988 0.431613 0.545302
Cr1   Cr    Cr6+3 0.164410 0.584450 0.499910 1.014092
Cr2   Cr    Cr6+3 0.415550 0.579960 0.499910 1.030032
Cr3   Cr    Cr6+3 0.420040 0.835590 0.499910 1.031827
O13   O     O_3   0.333333 0.666667 0.499990 -0.279891
C7    C     C_3   0.602504 0.880080 0.731239 0.128921
C8    C     C_3   0.120816 0.715776 0.730222 0.146994
C9    C     C_3   0.218854 0.450903 0.738002 0.155973
C10   C     C_3   0.788759 0.903313 0.721246 -0.165489
C11   C     C_3   0.074392 0.864645 0.719250 -0.200746
C12   C     C_3   0.240525 0.285743 0.722070 -0.186475
C13   C     C_3   0.802052 0.919752 0.777196 -0.211949
C14   C     C_3   0.075588 0.884846 0.774986 -0.231578
C15   C     C_3   0.246142 0.277434 0.778405 -0.203376
H1    H     H_    0.842161 0.872053 0.707656 0.195156
H2    H     H_    0.088169 0.938023 0.698915 0.224289
H3    H     H_    0.205227 0.203582 0.705337 0.237014
H4    H     H_    0.818096 0.982340 0.702848 0.262152
H5    H     H_    0.992296 0.799997 0.707719 0.221192
H6    H     H_    0.324425 0.332513 0.707298 0.173792
H7    H     H_    0.832553 0.005923 0.785719 0.237220
H8    H     H_    0.991730 0.849797 0.789186 0.208062
H9    H     H_    0.330235 0.330800 0.791180 0.221020
H10   H     H_    0.865004 0.900708 0.789153 0.219301
H11   H     H_    0.114911 0.973137 0.781428 0.252906
H12   H     H_    0.229190 0.194264 0.787652 0.231024
C16   C     C_1   0.738680 0.874872 0.900962 0.119321
C17   C     C_1   0.122667 0.866605 0.899145 0.129409
C18   C     C_1   0.136514 0.257652 0.899687 0.123860
C19   C     C_3   0.668033 0.826444 0.709327 -0.025138
C20   C     C_3   0.160827 0.831164 0.707010 -0.024371
C21   C     C_3   0.171535 0.340074 0.708360 -0.045228
C22   C     C_3   0.608155 0.884069 0.789501 0.313876
C23   C     C_3   0.098370 0.718019 0.787740 0.325810
C24   C     C_3   0.192475 0.424832 0.795190 0.336104
C25   C     C_3   0.694337 0.849808 0.805588 -0.071387
C26   C     C_3   0.140549 0.840287 0.803118 -0.084193
C27   C     C_3   0.161595 0.302650 0.803847 -0.066348
C28   C     C_3   0.651876 0.727577 0.791575 0.067335
C29   C     C_3   0.263597 0.909758 0.787461 0.055195
C30   C     C_3   0.048884 0.225401 0.779065 0.089025
C31   C     C_3   0.635203 0.713727 0.734677 0.042835
C32   C     C_3   0.273263 0.916473 0.730149 0.064790
C33   C     C_3   0.051100 0.266351 0.725279 0.093175
C34   C     C_1   0.714626 0.864918 0.858503 0.092256
C35   C     C_1   0.129186 0.850925 0.856295 0.101234
C36   C     C_1   0.153603 0.280295 0.856949 0.092018
C37   C     C_1   0.644864 0.814418 0.655914 0.026134
C38   C     C_1   0.175831 0.823456 0.654098 0.026993
C39   C     C_1   0.176108 0.359683 0.655210 0.004746
C40   C     C_1   0.611069 0.798986 0.614333 0.008700
C41   C     C_1   0.197569 0.810534 0.612938 0.010917
C42   C     C_1   0.187536 0.388805 0.613202 0.011579
H13   H     H_    0.547648 0.661859 0.730075 0.141935
H14   H     H_    0.333728 0.891204 0.719572 0.054340
H15   H     H_    0.015395 0.320611 0.727266 0.131434
H16   H     H_    0.570786 0.679250 0.808927 0.214057
H17   H     H_    0.305322 0.864669 0.799534 0.174084
H18   H     H_    0.982013 0.229252 0.799072 0.175384
H19   H     H_    0.516940 0.828832 0.719008 0.097418
H20   H     H_    0.188738 0.698698 0.723929 0.110204
H21   H     H_    0.180590 0.498379 0.724997 0.123329
O14   O     O_3   0.000000 0.000000 0.017910 -0.297145
Cr4   Cr    Cr6+3 0.156760 0.076070 0.017830 1.162473
Cr5   Cr    Cr6+3 0.923930 0.080690 0.017830 1.164017
Cr6   Cr    Cr6+3 0.919310 0.843240 0.017830 1.167394
O15   O     O_R   0.149710 0.171070 0.967700 -0.491977
O16   O     O_R   0.828930 0.978640 0.967700 -0.492011
O17   O     O_R   0.021360 0.850290 0.967700 -0.487469
C43   C     C_R   0.105996 0.217851 0.948519 0.576285
C44   C     C_R   0.781082 0.887545 0.949115 0.571561
C45   C     C_R   0.111986 0.894805 0.948289 0.573998
O18   O     O_R   0.178510 0.985930 0.071830 -0.492494
O19   O     O_R   0.014070 0.192580 0.071830 -0.491369
O20   O     O_R   0.807420 0.821490 0.071830 -0.491472
O21   O     O_R   0.147830 0.173300 0.066650 -0.454966
O22   O     O_R   0.826700 0.974530 0.066650 -0.455663
O23   O     O_R   0.025470 0.852170 0.066650 -0.454174
O24   O     O_R   0.180530 0.983530 0.965090 -0.479313
O25   O     O_R   0.016470 0.197000 0.965090 -0.479650
O26   O     O_R   0.803000 0.819470 0.965090 -0.478442
C46   C     C_R   0.610923 0.805493 0.385212 0.026291
C47   C     C_R   0.194904 0.804447 0.385012 0.026674
C48   C     C_R   0.196641 0.390169 0.384992 0.026706
C49   C     C_R   0.596655 0.882978 0.359064 -0.121358
C50   C     C_R   0.120083 0.712995 0.358276 -0.121583
C51   C     C_R   0.288566 0.407911 0.357820 -0.121767
C52   C     C_R   0.623739 0.900589 0.310076 -0.119047
C53   C     C_R   0.102778 0.722749 0.309318 -0.118886
C54   C     C_R   0.278857 0.381248 0.308754 -0.118893
C55   C     C_R   0.669219 0.843984 0.286665 0.036842
C56   C     C_R   0.157159 0.824683 0.286485 0.036895
C57   C     C_R   0.176576 0.333014 0.286289 0.036659
C58   C     C_R   0.693831 0.774727 0.314009 -0.113968
C59   C     C_R   0.224057 0.917909 0.314339 -0.113655
C60   C     C_R   0.083128 0.305489 0.314579 -0.113871
C61   C     C_R   0.663550 0.754490 0.362987 -0.125217
C62   C     C_R   0.243886 0.907685 0.363292 -0.124268
C63   C     C_R   0.093240 0.335135 0.363636 -0.124341
C64   C     C_R   0.663786 0.760010 0.206026 -0.112936
C65   C     C_R   0.240440 0.904770 0.206097 -0.114925
C66   C     C_R   0.094314 0.335430 0.206498 -0.114206
C67   C     C_R   0.683550 0.768898 0.156151 -0.119446
C68   C     C_R   0.231395 0.916142 0.156320 -0.121801
C69   C     C_R   0.082456 0.314970 0.156693 -0.120352
C70   C     C_R   0.728442 0.959106 0.158888 0.200174
C71   C     C_R   0.042406 0.770470 0.158737 0.200475
C72   C     C_R   0.231148 0.274110 0.157851 0.200237
C73   C     C_R   0.713912 0.950625 0.209428 -0.102936
C74   C     C_R   0.051040 0.763647 0.209196 -0.102417
C75   C     C_R   0.238547 0.289608 0.208324 -0.102817
C76   C     C_R   0.684127 0.852129 0.233409 -0.015409
C77   C     C_R   0.148959 0.832186 0.233299 -0.015325
C78   C     C_R   0.168725 0.317691 0.233069 -0.015678
C79   C     C_R   0.722184 0.869557 0.132689 0.004238
C80   C     C_R   0.131208 0.853929 0.132726 0.004284
C81   C     C_R   0.145925 0.278060 0.132502 0.003892
H22   H     H_    0.555976 0.923622 0.375119 0.140765
H23   H     H_    0.081293 0.631959 0.373885 0.141349
H24   H     H_    0.369684 0.450815 0.373195 0.140486
H25   H     H_    0.635369 0.681598 0.223287 0.137989
H26   H     H_    0.318453 0.954879 0.223444 0.138107
H27   H     H_    0.043150 0.362372 0.224369 0.138331
H28   H     H_    0.674845 0.698388 0.136419 0.194637
H29   H     H_    0.301373 0.978264 0.136788 0.195551
H30   H     H_    0.019091 0.321919 0.137615 0.197269
H31   H     H_    0.602305 0.953327 0.290092 0.113364
H32   H     H_    0.051966 0.649126 0.288889 0.113603
H33   H     H_    0.352602 0.404901 0.287982 0.113639
H34   H     H_    0.726961 0.021721 0.229937 0.144822
H35   H     H_    0.980479 0.705106 0.229567 0.144673
H36   H     H_    0.298488 0.278557 0.228203 0.144965
H37   H     H_    0.732315 0.732844 0.297083 0.119712
H38   H     H_    0.264262 0.998047 0.297851 0.119030
H39   H     H_    0.002819 0.264997 0.298362 0.119170
H40   H     H_    0.676391 0.695339 0.382668 0.133503
H41   H     H_    0.301073 0.979402 0.383395 0.133942
H42   H     H_    0.021215 0.319793 0.384113 0.133456
C82   C     C_R   0.106308 0.221642 0.085737 0.571500
C83   C     C_R   0.778480 0.885389 0.085831 0.568860
C84   C     C_R   0.114785 0.893752 0.085901 0.569929
N1    N     N_R   0.638674 0.994861 0.808296 0.104730
O27   O     O_R   0.723124 0.082280 0.791819 -0.284727
O28   O     O_R   0.583928 0.007083 0.843750 -0.201903
N2    N     N_R   0.980104 0.649515 0.798796 0.153458
O29   O     O_R   0.906723 0.655944 0.772674 -0.221342
O30   O     O_R   0.946181 0.575927 0.832993 -0.147392
N3    N     N_R   0.288115 0.497871 0.825951 0.169245
O31   O     O_R   0.382129 0.503265 0.820105 -0.291706
O32   O     O_R   0.276804 0.547928 0.863665 -0.158293
N4    N     N_R   0.500612 0.804925 0.810438 0.052431
O33   O     O_R   0.484735 0.800013 0.857511 -0.222104
O34   O     O_R   0.430824 0.723332 0.784453 -0.324529
N5    N     N_R   0.158883 0.676691 0.816624 0.101656
O35   O     O_R   0.146520 0.665053 0.863831 -0.213469
O36   O     O_R   0.232947 0.660717 0.796519 -0.281063
N6    N     N_R   0.097747 0.437195 0.811013 0.079180
O37   O     O_R   0.064248 0.418546 0.856216 -0.230371
O38   O     O_R   0.042539 0.461585 0.780648 -0.336925
N7    N     N_R   0.715925 0.679706 0.811731 0.134363
O39   O     O_R   0.809405 0.739227 0.832832 -0.333777
O40   O     O_R   0.666053 0.575457 0.820308 -0.172823
N8    N     N_R   0.323169 0.016948 0.811721 0.124894
O41   O     O_R   0.274157 0.067395 0.828961 -0.342585
O42   O     O_R   0.426237 0.057314 0.820935 -0.194242
N9    N     N_R   0.027108 0.112667 0.782426 0.027599
O43   O     O_R   0.030029 0.059784 0.744149 -0.393075
O44   O     O_R   0.015474 0.068045 0.825240 -0.413340
N10   N     N_R   0.751186 0.058929 0.135172 0.091202
O45   O     O_R   0.807332 0.151654 0.157594 -0.350164
O46   O     O_R   0.699930 0.055844 0.095262 -0.284119
N11   N     N_R   0.943112 0.693885 0.134936 0.091176
O47   O     O_R   0.850094 0.658020 0.157285 -0.349032
O48   O     O_R   0.947076 0.645633 0.094998 -0.281964
N12   N     N_R   0.308891 0.252645 0.133345 0.091421
O49   O     O_R   0.347395 0.197060 0.155138 -0.346440
O50   O     O_R   0.355013 0.304017 0.093118 -0.286041
O51   O     O_3   0.647465 0.986362 0.710759 -0.516519
C85   C     C_3   0.566276 0.010740 0.696344 0.035023
H43   H     H_    0.519398 0.011232 0.728899 0.211365
H44   H     H_    0.510900 0.950950 0.668814 0.106587
C86   C     C_3   0.620608 0.123023 0.672921 -0.259850
H45   H     H_    0.672319 0.125388 0.641713 0.173226
H46   H     H_    0.557927 0.141762 0.659074 0.154297
H47   H     H_    0.672150 0.185736 0.700162 0.226831
O52   O     O_3   0.024159 0.637288 0.705984 -0.489763
C87   C     C_3   0.040982 0.568385 0.673616 0.023686
H48   H     H_    0.028008 0.494701 0.693336 0.179549
H49   H     H_    0.123291 0.607734 0.656494 0.085233
C88   C     C_3   0.957275 0.531973 0.632893 -0.309649
H50   H     H_    0.967804 0.603767 0.611902 0.168480
H51   H     H_    0.967826 0.475928 0.607769 0.127050
H52   H     H_    0.873718 0.488760 0.648538 0.201847
O53   O     O_3   0.333257 0.515238 0.731282 -0.498473
C89   C     C_3   0.364559 0.568467 0.685400 -0.007117
H53   H     H_    0.413396 0.656907 0.691793 0.140566
H54   H     H_    0.297712 0.563247 0.662492 0.085466
C90   C     C_3   0.434428 0.529102 0.658469 -0.346870
H55   H     H_    0.386649 0.458624 0.634517 0.147934
H56   H     H_    0.497120 0.594233 0.636059 0.153673
H57   H     H_    0.475982 0.502926 0.684845 0.217490
N13   N     N_R   0.687166 0.654851 0.712447 0.099887
O54   O     O_R   0.652435 0.553779 0.724286 -0.237852
O55   O     O_R   0.753163 0.693968 0.675301 -0.346054
N14   N     N_R   0.314628 0.028741 0.711362 0.087727
O56   O     O_R   0.408555 0.106861 0.725825 -0.296891
O57   O     O_R   0.270880 0.048105 0.673685 -0.354380
N15   N     N_R   0.981173 0.181596 0.690017 0.104049
O58   O     O_R   0.887103 0.172120 0.679366 -0.339592
O59   O     O_R   0.020903 0.137099 0.660604 -0.302732

loop_
_geom_bond_atom_site_label_1
_geom_bond_atom_site_label_2
_geom_bond_distance
_ccdc_geom_bond_type
C11   C20   1.545810 S    
C72   C81   1.416305 A    
O12   C6    1.293193 A    
O52   C87   1.416953 S    
C75   C78   1.401980 A    
O8    C6    1.296049 A    
C10   H1    1.107429 S    
N3    O31   1.300670 A    
Cr5   O22   1.969784 S    
C70   C79   1.415800 A    
O23   C84   1.218870 A    
C64   H25   1.082775 S    
O11   C5    1.295839 A    
O15   C43   1.224652 A    
N5    O35   1.302641 A    
C52   H31   1.082198 S    
C87   H49   1.112726 S    
C30   H18   1.113504 S    
C8    O52   1.428643 S    
O5    Cr2   1.965645 S    
C11   H2    1.106379 S    
Cr6   O20   2.067910 S    
C14   C26   1.551807 S    
C53   H32   1.082301 S    
C15   H12   1.106185 S    
C71   C80   1.416239 A    
C49   C52   1.381416 A    
C66   H27   1.082818 S    
N2    O29   1.300900 A    
O3    C1    1.314781 A    
N9    O44   1.302615 A    
O14   Cr4   1.925063 S    
C25   C28   1.568655 S    
C38   C41   1.202800 T    
C26   C35   1.478417 S    
C32   H14   1.112446 S    
O7    C5    1.297148 A    
O1    C2    1.304603 A    
C90   H57   1.105004 S    
C51   H24   1.083330 S    
C23   N2    1.489413 S    
N11   O48   1.301457 A    
C80   C84   1.465298 S    
C12   C21   1.555694 S    
C9    O53   1.420598 S    
C5    C48   1.459671 S    
C49   H22   1.083282 S    
C69   C81   1.402169 A    
C63   H42   1.083162 S    
N15   O59   1.302927 A    
C15   H9    1.103935 S    
N6    O37   1.302557 A    
O4    Cr1   1.958725 S    
C81   C82   1.464583 S    
O9    C4    1.301722 A    
N7    O40   1.301707 A    
Cr6   O26   2.089529 S    
C13   H7    1.096199 S    
C86   H47   1.110781 S    
C66   C78   1.400952 A    
C87   C88   1.520273 S    
C50   C53   1.382174 A    
C17   C45   1.429527 S    
C61   H40   1.083128 S    
C90   H56   1.095520 S    
C24   C27   1.574932 S    
C74   H35   1.082297 S    
C60   C63   1.391597 A    
C9    C21   1.586596 S    
C8    C23   1.607308 S    
N4    O34   1.297754 A    
C12   H3    1.109717 S    
C86   H45   1.110789 S    
N3    O32   1.301983 A    
C67   C79   1.402214 A    
Cr3   O13   2.074533 S    
C11   C14   1.549273 S    
C87   H48   1.105040 S    
C60   H39   1.082849 S    
N11   O47   1.301347 A    
C47   C62   1.400788 A    
C69   H30   1.083331 S    
O6    C3    1.324692 A    
O4    C1    1.324109 A    
C71   N11   1.437435 S    
N8    O42   1.299925 A    
C20   C32   1.577522 S    
N2    O30   1.301878 A    
C28   N7    1.479359 S    
O21   C82   1.213298 A    
C68   C80   1.402666 A    
C3    C40   1.445645 S    
C52   C55   1.400288 A    
O8    Cr2   2.080026 S    
O1    Cr1   2.082162 S    
C22   C25   1.579621 S    
C21   C33   1.561416 S    
O10   Cr1   1.961953 S    
O2    Cr2   2.086911 S    
C88   H50   1.110504 S    
C8    C20   1.571831 S    
O11   Cr2   1.967020 S    
Cr1   O13   2.074419 S    
C28   H16   1.108059 S    
O14   Cr5   1.912726 S    
C64   C67   1.385310 A    
N13   O54   1.300746 A    
Cr4   O24   2.078100 S    
C4    C47   1.460874 S    
C7    C22   1.595960 S    
O51   C85   1.407921 S    
C73   C76   1.402376 A    
C16   C34   1.200095 T    
O6    Cr3   1.964764 S    
C19   C31   1.582307 S    
O9    Cr3   2.079421 S    
C17   C35   1.204030 T    
C47   C50   1.404578 A    
C33   N15   1.473997 S    
Cr5   O19   2.077527 S    
C70   C73   1.393912 A    
C18   C36   1.204785 T    
C30   N9    1.467394 S    
C65   C68   1.385745 A    
N12   O50   1.301470 A    
O18   C84   1.222844 A    
C50   H23   1.083278 S    
N9    O43   1.296589 A    
C65   C77   1.400691 A    
O20   C83   1.219692 A    
C24   N3    1.491837 S    
N13   O55   1.301294 A    
Cr4   O21   1.960170 S    
C25   C34   1.471520 S    
C75   H36   1.082294 S    
N1    O27   1.301581 A    
C89   C90   1.535261 S    
O7    Cr1   2.075235 S    
C37   C40   1.212557 T    
Cr6   O23   1.969073 S    
C27   C36   1.479757 S    
Cr6   O17   1.951665 S    
N1    O28   1.300848 A    
N15   O58   1.301800 A    
C59   H38   1.082827 S    
C57   C78   1.468127 S    
C7    H19   1.110987 S    
N14   O57   1.301184 A    
C57   C60   1.406297 A    
C55   C76   1.468084 S    
C10   C19   1.538321 S    
C88   H52   1.110822 S    
C71   C74   1.394366 A    
Cr4   O18   2.073123 S    
C8    H20   1.110793 S    
N4    O33   1.302556 A    
Cr2   O13   2.061061 S    
O22   C83   1.215594 A    
C72   N12   1.437604 S    
C62   H41   1.083128 S    
C22   N4    1.484482 S    
C11   H5    1.110571 S    
C54   C57   1.400623 A    
C56   C59   1.406523 A    
O5    C2    1.325604 A    
C6    C46   1.460048 S    
N10   O46   1.301465 A    
C65   H26   1.082805 S    
C58   H37   1.082810 S    
C24   N6    1.493799 S    
Cr4   O15   1.958067 S    
C64   C76   1.400799 A    
N8    O41   1.299971 A    
O14   Cr6   1.925230 S    
C18   C43   1.430771 S    
O16   C44   1.228924 A    
C54   H33   1.082303 S    
C48   C63   1.400626 A    
C21   C39   1.476386 S    
C13   H10   1.099219 S    
C9    H21   1.108251 S    
C66   C69   1.385820 A    
C68   H29   1.083414 S    
C12   C15   1.551598 S    
C67   H28   1.083463 S    
C89   H54   1.106992 S    
C85   H43   1.109432 S    
C29   C32   1.572569 S    
O17   C45   1.231488 A    
C32   N14   1.485189 S    
C1    C41   1.428671 S    
C29   N8    1.476611 S    
C88   H51   1.110322 S    
C73   H34   1.082168 S    
C28   C31   1.572703 S    
C22   N1    1.492690 S    
C48   C51   1.404151 A    
Cr5   O16   1.962910 S    
C2    C42   1.429440 S    
C79   C83   1.463855 S    
C55   C58   1.406605 A    
C39   C42   1.204987 T    
C33   H15   1.106537 S    
N12   O49   1.301384 A    
C23   C26   1.579255 S    
C7    C19   1.572397 S    
C23   N5    1.481811 S    
C74   C77   1.402285 A    
O19   C82   1.218696 A    
C31   N13   1.481136 S    
C26   C29   1.574101 S    
C29   H17   1.111043 S    
C27   C30   1.572792 S    
C13   C25   1.550259 S    
C12   H6    1.108114 S    
C30   C33   1.577339 S    
C72   C75   1.393880 A    
Cr5   O25   2.089410 S    
C14   H8    1.102917 S    
C58   C61   1.391756 A    
C51   C54   1.382216 A    
C90   H55   1.100884 S    
N14   O56   1.299987 A    
N6    O38   1.299551 A    
C9    C24   1.608025 S    
C85   H44   1.114061 S    
O3    Cr3   2.071804 S    
C70   N10   1.437710 S    
O53   C89   1.417421 S    
N5    O36   1.293755 A    
C10   H4    1.102269 S    
O12   Cr3   1.953445 S    
C46   C49   1.404447 A    
C89   H53   1.102174 S    
C10   C13   1.546014 S    
N7    O39   1.300220 A    
O10   C4    1.299678 A    
C7    O51   1.424733 S    
C56   C77   1.468680 S    
C86   H46   1.109678 S    
C20   C38   1.473729 S    
C14   H11   1.099656 S    
C15   C27   1.564212 S    
N10   O45   1.301323 A    
C16   C44   1.423481 S    
O2    C3    1.309985 A    
C45   O24   1.233174 A    
C19   C37   1.489878 S    
C59   C62   1.392043 A    
C44   O26   1.227840 A    
C31   H13   1.089756 S    
C85   C86   1.520938 S    
C43   O25   1.232243 A    
C53   C56   1.400410 A    
C46   C61   1.400569 A    
