data_mof_unit_8470.cif
_audit_creation_date              2012-12-10T17:17:31-0500
_audit_creation_method            fapswitch 2.2
_symmetry_space_group_name_H-M    P1
_symmetry_Int_Tables_number       1
_space_group_crystal_system       triclinic
_cell_length_a                    10.271362
_cell_length_b                    10.492315
_cell_length_c                    12.263178
_cell_angle_alpha                 91.130971
_cell_angle_beta                  109.591317
_cell_angle_gamma                 95.931119
_cell_volume                      1236.34425816

loop_
_atom_site_label
_atom_site_type_symbol
_atom_type_description
_atom_site_fract_x
_atom_site_fract_y
_atom_site_fract_z
_atom_type_partial_charge
Br1   Br    Br    0.571956 0.306282 0.440983 -0.373661
Br2   Br    Br    0.282141 0.410713 0.295900 -0.370224
Br3   Br    Br    0.518092 0.152024 0.780282 -0.429162
Br4   Br    Br    0.826347 0.301972 0.869402 -0.456503
Br5   Br    Br    0.993376 0.133359 0.284343 -0.400983
C1    C     C_R   0.048117 0.734017 0.487495 0.851302
C2    C     C_R   0.200915 0.501907 0.838895 -0.092617
C3    C     C_2   0.060076 0.868089 0.459095 -0.077856
C4    C     C_R   0.132467 0.505892 0.714147 0.844442
C5    C     C_2   0.941145 0.921875 0.415669 -0.142517
C6    C     C_2   0.907926 0.127114 0.488449 -0.159020
C7    C     C_2   0.941287 0.059272 0.408728 0.320825
C8    C     C_2   0.435455 0.503039 0.520304 0.137343
C9    C     C_2   0.570569 0.475263 0.504503 0.300801
C10   C     C_R   0.945491 0.265444 0.501458 0.914455
C11   C     C_R   0.866177 0.489479 0.285633 0.899633
C12   C     C_R   0.418942 0.487956 0.992336 0.085036
C13   C     C_R   0.741508 0.360900 0.976278 0.333645
C14   C     C_R   0.789100 0.471901 0.162123 -0.125946
C15   C     C_R   0.155928 0.575735 0.912866 -0.143023
C16   C     C_R   0.238574 0.600465 0.027907 -0.104946
C17   C     C_R   0.370827 0.561220 0.066886 -0.099493
C18   C     C_R   0.323785 0.442123 0.883500 0.003412
C19   C     C_R   0.557758 0.459290 0.021849 0.009520
C20   C     C_R   0.597624 0.376206 0.947813 -0.051590
C21   C     C_R   0.491255 0.306855 0.854417 0.283148
C22   C     C_R   0.354152 0.337436 0.824254 0.043452
C23   C     C_R   0.658516 0.512595 0.123886 -0.187988
C24   C     C_R   0.834344 0.403098 0.086137 -0.183462
H1    H     H_    0.940861 0.381002 0.112351 0.226459
H2    H     H_    0.245362 0.894932 0.434350 0.215744
H3    H     H_    0.250418 0.936908 0.569399 0.213153
H4    H     H_    0.513513 0.550945 0.692536 0.177369
H5    H     H_    0.478673 0.677109 0.606816 0.162280
H6    H     H_    0.250023 0.257166 0.662778 0.250699
H7    H     H_    0.146748 0.263920 0.746567 0.184709
H8    H     H_    0.840192 0.866311 0.398316 0.140820
H9    H     H_    0.680059 0.641151 0.580924 0.131600
H10   H     H_    0.636534 0.581508 0.179566 0.151556
H11   H     H_    0.059540 0.618479 0.880778 0.171564
H12   H     H_    0.430872 0.587691 0.156310 0.148229
H13   H     H_    0.203422 0.656458 0.085488 0.161504
H14   H     H_    0.846466 0.129990 0.630862 0.247338
H15   H     H_    0.748812 0.025840 0.521554 0.221498
N1    N     N_2   0.313640 0.446500 0.454900 0.052217
N2    N     N_2   0.686360 0.553430 0.545150 -0.218043
N3    N     N_3   0.851362 0.063194 0.568344 -0.444180
N4    N     N_3   0.193555 0.940659 0.481316 -0.377545
N5    N     N_3   0.442458 0.583378 0.618390 -0.409401
N6    N     N_3   0.245324 0.248551 0.745979 -0.393037
O1    O     O_R   0.936910 0.692950 0.509080 -0.612665
O2    O     O_R   0.138320 0.658600 0.480130 -0.594667
O3    O     O_R   0.002900 0.525670 0.675280 -0.586484
O4    O     O_R   0.204310 0.491320 0.646330 -0.600634
O5    O     O_R   0.861680 0.341400 0.519870 -0.549505
O6    O     O_R   0.063090 0.307050 0.490920 -0.581401
O7    O     O_R   0.795690 0.508680 0.353670 -0.594188
O8    O     O_R   0.997100 0.474330 0.324720 -0.566001
Zn1   Zn    Zn3+2 0.865520 0.522940 0.519330 1.000967
Zn2   Zn    Zn3+2 0.134480 0.477060 0.480670 1.042020

loop_
_geom_bond_atom_site_label_1
_geom_bond_atom_site_label_2
_ccdc_geom_bond_type
C6    C7    D    
C3    N4    S    
N1    Zn2   S    
C24   H1    S    
Br1   C9    S    
O5    Zn1   S    
N2    Zn1   S    
C6    N3    S    
C12   C17   A    
H15   N3    S    
C11   O7    A    
Br4   C13   S    
C10   O6    A    
H6    N6    S    
O3    Zn1   S    
H7    N6    S    
C9    N2    D    
C13   C24   A    
O4    Zn2   S    
C8    C9    S    
C19   C20   A    
H9    N2    S    
C8    N1    D    
C14   C23   A    
H3    N4    S    
C21   C22   A    
C12   C18   A    
C13   C20   A    
C5    C7    S    
Br5   C7    S    
C5    H8    S    
C2    C18   A    
C6    C10   S    
C11   O8    A    
C18   C22   A    
H2    N4    S    
C11   C14   S    
Br2   N1    S    
C15   H11   S    
C8    N5    S    
O7    Zn1   S    
C12   C19   A    
C4    O3    A    
O8    Zn2   S    
C16   H13   S    
C17   H12   S    
C19   C23   A    
O1    Zn1   S    
C15   C16   A    
C22   N6    S    
C3    C5    D    
C2    C15   A    
C1    O1    A    
C2    C4    S    
H5    N5    S    
C1    C3    S    
C4    O4    A    
O2    Zn2   S    
C23   H10   S    
C1    O2    A    
C20   C21   A    
C16   C17   A    
H14   N3    S    
Br3   C21   S    
O6    Zn2   S    
C10   O5    A    
H4    N5    S    
C14   C24   A    
