data_mof_unit_15546.cif
_audit_creation_date              2012-10-26T21:05:25-0400
_audit_creation_method            fapswitch 2.2
_symmetry_space_group_name_H-M    P1
_symmetry_Int_Tables_number       1
_space_group_crystal_system       triclinic
_cell_length_a                    9.680749
_cell_length_b                    10.853897
_cell_length_c                    13.858985
_cell_angle_alpha                 96.661815
_cell_angle_beta                  85.039403
_cell_angle_gamma                 89.400204
_cell_volume                      1440.65801363

loop_
_atom_site_label
_atom_site_type_symbol
_atom_type_description
_atom_site_fract_x
_atom_site_fract_y
_atom_site_fract_z
_atom_type_partial_charge
C1    C     C_R   0.499345 0.737558 0.495685 0.558656
C2    C     C_R   0.620127 0.936281 0.510238 -0.073737
C3    C     C_R   0.621691 0.064503 0.528408 0.237931
C4    C     C_R   0.477556 0.500915 0.682645 0.524249
C5    C     C_R   0.496424 0.133483 0.531488 0.002604
C6    C     C_R   0.874210 0.297448 0.393321 0.299286
C7    C     C_R   0.948210 0.184461 0.372170 0.239039
C8    C     C_R   0.092290 0.185962 0.368532 0.192453
C9    C     C_R   0.156118 0.299862 0.388262 0.176870
C10   C     C_R   0.082093 0.402883 0.445573 0.034192
C11   C     C_R   0.933076 0.401817 0.447268 0.055123
C12   C     C_1   0.464283 0.502666 0.785883 -0.035626
C13   C     C_R   0.917854 0.589370 0.555098 0.227729
C14   C     C_R   0.066421 0.588087 0.556340 0.243113
C15   C     C_R   0.498958 0.265011 0.512079 0.585095
C16   C     C_R   0.522654 0.501998 0.317606 0.571851
C17   C     C_1   0.537099 0.506925 0.214995 -0.014649
C18   C     C_2   0.559093 0.511832 0.024116 0.286683
C19   C     C_2   0.442894 0.507123 0.977550 0.284837
C20   C     C_1   0.453526 0.504757 0.872914 -0.001847
C21   C     C_1   0.548591 0.510066 0.128418 -0.004903
C22   C     C_3   0.234912 0.343097 0.227244 -0.258982
C23   C     C_R   0.246751 0.893569 0.464200 0.275255
C24   C     C_3   0.140504 0.659227 0.717533 -0.263966
C25   C     C_3   0.796119 0.676516 0.711485 -0.245033
C26   C     C_R   0.118100 0.953232 0.500153 0.215348
C27   C     C_R   0.117832 0.064534 0.561467 -0.078929
C28   C     C_R   0.242203 0.125614 0.578068 0.210263
C29   C     C_R   0.369455 0.069439 0.536039 -0.008785
C30   C     C_R   0.370743 0.943078 0.498378 -0.008360
C31   C     C_R   0.496744 0.873523 0.494887 -0.042076
Cu1   Cu    Cu3+1 0.359340 0.500010 0.500010 1.049779
Cu2   Cu    Cu3+1 0.640660 0.499990 0.499990 1.023824
H1    H     H_    0.716765 0.885644 0.510414 0.207241
H2    H     H_    0.170340 0.268422 0.193855 0.148773
H3    H     H_    0.100485 0.770608 0.611252 0.234449
H4    H     H_    0.068929 0.722390 0.767285 0.109359
H5    H     H_    0.246118 0.681785 0.738341 0.156809
H6    H     H_    0.117418 0.561556 0.729139 0.156819
H7    H     H_    0.759520 0.518722 0.018857 0.324406
H8    H     H_    0.176007 0.802665 0.349442 0.323756
H9    H     H_    0.002521 0.817408 0.453323 0.314510
H10   H     H_    0.145318 0.260778 0.663112 0.311015
H11   H     H_    0.726890 0.190145 0.597867 0.320789
H12   H     H_    0.019593 0.106551 0.592544 0.157456
H13   H     H_    0.868080 0.775754 0.598565 0.249256
H14   H     H_    0.682834 0.693869 0.726178 0.167966
H15   H     H_    0.845277 0.749192 0.759197 0.112905
H16   H     H_    0.823375 0.583434 0.731332 0.167992
H17   H     H_    0.242448 0.500013 0.982729 0.322271
H18   H     H_    0.740807 0.237286 0.299706 0.334624
H19   H     H_    0.918127 0.051761 0.272137 0.306799
H20   H     H_    0.118626 0.011083 0.314625 0.354630
H21   H     H_    0.347661 0.248012 0.316829 0.287084
H22   H     H_    0.329881 0.347837 0.177360 0.171269
H23   H     H_    0.177377 0.433256 0.234106 0.178690
N1    N     N_R   0.852210 0.498790 0.499090 -0.216124
N2    N     N_R   0.148080 0.498710 0.499060 -0.209557
N3    N     N_2   0.271852 0.316678 0.322194 -0.438843
N4    N     N_2   0.131224 0.681140 0.617059 -0.466033
N5    N     N_2   0.836739 0.687999 0.609902 -0.481042
O1    O     O_R   0.381190 0.680360 0.500010 -0.426302
O2    O     O_3   0.757692 0.311299 0.345764 -0.643085
O3    O     O_3   0.879078 0.079233 0.339821 -0.647445
O4    O     O_3   0.174840 0.085837 0.326062 -0.716802
O5    O     O_3   0.687213 0.516156 0.972139 -0.732917
O6    O     O_3   0.256518 0.798245 0.388334 -0.665104
O7    O     O_3   0.991469 0.906688 0.477306 -0.688999
O8    O     O_3   0.242367 0.233920 0.641292 -0.681488
O9    O     O_3   0.746296 0.117967 0.547596 -0.647110
O10   O     O_R   0.618760 0.680340 0.500000 -0.499740
O11   O     O_R   0.364420 0.499990 0.637850 -0.475524
O12   O     O_R   0.601990 0.499960 0.637840 -0.506330
O13   O     O_R   0.381240 0.319660 0.500000 -0.453486
O14   O     O_R   0.618810 0.319640 0.499990 -0.451233
O15   O     O_R   0.398010 0.500040 0.362160 -0.452807
O16   O     O_R   0.635580 0.500010 0.362150 -0.434598
O17   O     O_3   0.314689 0.503651 0.029539 -0.741586

loop_
_geom_bond_atom_site_label_1
_geom_bond_atom_site_label_2
_ccdc_geom_bond_type
C15   O14   A    
C18   C21   S    
C28   O8    S    
Cu1   N2    S    
C1    O1    A    
C7    C8    A    
H8    O6    S    
C22   H2    S    
C26   C27   A    
C1    O10   A    
C28   C29   A    
C10   N2    A    
C18   C19   D    
Cu1   O13   S    
C30   C31   A    
C13   N1    A    
C1    C31   S    
C24   H6    S    
C16   O16   A    
C23   C26   A    
C23   O6    S    
Cu2   O14   S    
C19   C20   S    
C8    C9    A    
C24   H5    S    
H11   O9    S    
C22   N3    S    
C4    C12   S    
H20   O4    S    
C9    C10   A    
C25   H14   S    
C27   H12   S    
C8    O4    S    
H10   O8    S    
H7    O5    S    
C13   C14   A    
H9    O7    S    
H17   O17   S    
C5    C29   A    
H21   N3    S    
C14   N2    A    
H13   N5    S    
C23   C30   A    
C3    O9    S    
H18   O2    S    
Cu1   O11   S    
H19   O3    S    
C6    C11   A    
C16   C17   S    
C22   H23   S    
C3    C5    A    
C17   C21   T    
C2    C31   A    
C9    N3    S    
C6    O2    S    
C19   O17   S    
C29   C30   A    
C24   N4    S    
C12   C20   T    
C24   H4    S    
C25   N5    S    
C25   H15   S    
C4    O12   A    
C6    C7    A    
Cu2   O12   S    
C4    O11   A    
Cu2   N1    S    
C2    H1    S    
C16   O15   A    
H3    N4    S    
Cu1   O15   S    
C22   H22   S    
C18   O5    S    
C14   N4    S    
C26   O7    S    
Cu1   Cu2   S    
C2    C3    A    
Cu1   O1    S    
Cu2   O16   S    
C25   H16   S    
C7    O3    S    
C5    C15   S    
C10   C11   A    
Cu2   O10   S    
C15   O13   A    
C13   N5    S    
C27   C28   A    
C11   N1    A    
