data_mof_unit_63970.cif
_audit_creation_date              2012-12-10T17:26:40-0500
_audit_creation_method            fapswitch 2.2
_symmetry_space_group_name_H-M    P1
_symmetry_Int_Tables_number       1
_space_group_crystal_system       triclinic
_cell_length_a                    42.577125
_cell_length_b                    29.421828
_cell_length_c                    30.773124
_cell_angle_alpha                 89.982927
_cell_angle_beta                  136.286706
_cell_angle_gamma                 90.012511
_cell_volume                      26639.5638745

loop_
_atom_site_label
_atom_site_type_symbol
_atom_type_description
_atom_site_fract_x
_atom_site_fract_y
_atom_site_fract_z
_atom_type_partial_charge
C1    C     C_R   0.585494 0.500000 0.585924 0.825205
C2    C     C_R   0.085494 0.000000 0.585924 0.825191
C3    C     C_3   0.450987 0.493718 0.171115 -0.477660
C4    C     C_3   0.950834 0.995084 0.170966 -0.477623
C5    C     C_3   0.447193 0.494962 0.218109 0.315830
C6    C     C_3   0.947084 0.996434 0.218004 0.315843
C7    C     C_1   0.500443 0.500337 0.158311 -0.033303
C8    C     C_1   0.000453 0.000290 0.158320 -0.033305
C9    C     C_1   0.498549 0.500587 0.334328 -0.031734
C10   C     C_1   0.998582 0.000599 0.334362 -0.031717
C11   C     C_1   0.499274 0.500129 0.373290 -0.227027
C12   C     C_1   0.999287 0.000131 0.373303 -0.227027
C13   C     C_1   0.636540 0.500002 0.636876 -0.204245
C14   C     C_1   0.136540 0.000002 0.636875 -0.204246
C15   C     C_1   0.678863 0.500002 0.679123 0.005366
C16   C     C_1   0.178863 0.000002 0.679122 0.005386
C17   C     C_1   0.729028 0.500002 0.729209 0.007435
C18   C     C_1   0.229028 0.000002 0.729209 0.007447
C19   C     C_1   0.771350 0.500002 0.771472 0.007477
C20   C     C_1   0.271350 0.000002 0.771472 0.007483
C21   C     C_1   0.821516 0.500001 0.821578 0.006644
C22   C     C_1   0.321516 0.000002 0.821578 0.006647
C23   C     C_R   0.500012 0.500013 0.418936 0.866074
C24   C     C_R   0.000007 0.000013 0.418931 0.865996
C25   C     C_1   0.863839 0.500001 0.863864 -0.195488
C26   C     C_1   0.363839 0.000001 0.863864 -0.195488
C27   C     C_1   0.499983 0.499985 0.635300 -0.201571
C28   C     C_1   0.999983 0.999985 0.635300 -0.201570
C29   C     C_1   0.499992 0.499984 0.676682 0.015647
C30   C     C_1   0.999992 0.999984 0.676682 0.015648
C31   C     C_1   0.500004 0.499987 0.726119 0.004620
C32   C     C_1   0.000003 0.999987 0.726119 0.004621
C33   C     C_1   0.500013 0.499989 0.767503 0.004535
C34   C     C_1   0.000013 0.999989 0.767503 0.004536
C35   C     C_1   0.500023 0.499993 0.816940 0.015138
C36   C     C_1   0.000023 0.999993 0.816940 0.015138
C37   C     C_1   0.500030 0.499996 0.858320 -0.199723
C38   C     C_1   0.000030 0.999996 0.858320 -0.199724
C39   C     C_1   0.363416 0.500003 0.363693 -0.205182
C40   C     C_1   0.863416 0.000003 0.363694 -0.205231
C41   C     C_1   0.321096 0.500004 0.321293 0.004223
C42   C     C_1   0.821095 0.000005 0.321294 0.004204
C43   C     C_1   0.270933 0.500005 0.271061 0.006287
C44   C     C_1   0.770933 0.000005 0.271062 0.006291
C45   C     C_R   0.414458 0.500001 0.414849 0.825554
C46   C     C_R   0.914458 0.000001 0.414850 0.825485
C47   C     C_1   0.228612 0.500004 0.228698 0.006508
C48   C     C_1   0.728612 0.000005 0.228699 0.006509
C49   C     C_1   0.178449 0.500003 0.178500 0.005906
C50   C     C_1   0.678449 0.000003 0.178500 0.005907
C51   C     C_1   0.136127 0.500002 0.136159 -0.196042
C52   C     C_1   0.636127 0.000002 0.136159 -0.196041
C53   C     C_R   0.500033 0.585447 0.994575 0.826396
C54   C     C_R   0.500033 0.414553 0.994574 0.825379
C55   C     C_R   0.000033 0.085447 0.994575 0.826321
C56   C     C_R   0.000033 0.914553 0.994574 0.825451
C57   C     C_R   0.500026 0.499940 0.074727 0.869016
C58   C     C_R   0.000026 0.999939 0.074727 0.869016
C59   C     C_R   0.500031 0.500000 0.908662 0.807955
C60   C     C_R   0.000031 1.000000 0.908662 0.807955
C61   C     C_R   0.000015 0.414876 0.999136 0.815063
C62   C     C_R   0.000015 0.585123 0.999125 0.815035
C63   C     C_R   0.500015 0.914876 0.999136 0.815075
C64   C     C_R   0.500015 0.085123 0.999125 0.815023
C65   C     C_R   0.914887 0.500000 0.914898 0.815270
C66   C     C_R   0.414887 0.000000 0.914898 0.815269
C67   C     C_R   0.085082 0.500000 0.085104 0.815231
C68   C     C_R   0.585082 0.000001 0.085104 0.815233
C69   C     C_1   0.500048 0.636499 0.995422 -0.195786
C70   C     C_1   0.500048 0.363501 0.995414 -0.196398
C71   C     C_1   0.000048 0.136499 0.995422 -0.195871
C72   C     C_1   0.000047 0.863500 0.995415 -0.196311
C73   C     C_R   0.499974 0.499994 0.584950 0.812570
C74   C     C_R   0.999974 0.999994 0.584950 0.812571
C75   C     C_1   0.500050 0.678823 0.996152 0.011151
C76   C     C_1   0.500050 0.321177 0.996137 0.010713
C77   C     C_1   0.000050 0.178823 0.996152 0.011094
C78   C     C_1   0.000050 0.821177 0.996138 0.010785
C79   C     C_1   0.500047 0.728992 0.997013 0.011103
C80   C     C_1   0.500047 0.271007 0.996990 0.010783
C81   C     C_1   0.000047 0.228992 0.997012 0.011060
C82   C     C_1   0.000047 0.771007 0.996990 0.010842
C83   C     C_1   0.000041 0.271316 0.997707 0.009536
C84   C     C_1   0.000042 0.728683 0.997678 0.009357
C85   C     C_1   0.500041 0.771316 0.997707 0.009576
C86   C     C_1   0.500042 0.228683 0.997678 0.009309
C87   C     C_1   0.000034 0.321488 0.998450 0.007628
C88   C     C_1   0.000034 0.678511 0.998417 0.007492
C89   C     C_1   0.500034 0.821488 0.998450 0.007660
C90   C     C_1   0.500034 0.178511 0.998417 0.007454
C91   C     C_1   0.000026 0.363816 0.998926 -0.195164
C92   C     C_1   0.000026 0.636183 0.998896 -0.195249
C93   C     C_1   0.500026 0.863816 0.998926 -0.195139
C94   C     C_1   0.500026 0.136183 0.998896 -0.195277
C95   C     C_3   0.522608 0.545736 0.295011 -0.137353
C96   C     C_3   0.530574 0.460301 0.303913 -0.153636
C97   C     C_3   0.023914 0.045041 0.296314 -0.137369
C98   C     C_3   0.029447 0.959415 0.302784 -0.153610
C99   C     C_3   0.530553 0.459154 0.252692 -0.046113
C100  C     C_3   0.518031 0.548537 0.239659 -0.074412
C101  C     C_3   0.029381 0.958263 0.251518 -0.046069
C102  C     C_3   0.019414 0.047968 0.241041 -0.074447
C103  C     C_1   0.500112 0.500131 0.119761 -0.159225
C104  C     C_1   0.000114 0.000106 0.119763 -0.159228
C105  C     C_3   0.498237 0.500458 0.287590 0.127619
C106  C     C_3   0.998266 0.000476 0.287619 0.127616
C107  C     C_3   0.500987 0.500574 0.205634 0.057677
C108  C     C_3   0.001007 0.000510 0.205654 0.057673
Cu1   Cu    Cu3+1 0.499970 0.542470 0.500570 0.960522
Cu2   Cu    Cu3+1 0.499970 0.457530 0.500570 0.959904
Cu3   Cu    Cu3+1 0.999970 0.042470 0.500570 0.960487
Cu4   Cu    Cu3+1 0.999970 0.957530 0.500570 0.959993
Cu5   Cu    Cu3+1 0.542500 0.500000 0.035600 0.982475
Cu6   Cu    Cu3+1 0.042500 0.000000 0.035600 0.982508
Cu7   Cu    Cu3+1 0.457550 0.500000 0.950640 0.969064
Cu8   Cu    Cu3+1 0.957550 0.000000 0.950640 0.969028
Cu9   Cu    Cu3+1 0.999990 0.500000 0.958110 0.968691
Cu10  Cu    Cu3+1 0.499990 0.000000 0.958110 0.968693
Cu11  Cu    Cu3+1 0.999980 0.500000 0.041890 0.967664
Cu12  Cu    Cu3+1 0.499980 0.000000 0.041890 0.967658
H1    H     H_    0.559564 0.540544 0.337870 0.170853
H2    H     H_    0.565223 0.470970 0.349043 0.170887
H3    H     H_    0.060708 0.038801 0.339010 0.170846
H4    H     H_    0.064387 0.969095 0.348197 0.170891
H5    H     H_    0.428442 0.519501 0.133200 0.174239
H6    H     H_    0.437573 0.461427 0.143995 0.188292
H7    H     H_    0.929033 0.021501 0.133798 0.174203
H8    H     H_    0.936502 0.963190 0.142928 0.188338
O1    O     O_R   0.561950 0.535860 0.562460 -0.561435
O2    O     O_R   0.561950 0.464140 0.562460 -0.560873
O3    O     O_R   0.061950 0.035860 0.562460 -0.561444
O4    O     O_R   0.061950 0.964140 0.562460 -0.560836
O5    O     O_R   0.464160 0.500000 0.896130 -0.559340
O6    O     O_R   0.964160 0.000000 0.896130 -0.559343
O7    O     O_R   0.000010 0.438010 0.963800 -0.557825
O8    O     O_R   0.000010 0.561990 0.963800 -0.557763
O9    O     O_R   0.500010 0.938010 0.963800 -0.557819
O10   O     O_R   0.500010 0.061990 0.963800 -0.557768
O11   O     O_R   0.000000 0.438000 0.034540 -0.557761
O12   O     O_R   0.000000 0.562000 0.034540 -0.557866
O13   O     O_R   0.500000 0.938000 0.034540 -0.557754
O14   O     O_R   0.500000 0.062000 0.034540 -0.557876
O15   O     O_R   0.938010 0.500000 0.902650 -0.557345
O16   O     O_R   0.438010 0.000000 0.902650 -0.557341
O17   O     O_R   0.938010 0.500000 0.973390 -0.558306
O18   O     O_R   0.438010 0.000000 0.973390 -0.558310
O19   O     O_R   0.061960 0.500000 0.026610 -0.558034
O20   O     O_R   0.561960 0.000000 0.026610 -0.558036
O21   O     O_R   0.061960 0.500000 0.097350 -0.557922
O22   O     O_R   0.561960 0.000000 0.097350 -0.557919
O23   O     O_R   0.499980 0.535870 0.439370 -0.576675
O24   O     O_R   0.499980 0.464130 0.439370 -0.579551
O25   O     O_R   0.999980 0.035870 0.439370 -0.576622
O26   O     O_R   0.999980 0.964130 0.439370 -0.579500
O27   O     O_R   0.438000 0.535860 0.438500 -0.560674
O28   O     O_R   0.438000 0.464140 0.438500 -0.561604
O29   O     O_R   0.938000 0.035860 0.438500 -0.560691
O30   O     O_R   0.938000 0.964140 0.438500 -0.561600
O31   O     O_R   0.499970 0.535850 0.561590 -0.556551
O32   O     O_R   0.499970 0.464150 0.561590 -0.556514
O33   O     O_R   0.999970 0.035850 0.561590 -0.556565
O34   O     O_R   0.999970 0.964150 0.561590 -0.556498
O35   O     O_R   0.535890 0.561890 0.029840 -0.558901
O36   O     O_R   0.535890 0.438110 0.029840 -0.559363
O37   O     O_R   0.035890 0.061890 0.029840 -0.558919
O38   O     O_R   0.035890 0.938110 0.029840 -0.559355
O39   O     O_R   0.464160 0.561920 0.958100 -0.561590
O40   O     O_R   0.464160 0.438080 0.958100 -0.562189
O41   O     O_R   0.964160 0.061920 0.958100 -0.561657
O42   O     O_R   0.964160 0.938080 0.958100 -0.562118
O43   O     O_R   0.535890 0.500000 0.090110 -0.566177
O44   O     O_R   0.035890 1.000000 0.090110 -0.566143
O45   O     O_R   0.464150 0.500000 0.018360 -0.577527
O46   O     O_R   0.964150 0.000000 0.018360 -0.577558
O47   O     O_R   0.535900 0.500000 0.967880 -0.558963
O48   O     O_R   0.035900 1.000000 0.967880 -0.558959
C109  C     C_1   0.562371 0.561508 0.264703 0.229674
N1    N     N_1   0.596923 0.571835 0.284214 -0.250898
C110  C     C_1   0.577918 0.461431 0.283896 0.215737
N2    N     N_1   0.614962 0.462957 0.308358 -0.253585
C111  C     C_1   0.064106 0.059667 0.266432 0.229812
N3    N     N_1   0.098938 0.069003 0.286221 -0.250805
C112  C     C_1   0.076788 0.959184 0.282755 0.215614
N4    N     N_1   0.113858 0.959649 0.307235 -0.253624
C113  C     C_3   0.527374 0.412902 0.324441 -0.407890
C114  C     C_3   0.572480 0.386897 0.368293 -0.808600
H9    H     H_    0.583267 0.380765 0.345027 0.266664
H10   H     H_    0.599445 0.406180 0.412525 0.247385
H11   H     H_    0.568353 0.353509 0.380547 0.245314
H12   H     H_    0.518307 0.417053 0.350087 0.219660
H13   H     H_    0.501755 0.389842 0.284856 0.217916
C115  C     C_3   0.514285 0.591425 0.312139 -0.377436
C116  C     C_3   0.550883 0.601536 0.382916 -0.839558
H14   H     H_    0.553956 0.573425 0.409752 0.261816
H15   H     H_    0.584326 0.606778 0.400368 0.253258
H16   H     H_    0.541928 0.633064 0.391857 0.249256
H17   H     H_    0.514737 0.621056 0.290324 0.224183
H18   H     H_    0.481329 0.591935 0.295885 0.225910
C117  C     C_3   0.024911 0.912130 0.321981 -0.407885
C118  C     C_3   0.069247 0.884836 0.365020 -0.808425
H19   H     H_    0.079802 0.878371 0.341510 0.266632
H20   H     H_    0.096783 0.903345 0.409773 0.247428
H21   H     H_    0.064186 0.851591 0.376367 0.245283
H22   H     H_    0.016008 0.916544 0.347802 0.219739
H23   H     H_    0.998622 0.889817 0.281756 0.217879
C119  C     C_3   0.016898 0.090951 0.314747 -0.377292
C120  C     C_3   0.053763 0.100012 0.385799 -0.839717
H24   H     H_    0.056022 0.071829 0.411827 0.261489
H25   H     H_    0.087347 0.104289 0.403399 0.253288
H26   H     H_    0.045713 0.131787 0.395637 0.249281
H27   H     H_    0.018203 0.120554 0.293784 0.224167
H28   H     H_    0.983966 0.092405 0.298510 0.225900
C121  C     C_1   0.512488 0.415619 0.217375 0.242928
N5    N     N_1   0.498415 0.381736 0.189714 -0.293679
C122  C     C_1   0.486256 0.584888 0.193735 0.214142
N6    N     N_1   0.461565 0.613211 0.157859 -0.296295
C123  C     C_1   0.010075 0.915261 0.214971 0.242870
N7    N     N_1   0.995036 0.881792 0.186352 -0.293634
C124  C     C_1   0.988690 0.085211 0.196166 0.214104
N8    N     N_1   0.964815 0.114227 0.161109 -0.296393
C125  C     C_3   0.414766 0.535701 0.198259 -0.321032
C126  C     C_3   0.401432 0.540552 0.233116 -0.842666
H29   H     H_    0.392069 0.507705 0.238804 0.255023
H30   H     H_    0.428709 0.556144 0.280007 0.247576
H31   H     H_    0.371527 0.563427 0.205706 0.238946
H32   H     H_    0.428251 0.568428 0.199989 0.191909
H33   H     H_    0.382453 0.532254 0.147540 0.204569
C127  C     C_3   0.424456 0.449068 0.210552 -0.354819
C128  C     C_3   0.373596 0.443664 0.149266 -0.853784
H34   H     H_    0.352184 0.465475 0.148869 0.260394
H35   H     H_    0.366475 0.451686 0.107574 0.249019
H36   H     H_    0.363230 0.407913 0.144940 0.246351
H37   H     H_    0.440437 0.420456 0.209397 0.198030
H38   H     H_    0.429496 0.443388 0.250920 0.200617
C129  C     C_3   0.915830 0.038079 0.199328 -0.321205
C130  C     C_3   0.902646 0.043309 0.234337 -0.842341
H39   H     H_    0.892369 0.010741 0.239117 0.254938
H40   H     H_    0.930354 0.058134 0.281651 0.247831
H41   H     H_    0.873395 0.067014 0.207583 0.238888
H42   H     H_    0.930237 0.070409 0.201976 0.191905
H43   H     H_    0.883429 0.035550 0.148526 0.204576
C131  C     C_3   0.923053 0.951205 0.209153 -0.354862
C132  C     C_3   0.872057 0.947251 0.147743 -0.853762
H44   H     H_    0.851280 0.969661 0.147988 0.260385
H45   H     H_    0.865159 0.955476 0.106276 0.249030
H46   H     H_    0.860679 0.911810 0.142406 0.246356
H47   H     H_    0.938208 0.922151 0.207166 0.198060
H48   H     H_    0.927938 0.945380 0.249366 0.200471

loop_
_geom_bond_atom_site_label_1
_geom_bond_atom_site_label_2
_ccdc_geom_bond_type
Cu11  O21   S    
C5    C125  S    
C23   O24   A    
Cu7   O40   S    
C100  C122  S    
Cu12  O18   S    
C90   C94   T    
C87   C91   T    
C67   O21   A    
C63   O9    A    
C129  H42   S    
C83   C87   S    
Cu3   Cu4   S    
Cu3   O33   S    
C79   C85   T    
C96   C105  S    
C28   C74   S    
C3    H6    S    
C113  H12   S    
Cu5   O43   S    
C5    C105  S    
C111  N3    T    
C98   H4    S    
C4    C108  S    
C73   O32   A    
C21   C25   T    
C128  H34   S    
Cu4   O30   S    
C98   C117  S    
Cu11  O12   S    
C64   O14   A    
Cu9   O15   S    
C57   O45   A    
C128  H36   S    
C59   O47   A    
Cu9   Cu11  S    
Cu8   O46   S    
C65   O15   A    
Cu8   O6    S    
C9    C105  S    
C132  H44   S    
C46   O30   A    
C96   C99   S    
C117  H23   S    
C130  H39   S    
C18   C20   T    
C62   O8    A    
C11   C23   S    
C129  H43   S    
C80   C86   T    
C95   C105  S    
C33   C35   S    
C19   C21   S    
C119  H27   S    
C53   O39   A    
C54   O36   A    
C88   C92   T    
C130  H40   S    
C118  H19   S    
C56   C72   S    
C62   C92   S    
C120  H26   S    
C2    O4    A    
C129  C130  S    
C31   C33   T    
C113  H13   S    
C45   O27   A    
C115  H18   S    
C97   C119  S    
Cu10  O9    S    
C127  H38   S    
C97   C102  S    
C101  C112  S    
C39   C45   S    
C132  H46   S    
C101  C108  S    
C48   C50   S    
C73   O31   A    
C53   C69   S    
C117  C118  S    
C7    C103  T    
Cu2   O28   S    
C114  H10   S    
C89   C93   T    
C41   C43   S    
C58   O46   A    
C42   C44   S    
C2    C14   S    
C100  C109  S    
C8    C108  S    
C127  C128  S    
C81   C83   T    
C24   O26   A    
Cu6   O38   S    
C6    C106  S    
C57   C103  S    
C56   O38   A    
C4    H8    S    
C120  H24   S    
C26   C66   S    
C84   C88   S    
Cu12  O14   S    
C52   C68   S    
C118  H20   S    
C47   C49   S    
C1    O2    A    
C86   C90   S    
C124  N8    T    
C74   O34   A    
C85   C89   S    
C119  C120  S    
C61   O11   A    
C64   O10   A    
C99   C121  S    
C126  H31   S    
C49   C51   T    
C123  N7    T    
C121  N5    T    
C46   O29   A    
C125  H32   S    
C59   O5    A    
C131  H48   S    
Cu5   Cu7   S    
C32   C34   T    
C58   O44   A    
C122  N6    T    
C112  N4    T    
C99   C110  S    
C125  C126  S    
Cu7   O5    S    
C119  H28   S    
Cu5   O35   S    
C23   O23   A    
C8    C104  T    
C78   C82   S    
C50   C52   T    
C54   C70   S    
C128  H35   S    
C77   C81   S    
C29   C31   S    
C116  H16   S    
C116  H15   S    
C2    O3    A    
C63   O13   A    
Cu8   O42   S    
C45   O28   A    
C51   C67   S    
C115  H17   S    
Cu4   O4    S    
C102  C108  S    
Cu3   O25   S    
C6    C129  S    
C127  H37   S    
C37   C59   S    
C10   C12   T    
C102  C124  S    
Cu10  O16   S    
C38   C60   S    
C97   C106  S    
C95   C115  S    
C4    C6    S    
C20   C22   S    
C109  N1    T    
C82   C84   T    
Cu4   O34   S    
C9    C11   T    
Cu1   O1    S    
C117  H22   S    
C60   O48   A    
C7    C107  S    
C10   C106  S    
Cu10  O20   S    
C58   C104  S    
C40   C46   S    
C70   C76   T    
Cu7   O39   S    
Cu9   O7    S    
C60   O6    A    
C71   C77   T    
Cu2   O32   S    
C24   O25   A    
C61   O7    A    
Cu6   O37   S    
Cu3   O3    S    
C15   C17   S    
C12   C24   S    
C126  H30   S    
C100  C107  S    
C4    H7    S    
C56   O42   A    
C95   C100  S    
C102  C111  S    
Cu12  O22   S    
C96   C113  S    
C16   C18   S    
C53   O35   A    
Cu12  O13   S    
C76   C80   S    
C54   O40   A    
C40   C42   T    
C3    C5    S    
C68   O20   A    
Cu6   O44   S    
C74   O33   A    
Cu6   Cu8   S    
C66   O16   A    
C3    H5    S    
C96   H2    S    
Cu11  O17   S    
C98   C101  S    
C99   C107  S    
C125  H33   S    
Cu2   O2    S    
C1    O1    A    
C131  H47   S    
C98   C106  S    
C5    C127  S    
Cu5   O47   S    
Cu9   O19   S    
C3    C107  S    
C115  C116  S    
C114  H11   S    
C13   C15   T    
C114  H9    S    
Cu2   O24   S    
Cu11  O11   S    
C35   C37   T    
Cu7   O45   S    
C44   C48   T    
C27   C73   S    
Cu1   Cu2   S    
Cu5   O36   S    
C30   C32   S    
Cu6   O48   S    
C95   H1    S    
C113  C114  S    
C75   C79   S    
C118  H21   S    
C131  C132  S    
C65   O17   A    
C36   C38   T    
C17   C19   T    
C34   C36   S    
C28   C30   T    
Cu8   O41   S    
C69   C75   T    
C14   C16   T    
Cu3   O29   S    
C126  H29   S    
Cu1   O27   S    
Cu10  Cu12  S    
C66   O18   A    
C68   O22   A    
C64   C94   S    
C110  N2    T    
C101  C123  S    
Cu1   O23   S    
C1    C13   S    
C39   C41   T    
C97   H3    S    
C116  H14   S    
C22   C26   T    
C67   O19   A    
C72   C78   T    
C27   C29   T    
C120  H25   S    
C25   C65   S    
C55   O37   A    
C6    C131  S    
Cu4   O26   S    
C132  H45   S    
C62   O12   A    
C63   C93   S    
Cu10  O10   S    
Cu9   O8    S    
C43   C47   T    
C55   O41   A    
C130  H41   S    
C55   C71   S    
C61   C91   S    
C57   O43   A    
Cu1   O31   S    
