data_mof_unit_40848.cif
_audit_creation_date              2012-12-10T20:48:20-0500
_audit_creation_method            fapswitch 2.2
_symmetry_space_group_name_H-M    P1
_symmetry_Int_Tables_number       1
_space_group_crystal_system       triclinic
_cell_length_a                    10.659807
_cell_length_b                    8.929579
_cell_length_c                    8.11297
_cell_angle_alpha                 90.001254
_cell_angle_beta                  90.0
_cell_angle_gamma                 89.999575
_cell_volume                      772.254051543

loop_
_atom_site_label
_atom_site_type_symbol
_atom_type_description
_atom_site_fract_x
_atom_site_fract_y
_atom_site_fract_z
_atom_type_partial_charge
C1    C     C_R   0.500000 0.218018 0.500004 0.976702
C2    C     C_1   0.500000 0.934781 0.500022 -0.161374
C3    C     C_3   0.071162 0.500282 0.318622 -0.342164
C4    C     C_3   0.928837 0.500586 0.318620 -0.342138
C5    C     C_3   0.121010 0.500022 0.498945 -0.006591
C6    C     C_3   0.878989 0.500018 0.498943 -0.006637
C7    C     C_R   0.257156 0.500009 0.499698 0.982926
C8    C     C_R   0.742844 0.499991 0.499699 0.982918
C9    C     C_R   0.500000 0.781956 0.500006 0.976514
C10   C     C_1   0.500000 0.065193 0.500018 -0.161569
C11   C     C_3   0.072682 0.642296 0.589932 0.158342
C12   C     C_3   0.072677 0.357501 0.589449 0.158522
C13   C     C_3   0.927324 0.642141 0.590222 0.158775
C14   C     C_3   0.927318 0.357334 0.589147 0.158132
H1    H     H_    0.105729 0.638136 0.720621 0.047369
H2    H     H_    0.119267 0.147002 0.597224 0.335868
H3    H     H_    0.880750 0.852614 0.599138 0.335521
H4    H     H_    0.881153 0.146662 0.595833 0.336341
H5    H     H_    0.105419 0.361566 0.720278 0.047074
H6    H     H_    0.894581 0.637501 0.721027 0.047181
H7    H     H_    0.894250 0.360893 0.719849 0.047313
H8    H     H_    0.105581 0.600690 0.250881 0.216462
H9    H     H_    0.105294 0.399824 0.250718 0.216740
H10   H     H_    0.894694 0.601354 0.251280 0.216698
H11   H     H_    0.894435 0.400485 0.250310 0.216507
H12   H     H_    0.118946 0.852891 0.597849 0.335931
N1    N     N_1   0.500000 0.500030 0.073640 -0.039756
N2    N     N_1   0.500000 0.500030 0.926360 -0.039947
O1    O     O_R   0.500000 0.285340 0.636850 -0.623071
O2    O     O_3   0.121025 0.227937 0.513363 -0.708632
O3    O     O_3   0.878982 0.772049 0.514839 -0.708886
O4    O     O_3   0.879362 0.227910 0.512341 -0.708311
O5    O     O_R   0.500000 0.285340 0.363150 -0.609963
O6    O     O_R   0.314790 0.499970 0.636880 -0.650963
O7    O     O_R   0.314790 0.499970 0.363120 -0.625682
O8    O     O_R   0.685210 0.499970 0.636880 -0.650964
O9    O     O_R   0.685210 0.499970 0.363120 -0.625673
O10   O     O_R   0.500000 0.714650 0.636900 -0.622979
O11   O     O_R   0.500000 0.714650 0.363100 -0.610181
O12   O     O_3   0.120651 0.772062 0.513861 -0.708597
Zn1   Zn    Zn3+2 0.500000 0.499990 0.682780 0.989016
Zn2   Zn    Zn3+2 0.500000 0.499990 0.317220 1.013227

loop_
_geom_bond_atom_site_label_1
_geom_bond_atom_site_label_2
_ccdc_geom_bond_type
C6    C14   S    
C3    H9    S    
O1    Zn1   S    
C1    O1    A    
C4    H11   S    
C1    O5    A    
C6    C13   S    
C11   C13   S    
N1    Zn2   S    
H12   O12   S    
O8    Zn1   S    
O6    Zn1   S    
C11   H1    S    
C5    C12   S    
C4    H10   S    
O5    Zn2   S    
C12   H5    S    
C9    O10   A    
C12   C14   S    
C5    C11   S    
O11   Zn2   S    
C11   O12   S    
H3    O3    S    
C7    O6    A    
H4    O4    S    
C8    O9    A    
H2    O2    S    
C3    C4    S    
C2    C10   T    
C3    C5    S    
N2    Zn1   S    
C9    O11   A    
C14   H7    S    
O10   Zn1   S    
C4    C6    S    
C8    O8    A    
O9    Zn2   S    
C5    C7    S    
O7    Zn2   S    
C3    H8    S    
C6    C8    S    
C13   H6    S    
C12   O2    S    
C2    C9    S    
C7    O7    A    
C13   O3    S    
C1    C10   S    
C14   O4    S    
N1    N2    T    
