data_mof_unit_37742.cif
_audit_creation_date              2012-12-10T20:44:47-0500
_audit_creation_method            fapswitch 2.2
_symmetry_space_group_name_H-M    P1
_symmetry_Int_Tables_number       1
_space_group_crystal_system       triclinic
_cell_length_a                    9.88972
_cell_length_b                    10.658855
_cell_length_c                    16.659276
_cell_angle_alpha                 88.887865
_cell_angle_beta                  94.92373
_cell_angle_gamma                 89.713393
_cell_volume                      1749.25668116

loop_
_atom_site_label
_atom_site_type_symbol
_atom_type_description
_atom_site_fract_x
_atom_site_fract_y
_atom_site_fract_z
_atom_type_partial_charge
C1    C     C_R   0.499677 0.260731 0.495386 0.869977
C2    C     C_R   0.645517 0.495521 0.787548 -0.256317
C3    C     C_R   0.562573 0.615586 0.142582 -0.190762
C4    C     C_R   0.568509 0.599394 0.225263 0.608170
C5    C     C_R   0.459438 0.557384 0.093171 0.214771
C6    C     C_R   0.471130 0.525477 0.259924 -0.181653
C7    C     C_R   0.363920 0.473392 0.211530 -0.276690
C8    C     C_R   0.358790 0.488934 0.128217 -0.140032
C9    C     C_R   0.615083 0.063375 0.517540 0.111512
C10   C     C_R   0.501251 0.129343 0.484422 -0.164166
C11   C     C_R   0.394100 0.065497 0.440886 -0.042675
C12   C     C_R   0.518129 0.502247 0.653504 0.886232
C13   C     C_R   0.393829 0.934725 0.446576 -0.154407
C14   C     C_R   0.500902 0.871710 0.491034 -0.148491
C15   C     C_R   0.616639 0.935845 0.518990 0.193198
C16   C     C_3   0.698165 0.928050 0.599354 -0.285723
C17   C     C_3   0.697128 0.071600 0.597500 -0.312415
C18   C     C_R   0.079341 0.424104 0.552611 0.122334
C19   C     C_R   0.061721 0.566641 0.442828 -0.020656
C20   C     C_R   0.917911 0.564933 0.443143 0.052156
C21   C     C_R   0.937032 0.424876 0.552932 0.074410
C22   C     C_3   0.945756 0.429923 0.642650 0.451307
C23   C     C_R   0.499848 0.739819 0.499411 0.884911
C24   C     C_3   0.099021 0.427430 0.642266 -0.487090
C25   C     C_R   0.481923 0.505253 0.346457 0.893776
C26   C     C_R   0.529963 0.531521 0.738368 -0.072290
C27   C     C_R   0.431301 0.608392 0.767818 -0.188266
C28   C     C_R   0.444197 0.645973 0.847613 -0.049153
C29   C     C_R   0.556584 0.601975 0.898708 0.216912
C30   C     C_R   0.660677 0.530694 0.867915 -0.007007
H1    H     H_    0.310601 0.882389 0.417308 0.191894
H2    H     H_    0.641326 0.883280 0.647035 0.171476
H3    H     H_    0.797833 0.115240 0.591260 0.127958
H4    H     H_    0.854572 0.620145 0.399449 0.232581
H5    H     H_    0.902619 0.345978 0.671452 0.028554
H6    H     H_    0.148211 0.515153 0.664519 0.245707
H7    H     H_    0.640742 0.671178 0.117586 0.209409
H8    H     H_    0.146044 0.339370 0.668674 0.172851
H9    H     H_    0.722925 0.438530 0.763429 0.168640
H10   H     H_    0.287130 0.417712 0.237923 0.191887
H11   H     H_    0.278735 0.444462 0.090661 0.178288
H12   H     H_    0.345817 0.641592 0.727846 0.199796
N1    N     N_2   0.556912 0.613883 0.982397 -0.149118
N2    N     N_2   0.459010 0.557767 0.008457 -0.177957
N3    N     N_R   0.142860 0.499130 0.500540 -0.139505
N4    N     N_R   0.857210 0.499170 0.500530 -0.108289
O1    O     O_R   0.614690 0.316790 0.499990 -0.631751
O2    O     O_R   0.385350 0.316760 0.500000 -0.616094
O3    O     O_R   0.627460 0.498860 0.616130 -0.571650
O4    O     O_R   0.398120 0.498820 0.616130 -0.619700
O5    O     O_R   0.614650 0.683240 0.500000 -0.559761
O6    O     O_R   0.385310 0.683210 0.500010 -0.652464
O7    O     O_R   0.601880 0.501180 0.383870 -0.569504
O8    O     O_R   0.372540 0.501140 0.383870 -0.670087
Zn1   Zn    Zn3+2 0.653130 0.500020 0.499990 1.036105
Zn2   Zn    Zn3+2 0.346870 0.499980 0.500010 0.949246
F1    F     F_    0.669044 0.656890 0.271256 -0.641151
C31   C     C_2   0.838572 0.873535 0.596464 0.513237
H13   H     H_    0.909800 0.877480 0.649612 0.090986
O9    O     O_2   0.873725 0.824923 0.535745 -0.525739
C32   C     C_2   0.622313 0.129403 0.663017 0.434868
H14   H     H_    0.669347 0.204795 0.697981 0.041305
O10   O     O_2   0.509430 0.093488 0.677025 -0.550005
C33   C     C_2   0.120439 0.646584 0.381254 0.464989
H15   H     H_    0.224836 0.674221 0.387548 0.116525
O11   O     O_2   0.050533 0.685008 0.321752 -0.526540
F2    F     F_    0.899239 0.543358 0.669170 -0.630506
C34   C     C_2   0.784055 0.487072 0.918084 0.465506
H16   H     H_    0.855412 0.424501 0.892697 0.059595
O12   O     O_2   0.809171 0.521137 0.987281 -0.532043
C35   C     C_2   0.340889 0.731000 0.877498 0.453526
H17   H     H_    0.355631 0.768799 0.937592 0.088163
O13   O     O_2   0.238322 0.760730 0.835168 -0.547307
C36   C     C_2   0.284268 0.131764 0.389901 0.449104
H18   H     H_    0.295125 0.229298 0.372065 0.069381
O14   O     O_2   0.180784 0.077217 0.365745 -0.534279

loop_
_geom_bond_atom_site_label_1
_geom_bond_atom_site_label_2
_ccdc_geom_bond_type
C18   C21   A    
C19   C20   A    
C12   O3    A    
C7    C8    A    
C22   H5    S    
C26   C27   A    
C24   H6    S    
C36   O14   D    
C18   C24   S    
C28   C29   A    
C25   O7    A    
C6    C25   S    
C31   O9    D    
C15   C16   S    
C32   O10   D    
C17   C32   S    
C34   H16   S    
C2    H9    S    
N3    Zn2   S    
C16   C17   S    
N4    Zn1   S    
C24   H8    S    
C7    H10   S    
C9    C10   A    
C20   H4    S    
C13   C14   A    
C29   N1    S    
C17   H3    S    
O7    Zn1   S    
O8    Zn2   S    
C36   H18   S    
C8    H11   S    
C4    C6    A    
C35   O13   D    
C1    O1    A    
C31   H13   S    
O3    Zn1   S    
O4    Zn2   S    
C12   C26   S    
C33   O11   D    
C14   C23   S    
C4    F1    S    
N1    N2    D    
C29   C30   A    
C23   O5    A    
C19   C33   S    
C2    C26   A    
C16   C31   S    
C25   O8    A    
C9    C17   S    
C5    N2    S    
C22   C24   S    
C28   C35   S    
C3    C4    A    
C18   N3    A    
O1    Zn1   S    
C21   N4    A    
O2    Zn2   S    
C13   H1    S    
C1    C10   S    
C3    C5    A    
C11   C36   S    
C5    C8    A    
C12   O4    A    
C19   N3    A    
C1    O2    A    
C6    C7    A    
C16   H2    S    
C2    C30   A    
C33   H15   S    
C9    C15   A    
C35   H17   S    
C11   C13   A    
C27   H12   S    
C23   O6    A    
O5    Zn1   S    
C32   H14   S    
C20   N4    A    
C22   F2    S    
C10   C11   A    
C3    H7    S    
C34   O12   D    
C27   C28   A    
C14   C15   A    
C21   C22   S    
C30   C34   S    
O6    Zn2   S    
