data_mof_unit_30012.cif
_audit_creation_date              2012-12-10T17:52:39-0500
_audit_creation_method            fapswitch 2.2
_symmetry_space_group_name_H-M    P1
_symmetry_Int_Tables_number       1
_space_group_crystal_system       triclinic
_cell_length_a                    14.752844
_cell_length_b                    14.797551
_cell_length_c                    23.534342
_cell_angle_alpha                 76.095644
_cell_angle_beta                  102.868226
_cell_angle_gamma                 114.948281
_cell_volume                      4478.60069007

loop_
_atom_site_label
_atom_site_type_symbol
_atom_type_description
_atom_site_fract_x
_atom_site_fract_y
_atom_site_fract_z
_atom_type_partial_charge
C1    C     C_R   0.880433 0.312424 0.509688 0.847630
C2    C     C_R   0.119567 0.687576 0.490311 0.847632
C3    C     C_R   0.093285 0.536720 0.767443 0.553238
C4    C     C_R   0.906717 0.463279 0.232556 0.553236
C5    C     C_R   0.090622 0.533450 0.708117 -0.313474
C6    C     C_R   0.909380 0.466548 0.291883 -0.313476
C7    C     C_R   0.998091 0.497322 0.671529 -0.173602
C8    C     C_R   0.001910 0.502680 0.328471 -0.173600
C9    C     C_R   0.907162 0.460651 0.695656 0.374871
C10   C     C_R   0.092839 0.539355 0.304344 0.374870
C11   C     C_R   0.910119 0.462327 0.755050 -0.196834
C12   C     C_R   0.089884 0.537680 0.244950 -0.196836
C13   C     C_R   0.002409 0.499841 0.791114 0.171899
C14   C     C_R   0.997594 0.500162 0.208886 0.171901
C15   C     C_R   0.812966 0.204878 0.517162 -0.129433
C16   C     C_R   0.187034 0.795122 0.482838 -0.129433
C17   C     C_R   0.782530 0.029999 0.558919 0.383844
C18   C     C_R   0.217470 0.970001 0.441081 0.383844
C19   C     C_R   0.849261 0.130122 0.546174 -0.153712
C20   C     C_R   0.150739 0.869878 0.453826 -0.153712
C21   C     C_R   0.709905 0.177951 0.497396 -0.182412
C22   C     C_R   0.290095 0.822049 0.502603 -0.182411
C23   C     C_R   0.998721 0.498250 0.608960 0.884872
C24   C     C_R   0.001280 0.501750 0.391040 0.884872
C25   C     C_R   0.640047 0.077697 0.509073 0.054793
C26   C     C_R   0.359953 0.922303 0.490927 0.054792
C27   C     C_R   0.677467 0.003667 0.542267 0.042819
C28   C     C_R   0.322533 0.996333 0.457733 0.042819
C29   C     C_R   0.534020 0.050110 0.490733 0.102959
C30   C     C_R   0.465980 0.949890 0.509267 0.102959
C31   C     C_R   0.506222 0.880556 0.545542 -0.149865
C32   C     C_R   0.493778 0.119444 0.454458 -0.149864
C33   C     C_R   0.609303 0.905963 0.559915 -0.124058
C34   C     C_R   0.390697 0.094037 0.440085 -0.124058
C35   C     C_R   0.713374 0.667183 0.399712 0.267684
C36   C     C_R   0.286626 0.332817 0.600288 0.267684
C37   C     C_R   0.794024 0.635828 0.414506 0.498503
C38   C     C_R   0.205976 0.364172 0.585495 0.498502
C39   C     C_R   0.715955 0.512183 0.492925 0.023583
C40   C     C_R   0.284045 0.487816 0.507074 0.023581
C41   C     C_R   0.627398 0.533828 0.476640 -0.052447
C42   C     C_R   0.372602 0.466172 0.523360 -0.052447
C43   C     C_R   0.631726 0.618732 0.432418 -0.088794
C44   C     C_R   0.368274 0.381267 0.567582 -0.088794
C45   C     C_R   0.963478 0.563207 0.105000 0.666706
C46   C     C_R   0.036526 0.436798 0.895000 0.666701
C47   C     C_R   0.537832 0.478977 0.504835 -0.012488
C48   C     C_R   0.462168 0.521023 0.495165 -0.012489
C49   C     C_R   0.480780 0.616933 0.458571 0.356514
C50   C     C_R   0.519220 0.383066 0.541429 0.356515
C51   C     C_R   0.558789 0.659047 0.424575 -0.090922
C52   C     C_R   0.441211 0.340953 0.575425 -0.090921
C53   C     C_R   0.031795 0.436323 0.134225 0.564969
C54   C     C_R   0.968211 0.563683 0.865775 0.564970
C55   C     C_R   0.040965 0.440510 0.075226 -0.158901
C56   C     C_R   0.959042 0.559498 0.924773 -0.158897
C57   C     C_R   0.999629 0.500199 0.029970 -0.136426
C58   C     C_R   0.000377 0.499807 0.970030 -0.136425
C59   C     C_R   0.958547 0.561100 0.044725 -0.181001
C60   C     C_R   0.041459 0.438907 0.955275 -0.181009
C61   C     C_R   0.089624 0.386507 0.060329 0.433951
C62   C     C_R   0.910386 0.613503 0.939671 0.433943
C63   C     C_R   0.086916 0.382939 0.000859 0.412496
C64   C     C_R   0.913095 0.617073 0.999141 0.412494
Cu1   Cu    Cu3+1 0.081740 0.475680 0.515360 1.040514
Cu2   Cu    Cu3+1 0.918260 0.524320 0.484640 1.040515
H1    H     H_    0.460325 0.805249 0.564393 0.162702
H2    H     H_    0.539675 0.194751 0.435607 0.162702
H3    H     H_    0.566654 0.729848 0.395361 0.233266
H4    H     H_    0.433346 0.270152 0.604639 0.233266
H5    H     H_    0.274062 0.538596 0.467579 0.247725
H6    H     H_    0.725938 0.461403 0.532421 0.247726
H7    H     H_    0.161121 0.560898 0.690457 0.188096
H8    H     H_    0.838880 0.439097 0.309543 0.188093
H9    H     H_    0.840337 0.433207 0.773681 0.189442
H10   H     H_    0.159666 0.566804 0.226318 0.189441
H11   H     H_    0.634758 0.848418 0.586773 0.205876
H12   H     H_    0.365242 0.151582 0.413227 0.205877
H13   H     H_    0.313989 0.761926 0.525175 0.189408
H14   H     H_    0.686011 0.238073 0.474825 0.189408
H15   H     H_    0.070771 0.850234 0.439279 0.229655
H16   H     H_    0.929229 0.149766 0.560721 0.229655
N1    N     N_R   0.996899 0.499442 0.147865 -0.456180
N2    N     N_R   0.003105 0.500563 0.852135 -0.456179
N3    N     N_R   0.795430 0.560810 0.461550 -0.263214
N4    N     N_R   0.204570 0.439190 0.538450 -0.263213
O1    O     O_R   0.977900 0.338110 0.520250 -0.551765
O2    O     O_R   0.022100 0.661890 0.479750 -0.551765
O3    O     O_R   0.839850 0.379180 0.494310 -0.577177
O4    O     O_R   0.160150 0.620820 0.505690 -0.577176
O5    O     O_R   0.069020 0.479430 0.595090 -0.548187
O6    O     O_R   0.930980 0.520570 0.404910 -0.548185
O7    O     O_R   0.930970 0.520500 0.569150 -0.554161
O8    O     O_R   0.069030 0.479500 0.430850 -0.554163
O9    O     O_2   0.935650 0.628336 0.121083 -0.449108
O10   O     O_2   0.064352 0.371666 0.878917 -0.449104
O11   O     O_2   0.055573 0.368578 0.177760 -0.474726
O12   O     O_2   0.944434 0.631428 0.822240 -0.474726
O13   O     O_3   0.139730 0.335231 0.103324 -0.495734
C65   C     C_3   0.236627 0.405173 0.122254 -0.177012
H17   H     H_    0.232403 0.450844 0.151974 0.180841
H18   H     H_    0.276630 0.457235 0.084843 0.090202
H19   H     H_    0.283248 0.362528 0.147650 0.200206
O14   O     O_3   0.860286 0.664785 0.896676 -0.495736
C66   C     C_3   0.763386 0.594849 0.877745 -0.177014
H20   H     H_    0.723378 0.542795 0.915156 0.090204
H21   H     H_    0.767606 0.549169 0.848029 0.180836
H22   H     H_    0.716773 0.637499 0.852344 0.200209
Cl1   Cl    Cl    0.834459 0.940968 0.597476 -0.529148
Cl2   Cl    Cl    0.165541 0.059032 0.402523 -0.529147
Cl3   Cl    Cl    0.104485 0.300762 0.627119 -0.480445
Cl4   Cl    Cl    0.895515 0.699238 0.372881 -0.480444
Cl5   Cl    Cl    0.716455 0.767756 0.340165 -0.486588
Cl6   Cl    Cl    0.283545 0.232245 0.659834 -0.486587
Cl7   Cl    Cl    0.424220 0.700172 0.460031 -0.633973
Cl8   Cl    Cl    0.575780 0.299828 0.539969 -0.633976
O15   O     O_3   0.124126 0.319402 0.988107 -0.499629
C67   C     C_3   0.226300 0.373378 0.979156 -0.130982
H23   H     H_    0.276138 0.360401 0.020338 0.152300
H24   H     H_    0.247477 0.456161 0.963406 0.114358
H25   H     H_    0.240834 0.342751 0.945016 0.216082
O16   O     O_3   0.875894 0.680617 0.011893 -0.499630
C68   C     C_3   0.773717 0.626654 0.020838 -0.130973
H26   H     H_    0.752524 0.543866 0.036579 0.114344
H27   H     H_    0.723889 0.639650 0.979655 0.152312
H28   H     H_    0.759185 0.657275 0.054981 0.216079
O17   O     O_3   0.184767 0.571343 0.803106 -0.564767
C69   C     C_3   0.220098 0.677397 0.796156 -0.272523
H29   H     H_    0.234902 0.713459 0.750041 0.166924
H30   H     H_    0.166349 0.701067 0.809196 0.190724
H31   H     H_    0.292556 0.705280 0.825670 0.200419
O18   O     O_3   0.815235 0.428653 0.196894 -0.564765
C70   C     C_3   0.779909 0.322600 0.203844 -0.272512
H32   H     H_    0.765105 0.286537 0.249958 0.166923
H33   H     H_    0.833659 0.298933 0.190803 0.190723
H34   H     H_    0.707450 0.294715 0.174330 0.200420
Cl9   Cl    Cl    0.788034 0.405587 0.654694 -0.550384
Cl10  Cl    Cl    0.211965 0.594423 0.345305 -0.550381

loop_
_geom_bond_atom_site_label_1
_geom_bond_atom_site_label_2
_ccdc_geom_bond_type
C1    O1    A    
C52   H4    S    
C40   H5    S    
C36   Cl6   S    
C69   H29   S    
Cu2   N3    S    
C54   N2    A    
C68   H26   S    
C4    O18   S    
C61   O13   S    
C27   C33   A    
C31   H1    S    
C66   H21   S    
C13   N2    S    
C59   C64   A    
C38   N4    A    
C60   C63   A    
C37   N3    A    
C35   C37   A    
C22   H13   S    
C29   C32   A    
Cu2   O2    S    
C30   C31   A    
C63   O15   S    
C3    O17   S    
C68   H27   S    
C58   C60   A    
C2    O4    A    
C40   N4    A    
C61   C63   A    
C67   H23   S    
C37   Cl4   S    
C62   C64   A    
C17   C19   A    
C9    Cl9   S    
C45   C59   A    
C47   C48   A    
O18   C70   S    
C49   C51   A    
C70   H34   S    
C50   C52   A    
C39   H6    S    
C31   C33   A    
C6    H8    S    
C1    C15   S    
C23   O5    A    
Cu2   O3    S    
C19   H16   S    
C2    C16   S    
C18   C20   A    
C3    C13   A    
C32   H2    S    
C44   C52   A    
C40   C42   A    
C28   C34   A    
C20   H15   S    
C4    C14   A    
C41   C43   A    
C45   N1    A    
C42   C44   A    
C14   N1    S    
C24   O6    A    
O14   C66   S    
Cu1   O1    S    
C47   C50   A    
C62   O14   S    
C53   C55   A    
C25   C29   A    
Cu1   O4    S    
C66   H22   S    
C54   C56   A    
C17   C27   A    
Cu1   N4    S    
C18   C28   A    
C39   C41   A    
C5    C7    A    
C68   H28   S    
Cu2   O6    S    
C53   O11   S    
C65   H19   S    
C23   O7    A    
C16   C22   A    
C67   H25   S    
C32   C34   A    
C15   C19   A    
C29   C30   A    
C24   O8    A    
O13   C65   S    
C16   C20   A    
C65   H18   S    
C41   C47   A    
C42   C48   A    
C2    O2    A    
C9    C11   A    
C10   C12   A    
Cu2   O7    S    
C46   N2    A    
C4    C6    A    
Cu1   O8    S    
C49   Cl7   S    
C12   C14   A    
C26   C30   A    
C55   C57   A    
C70   H32   S    
C56   C62   A    
C36   C44   A    
C39   N3    A    
O17   C69   S    
C45   O9    S    
C69   H31   S    
C35   C43   A    
Cu1   O5    S    
C21   C25   A    
C48   C49   A    
C1    O3    A    
C46   C60   A    
C8    C10   A    
C18   Cl2   S    
C3    C5    A    
C69   H30   S    
C6    C8    A    
C25   C27   A    
C10   Cl10  S    
C66   H20   S    
C26   C28   A    
C53   N1    A    
C12   H10   S    
O16   C68   S    
C11   H9    S    
O15   C67   S    
C34   H12   S    
C11   C13   A    
C33   H11   S    
C57   C58   A    
C17   Cl1   S    
C43   C51   A    
C7    C23   S    
C55   C61   A    
C21   H14   S    
C36   C38   A    
C65   H17   S    
C8    C24   S    
C56   C58   A    
C35   Cl5   S    
C50   Cl8   S    
C5    H7    S    
C67   H24   S    
C57   C59   A    
C7    C9    A    
C15   C21   A    
C46   O10   S    
C64   O16   S    
Cu1   Cu2   S    
C22   C26   A    
C70   H33   S    
C54   O12   S    
C51   H3    S    
C38   Cl3   S    
