data_mof_unit_44955.cif
_audit_creation_date              2013-03-05T15:47:55-0500
_audit_creation_method            fapswitch 2.2
_symmetry_space_group_name_H-M    P1
_symmetry_Int_Tables_number       1
_space_group_crystal_system       triclinic
_cell_length_a                    11.764834
_cell_length_b                    12.983444
_cell_length_c                    13.373013
_cell_angle_alpha                 92.693198
_cell_angle_beta                  74.40681
_cell_angle_gamma                 98.468083
_cell_volume                      1946.01065144

loop_
_atom_site_label
_atom_site_type_symbol
_atom_site_description
_atom_site_fract_x
_atom_site_fract_y
_atom_site_fract_z
_atom_type_partial_charge
O1    O     O_R   0.419710 0.645650 0.494620 -0.523498
O2    O     O_R   0.611450 0.658430 0.507430 -0.605279
C1    C     C_R   0.520780 0.700009 0.498222 0.818631
O3    O     O_R   0.357340 0.490460 0.641450 -0.488192
O4    O     O_R   0.549080 0.503250 0.654260 -0.584718
C2    C     C_R   0.434198 0.486423 0.696807 0.878537
Cu1   Cu    Cu3+1 0.386470 0.492430 0.492410 1.036986
Cu2   Cu    Cu3+1 0.613530 0.507570 0.507590 0.979048
O5    O     O_R   0.388550 0.341570 0.492570 -0.590412
O6    O     O_R   0.580290 0.354350 0.505380 -0.528865
O7    O     O_R   0.450920 0.496750 0.345740 -0.595994
O8    O     O_R   0.642660 0.509540 0.358550 -0.597757
C3    C     C_R   0.481944 0.299974 0.494088 0.864353
C4    C     C_R   0.564954 0.503883 0.302934 0.746645
C5    C     C_R   0.738313 0.441702 0.031253 -0.146872
H1    H     H_    0.777891 0.456558 0.176200 0.154165
H2    H     H_    0.824721 0.418080 0.997659 0.164950
C6    C     C_R   0.602656 0.495234 0.188284 -0.052458
C7    C     C_R   0.271885 0.465395 0.867576 0.351029
C8    C     C_R   0.237845 0.452877 0.974986 -0.226521
C9    C     C_R   0.320003 0.442306 0.031212 0.134102
C10   C     C_R   0.444122 0.454034 0.977865 0.018698
C11   C     C_R   0.474963 0.443327 0.868104 -0.126261
C12   C     C_R   0.537289 0.465139 0.028750 0.052083
C13   C     C_R   0.652090 0.440965 0.975092 0.069029
C14   C     C_R   0.675829 0.410710 0.869180 -0.030492
C15   C     C_R   0.582442 0.402530 0.819324 0.346295
C16   C     C_R   0.520601 0.503812 0.131101 -0.200877
C17   C     C_R   0.712256 0.465186 0.136444 -0.208857
C18   C     C_R   0.392317 0.463125 0.811458 -0.192080
H3    H     H_    0.444533 0.542218 0.166920 0.152502
H4    H     H_    0.143599 0.445458 0.014395 0.162950
C19   C     C_R   0.477249 0.187875 0.479277 -0.114392
C20   C     C_R   0.531958 0.812924 0.495242 -0.025863
C21   C     C_R   0.602831 0.976619 0.564355 -0.152419
C22   C     C_R   0.592965 0.869569 0.560865 -0.215503
C23   C     C_R   0.483866 0.864437 0.428068 0.155126
C24   C     C_R   0.472677 0.971592 0.447580 0.010473
C25   C     C_R   0.541352 0.027650 0.510575 0.077080
C26   C     C_R   0.547052 0.134723 0.521420 -0.185437
C27   C     C_R   0.402219 0.133824 0.423572 -0.250901
C28   C     C_R   0.397284 0.026203 0.408047 0.325213
H5    H     H_    0.604385 0.176183 0.565114 0.226307
H6    H     H_    0.344911 0.175279 0.393748 0.180426
H7    H     H_    0.653417 0.019227 0.613730 0.157142
H8    H     H_    0.633860 0.830723 0.609311 0.154313
N1    N     N_R   0.215880 0.481050 0.481000 -0.229629
N2    N     N_R   0.784100 0.518950 0.519000 -0.186618
C29   C     C_R   0.928545 0.589413 0.611791 0.021042
C30   C     C_R   0.813310 0.578765 0.596614 0.031529
C31   C     C_R   0.867584 0.462851 0.455094 0.351336
C32   C     C_R   0.978444 0.459208 0.476424 -0.027796
C33   C     C_R   0.016214 0.532204 0.545846 -0.091645
C34   C     C_R   0.140656 0.546615 0.541020 0.530729
C35   C     C_R   0.173065 0.400281 0.427927 0.024115
C36   C     C_R   0.055405 0.388514 0.423649 -0.310226
H9    H     H_    0.231278 0.346190 0.386816 0.147322
H10   H     H_    0.025440 0.324451 0.377907 0.174202
H11   H     H_    0.745844 0.619264 0.647718 0.141903
N3    N     N_R   0.304837 0.974468 0.364515 0.098769
O9    O     O_R   0.233580 0.894715 0.411187 -0.312535
O10   O     O_R   0.279373 0.016775 0.288345 -0.378000
C37   C     C_3   0.466873 0.809883 0.328099 -0.356239
C38   C     C_3   0.584266 0.780868 0.258573 -0.881566
H12   H     H_    0.651050 0.851817 0.238635 0.266852
H13   H     H_    0.621114 0.724676 0.296588 0.245662
H14   H     H_    0.569083 0.744562 0.185545 0.252980
H15   H     H_    0.398977 0.739637 0.345647 0.252189
H16   H     H_    0.437087 0.860245 0.278906 0.244339
N4    N     N_R   0.191390 0.640365 0.582145 0.109570
O11   O     O_R   0.202944 0.727513 0.534245 -0.348530
O12   O     O_R   0.229728 0.639792 0.664587 -0.331315
C39   C     C_3   0.943199 0.650123 0.708187 -0.374551
C40   C     C_3   0.946678 0.767076 0.695792 -0.698621
H17   H     H_    0.015798 0.796748 0.625394 0.308530
H18   H     H_    0.859023 0.784230 0.689784 0.212269
H19   H     H_    0.966676 0.809069 0.764677 0.246708
H20   H     H_    0.866044 0.623305 0.774651 0.179793
H21   H     H_    0.020626 0.634254 0.732801 0.287570
C41   C     C_3   0.799607 0.386778 0.810060 -0.350606
C42   C     C_3   0.813130 0.273034 0.821570 -0.695605
H22   H     H_    0.799870 0.254253 0.904407 0.229744
H23   H     H_    0.747144 0.220264 0.790684 0.270493
H24   H     H_    0.904085 0.258943 0.777591 0.260654
H25   H     H_    0.821641 0.407123 0.727266 0.241147
H26   H     H_    0.870628 0.438667 0.835008 0.216122
C43   C     C_3   0.861051 0.430572 0.346375 -0.373705
C44   C     C_3   0.791795 0.322291 0.338606 -0.754659
H27   H     H_    0.782305 0.274854 0.408141 0.259449
H28   H     H_    0.703014 0.327938 0.327672 0.246849
H29   H     H_    0.840037 0.280298 0.269552 0.214265
H30   H     H_    0.833941 0.494200 0.311864 0.207532
H31   H     H_    0.951490 0.431288 0.292695 0.153801
N5    N     N_R   0.179155 0.468420 0.817204 0.142215
O13   O     O_R   0.097823 0.527960 0.855502 -0.403161
O14   O     O_R   0.156071 0.391972 0.755946 -0.356104
C45   C     C_3   0.267302 0.394526 0.139191 -0.422410
C46   C     C_3   0.308264 0.289284 0.146546 -0.733011
H32   H     H_    0.256362 0.250982 0.220580 0.235951
H33   H     H_    0.293289 0.237590 0.081363 0.270461
H34   H     H_    0.403948 0.298763 0.144846 0.251753
H35   H     H_    0.283113 0.446793 0.202847 0.201059
H36   H     H_    0.168383 0.379467 0.157109 0.192759
N6    N     N_R   0.582037 0.329904 0.734503 0.124137
O15   O     O_R   0.676269 0.325335 0.657828 -0.408738
O16   O     O_R   0.486615 0.264118 0.736430 -0.392967

loop_
_geom_bond_atom_site_label_1
_geom_bond_atom_site_label_2
_geom_bond_distance
_ccdc_geom_bond_type
C43   C44   1.531522 S    
C20   C23   1.419714 A    
C39   C40   1.528568 S    
C4    C6    1.480863 S    
C21   C22   1.377205 A    
C35   C36   1.386437 A    
N6    O16   1.301764 A    
C45   C46   1.530039 S    
Cu1   Cu2   2.710895 S    
C33   C34   1.432566 A    
Cu1   O7    1.903551 S    
C38   H14   1.110668 S    
C14   C15   1.419749 A    
C41   H25   1.102674 S    
C40   H18   1.110589 S    
C30   H11   1.082170 S    
C10   C12   1.424970 A    
C42   H22   1.110070 S    
C24   C28   1.428827 A    
C24   C25   1.423835 A    
O7    C4    1.300638 A    
C5    C13   1.413934 A    
C15   N6    1.441148 S    
N3    O10   1.301600 A    
C27   C28   1.397936 A    
O5    C3    1.298900 A    
C41   H26   1.107380 S    
C42   H23   1.109870 S    
C26   H5    1.077760 S    
C37   H16   1.102253 S    
C40   H19   1.110294 S    
C39   H20   1.112401 S    
C22   H8    1.084129 S    
N4    O11   1.298098 A    
C11   C15   1.423489 A    
C45   H35   1.101566 S    
N2    C30   1.354958 A    
C43   H30   1.090757 S    
O3    Cu1   1.930180 S    
N6    O15   1.298638 A    
C23   C37   1.530338 S    
C5    C17   1.386062 A    
N2    C31   1.387977 A    
C19   C26   1.385830 A    
C40   H17   1.107349 S    
C31   C32   1.415662 A    
C11   C18   1.439854 A    
C6    C16   1.402021 A    
C12   C13   1.421340 A    
O3    C2    1.321317 A    
C28   N3    1.435794 S    
C25   C26   1.384545 A    
C1    C20   1.453954 S    
H1    C17   1.069232 S    
C14   C41   1.527554 S    
N3    O9    1.299353 A    
O1    C1    1.301836 A    
C38   H13   1.106851 S    
C21   C25   1.394626 A    
Cu2   N2    2.036479 S    
C3    C19   1.454538 S    
C23   C24   1.422075 A    
C9    C45   1.531007 S    
C34   N4    1.428245 S    
C44   H29   1.110947 S    
Cu2   O8    1.930180 S    
C39   H21   1.096992 S    
C6    C17   1.391984 A    
C44   H27   1.110953 S    
N5    O14   1.301462 A    
C45   H36   1.112414 S    
C7    N5    1.433769 S    
N1    C34   1.388476 A    
C2    C18   1.509510 S    
O8    C4    1.317175 A    
C46   H32   1.110040 S    
C46   H33   1.110894 S    
C35   H9    1.080491 S    
C27   H6    1.083959 S    
C29   C39   1.515513 S    
C31   C43   1.512843 S    
C21   H7    1.084519 S    
C42   H24   1.110687 S    
C32   C33   1.404510 A    
N1    C35   1.350502 A    
C8    H4    1.084244 S    
Cu1   O5    1.962545 S    
C37   H15   1.108921 S    
O1    Cu1   1.970477 S    
C16   H3    1.075880 S    
O2    Cu2   1.962543 S    
C12   C16   1.408572 A    
C44   H28   1.106083 S    
C41   C42   1.527618 S    
O6    C3    1.305095 A    
O4    Cu2   1.903551 S    
C5    H2    1.078269 S    
C46   H34   1.108414 S    
C19   C27   1.395897 A    
C38   H12   1.110979 S    
C7    C8    1.394110 A    
O2    C1    1.300356 A    
C13   C14   1.416255 A    
O4    C2    1.307472 A    
C29   C33   1.438159 A    
C43   H31   1.111126 S    
C36   H10   1.082615 S    
C20   C22   1.395954 A    
N5    O13   1.301019 A    
C37   C38   1.530951 S    
C8    C9    1.399271 A    
Cu2   O6    1.970478 S    
C29   C30   1.410102 A    
C10   C11   1.419464 A    
N4    O12   1.299271 A    
C9    C10   1.431470 A    
C7    C18   1.417797 A    
C32   C36   1.414459 A    
Cu1   N1    2.036713 S    
