data_mof_unit_13659.cif
_audit_creation_date              2012-10-26T19:09:31-0400
_audit_creation_method            fapswitch 2.2
_symmetry_space_group_name_H-M    P1
_symmetry_Int_Tables_number       1
_space_group_crystal_system       triclinic
_cell_length_a                    10.925494
_cell_length_b                    9.510991
_cell_length_c                    19.331254
_cell_angle_alpha                 90.179788
_cell_angle_beta                  89.802156
_cell_angle_gamma                 89.918263
_cell_volume                      2008.73064354

loop_
_atom_site_label
_atom_site_type_symbol
_atom_type_description
_atom_site_fract_x
_atom_site_fract_y
_atom_site_fract_z
_atom_type_partial_charge
C1    C     C_R   0.262138 0.499959 0.500760 0.565844
C2    C     C_R   0.062201 0.624530 0.511381 0.204921
C3    C     C_R   0.872015 0.499044 0.496116 -0.089828
C4    C     C_R   0.128440 0.499212 0.500485 -0.095214
C5    C     C_R   0.452391 0.074100 0.445680 0.019752
C6    C     C_R   0.549148 0.925913 0.553852 -0.011614
C7    C     C_R   0.547308 0.074691 0.554338 0.002695
C8    C     C_R   0.451596 0.925393 0.445855 0.003382
C9    C     C_R   0.493744 0.627300 0.255211 -0.138094
C10   C     C_R   0.514065 0.373732 0.744662 -0.157371
C11   C     C_R   0.485454 0.625760 0.745197 -0.156054
C12   C     C_R   0.737996 0.499751 0.498381 0.564218
C13   C     C_R   0.492707 0.372553 0.254733 -0.139148
C14   C     C_R   0.493238 0.628480 0.183054 0.226006
C15   C     C_R   0.517707 0.372065 0.817470 0.221834
C16   C     C_R   0.477474 0.625888 0.817407 0.208194
C17   C     C_R   0.486865 0.371850 0.182646 0.217534
C18   C     C_R   0.489994 0.500237 0.146228 0.036003
C19   C     C_R   0.496711 0.499224 0.854012 0.058580
C20   C     C_R   0.495879 0.499819 0.291442 -0.082877
C21   C     C_R   0.500384 0.500048 0.708563 -0.071726
C22   C     C_3   0.140149 0.244529 0.398111 0.038985
C23   C     C_R   0.494826 0.499667 0.930378 0.378636
C24   C     C_3   0.138883 0.091484 0.374453 -0.251784
C25   C     C_3   0.182962 0.076338 0.299786 -0.513278
C26   C     C_3   0.860101 0.766969 0.410111 0.026945
C27   C     C_3   0.974524 0.747467 0.363991 -0.286145
C28   C     C_3   0.949335 0.792268 0.289692 -0.497945
C29   C     C_3   0.878605 0.193913 0.566432 0.022050
C30   C     C_3   0.860373 0.035102 0.566402 -0.223259
C31   C     C_3   0.833763 0.979591 0.639119 -0.499509
C32   C     C_3   0.115786 0.739147 0.609149 0.034670
C33   C     C_3   0.155934 0.878944 0.641223 -0.256151
C34   C     C_R   0.491424 0.500193 0.070396 0.341867
C35   C     C_3   0.285611 0.918006 0.620990 -0.371941
C36   C     C_3   0.607913 0.799703 0.130379 0.012196
C37   C     C_3   0.655943 0.907243 0.182812 -0.271468
C38   C     C_3   0.773731 0.976140 0.157291 -0.469180
C39   C     C_3   0.614598 0.153023 0.824091 0.003707
C40   C     C_3   0.666403 0.056533 0.879957 -0.231736
C41   C     C_3   0.751924 0.945912 0.848830 -0.474235
C42   C     C_3   0.340672 0.802556 0.839337 0.011225
C43   C     C_3   0.312210 0.924811 0.888331 -0.247062
C44   C     C_3   0.182505 0.980190 0.877495 -0.488485
C45   C     C_R   0.498996 0.499860 0.367390 0.534574
C46   C     C_3   0.355424 0.216920 0.132751 -0.002395
C47   C     C_3   0.342012 0.062815 0.111693 -0.235823
C48   C     C_3   0.211447 0.029167 0.089376 -0.482968
C49   C     C_R   0.500377 0.500132 0.632598 0.540083
C50   C     C_R   0.064171 0.373371 0.487837 0.196888
C51   C     C_R   0.937722 0.626691 0.496391 0.216331
C52   C     C_R   0.937515 0.371099 0.495462 0.203128
Cu1   Cu    Cu3+1 0.500000 0.640660 0.500000 0.934405
Cu2   Cu    Cu3+1 0.500000 0.359340 0.500000 0.956181
H1    H     H_    0.493266 0.726722 0.282699 0.136923
H2    H     H_    0.067317 0.301147 0.368623 0.109799
H3    H     H_    0.198240 0.027221 0.408567 0.179472
H4    H     H_    0.043700 0.051696 0.378798 0.184146
H5    H     H_    0.121593 0.135138 0.264442 0.143081
H6    H     H_    0.182843 0.963751 0.284618 0.153673
H7    H     H_    0.277834 0.116715 0.294403 0.136283
H8    H     H_    0.822421 0.874008 0.401391 0.156693
H9    H     H_    0.788216 0.691885 0.393257 0.145365
H10   H     H_    0.052038 0.808949 0.385132 0.191962
H11   H     H_    0.001922 0.634861 0.363203 0.134504
H12   H     H_    0.522147 0.276386 0.715929 0.114870
H13   H     H_    0.872436 0.730146 0.267957 0.148832
H14   H     H_    0.031933 0.773437 0.257349 0.151154
H15   H     H_    0.926107 0.905867 0.287812 0.150277
H16   H     H_    0.802259 0.245264 0.595218 0.134655
H17   H     H_    0.966030 0.216101 0.594245 0.121900
H18   H     H_    0.784231 0.006929 0.531385 0.205440
H19   H     H_    0.944010 0.984413 0.545272 0.233101
H20   H     H_    0.907956 0.008760 0.675443 0.127296
H21   H     H_    0.825677 0.863295 0.637431 0.168496
H22   H     H_    0.746823 0.023890 0.659477 0.114206
H23   H     H_    0.478399 0.724488 0.717876 0.121319
H24   H     H_    0.178378 0.654607 0.627530 0.120126
H25   H     H_    0.021906 0.716876 0.629197 0.101548
H26   H     H_    0.094849 0.964900 0.624557 0.167870
H27   H     H_    0.150025 0.870851 0.698488 0.088772
H28   H     H_    0.349127 0.831167 0.633853 0.154914
H29   H     H_    0.314109 0.013978 0.649536 0.112324
H30   H     H_    0.289332 0.940146 0.564729 0.215866
H31   H     H_    0.601410 0.850988 0.078942 0.168847
H32   H     H_    0.674755 0.711422 0.124307 0.121123
H33   H     H_    0.585975 0.990247 0.191676 0.207673
H34   H     H_    0.492328 0.272946 0.281781 0.138940
H35   H     H_    0.673958 0.854340 0.232893 0.140329
H36   H     H_    0.845779 0.895441 0.148528 0.140261
H37   H     H_    0.806723 0.052315 0.196651 0.151172
H38   H     H_    0.756882 0.033623 0.108287 0.170037
H39   H     H_    0.692996 0.209168 0.799403 0.120062
H40   H     H_    0.566993 0.087218 0.784856 0.129797
H41   H     H_    0.717698 0.120551 0.918321 0.176322
H42   H     H_    0.590549 0.002584 0.907489 0.199342
H43   H     H_    0.701789 0.879107 0.811161 0.175156
H44   H     H_    0.788021 0.877685 0.890586 0.151739
H45   H     H_    0.414264 0.129594 0.402119 0.104722
H46   H     H_    0.830262 0.997213 0.822243 0.130755
H47   H     H_    0.270837 0.718704 0.847782 0.139110
H48   H     H_    0.333973 0.841644 0.785286 0.118258
H49   H     H_    0.322233 0.889611 0.942807 0.192723
H50   H     H_    0.377834 0.011620 0.878826 0.199694
H51   H     H_    0.170721 0.016467 0.823342 0.143642
H52   H     H_    0.165431 0.070407 0.912813 0.152171
H53   H     H_    0.114385 0.896696 0.888818 0.143940
H54   H     H_    0.325608 0.284343 0.088971 0.156226
H55   H     H_    0.294279 0.236888 0.178107 0.114672
H56   H     H_    0.588303 0.870317 0.597140 0.116278
H57   H     H_    0.405767 0.038695 0.068277 0.195255
H58   H     H_    0.365982 0.995378 0.156442 0.202935
H59   H     H_    0.146501 0.048505 0.132722 0.141379
H60   H     H_    0.205454 0.916799 0.073994 0.169977
H61   H     H_    0.185049 0.095046 0.044498 0.144807
H62   H     H_    0.584832 0.130823 0.597983 0.100665
H63   H     H_    0.411663 0.869647 0.402673 0.110454
H64   H     H_    0.229833 0.292709 0.384897 0.144587
N1    N     N_R   0.500000 0.852070 0.500000 -0.226910
N2    N     N_R   0.500000 0.147930 0.500000 -0.213560
N3    N     N_R   0.563080 0.407861 0.035222 -0.204321
N4    N     N_R   0.423014 0.591754 0.965785 -0.212235
N5    N     N_R   0.564951 0.407896 0.966480 -0.191878
N6    N     N_R   0.421483 0.592290 0.034542 -0.213495
O1    O     O_R   0.319640 0.618740 0.500000 -0.461202
O2    O     O_3   0.883971 0.755121 0.482225 -0.546582
O3    O     O_3   0.879460 0.242220 0.497215 -0.517889
O4    O     O_3   0.117091 0.745963 0.535851 -0.515830
O5    O     O_3   0.488484 0.756047 0.149036 -0.579096
O6    O     O_3   0.529495 0.247228 0.854616 -0.563391
O7    O     O_3   0.460039 0.751586 0.852667 -0.567972
O8    O     O_3   0.479457 0.244104 0.148557 -0.567632
O9    O     O_R   0.680360 0.381260 0.500000 -0.458866
O10   O     O_R   0.680360 0.618740 0.500000 -0.471904
O11   O     O_R   0.319640 0.381260 0.500000 -0.464603
O12   O     O_R   0.499980 0.618820 0.400140 -0.521543
O13   O     O_R   0.500020 0.381180 0.599860 -0.517195
O14   O     O_R   0.500020 0.618820 0.599860 -0.522216
O15   O     O_R   0.499980 0.381180 0.400140 -0.515942
O16   O     O_3   0.123009 0.249274 0.470762 -0.519197

loop_
_geom_bond_atom_site_label_1
_geom_bond_atom_site_label_2
_ccdc_geom_bond_type
C49   O13   A    
C14   C18   A    
C19   C23   S    
C28   H15   S    
C43   C44   S    
C21   C49   S    
C44   H51   S    
C15   C19   A    
C26   C27   S    
C29   C30   S    
C36   C37   S    
C28   H14   S    
C1    O1    A    
Cu2   N2    S    
C10   C15   A    
C46   O8    S    
C30   C31   S    
C50   O16   S    
Cu2   O13   S    
C47   H58   S    
C22   O16   S    
C45   O15   A    
C22   H64   S    
C26   O2    S    
C16   O7    S    
C43   H50   S    
C39   H39   S    
C3    C12   S    
C11   H23   S    
C35   H28   S    
C47   C48   S    
C24   H3    S    
C46   H54   S    
C50   C52   A    
C42   O7    S    
C9    H1    S    
C25   H6    S    
C20   C45   S    
C12   O10   A    
C49   O14   A    
C17   O8    S    
C6    H56   S    
Cu1   O12   S    
C40   H42   S    
C42   H48   S    
C52   O3    S    
C8    H63   S    
C23   N4    A    
C10   H12   S    
C10   C21   A    
C5    N2    A    
Cu1   O14   S    
C5    H45   S    
C28   H13   S    
C24   C25   S    
C27   H10   S    
C39   C40   S    
C9    C14   A    
C3    C51   A    
C31   H20   S    
C22   H2    S    
C36   H32   S    
Cu1   Cu2   S    
Cu2   O9    S    
C38   H37   S    
C11   C21   A    
C4    C50   A    
C7    H62   S    
C2    C4    A    
C26   H9    S    
C39   H40   S    
C37   C38   S    
C27   H11   S    
C11   C16   A    
C9    C20   A    
C31   H21   S    
Cu2   O15   S    
C3    C52   A    
C17   C18   A    
C41   H46   S    
C25   H7    S    
C18   C34   S    
Cu1   O1    S    
C48   H61   S    
C40   C41   S    
C34   N3    A    
C12   O9    A    
C29   O3    S    
C41   H43   S    
C42   C43   S    
C40   H41   S    
N4    N6    A    
C42   H47   S    
C6    N1    A    
C48   H60   S    
C29   H16   S    
C44   H53   S    
C30   H19   S    
C23   N5    A    
C46   C47   S    
C45   O12   A    
C34   N6    A    
C13   C20   A    
C51   O2    S    
C7    N2    A    
C37   H33   S    
Cu1   O10   S    
C5    C8    A    
C30   H18   S    
C35   H30   S    
Cu1   N1    S    
C33   H26   S    
C35   H29   S    
C6    C7    A    
C39   O6    S    
C44   H52   S    
C36   H31   S    
C38   H36   S    
C37   H35   S    
C1    C4    S    
C32   C33   S    
C32   O4    S    
C26   H8    S    
C36   O5    S    
C32   H25   S    
C31   H22   S    
C15   O6    S    
C16   C19   A    
C47   H57   S    
Cu2   O11   S    
C13   H34   S    
C33   C35   S    
C38   H38   S    
C22   C24   S    
C43   H49   S    
N3    N5    A    
C2    C51   A    
C32   H24   S    
C13   C17   A    
C24   H4    S    
C46   H55   S    
C27   C28   S    
C41   H44   S    
C25   H5    S    
C1    O11   A    
C33   H27   S    
C8    N1    A    
C48   H59   S    
C29   H17   S    
C14   O5    S    
C2    O4    S    
