data_mof_unit_20655.cif
_audit_creation_date              2012-12-10T16:57:08-0500
_audit_creation_method            fapswitch 2.2
_symmetry_space_group_name_H-M    P1
_symmetry_Int_Tables_number       1
_space_group_crystal_system       triclinic
_cell_length_a                    7.768564
_cell_length_b                    8.566591
_cell_length_c                    16.576677
_cell_angle_alpha                 91.850038
_cell_angle_beta                  80.55707
_cell_angle_gamma                 93.784537
_cell_volume                      1085.59999608

loop_
_atom_site_label
_atom_site_type_symbol
_atom_type_description
_atom_site_fract_x
_atom_site_fract_y
_atom_site_fract_z
_atom_type_partial_charge
C1    C     C_R   0.546235 0.794826 0.497991 0.970039
C2    C     C_R   0.389199 0.514141 0.220525 -0.194447
C3    C     C_R   0.621408 0.731716 0.832317 -0.113265
C4    C     C_R   0.405210 0.543659 0.137880 -0.143604
C5    C     C_R   0.474861 0.704676 0.892496 0.061602
C6    C     C_R   0.571258 0.572937 0.091455 0.111471
C7    C     C_R   0.324553 0.622212 0.873336 -0.196310
C8    C     C_R   0.721578 0.562970 0.126517 -0.174710
C9    C     C_R   0.325374 0.556923 0.795435 -0.190727
C10   C     C_R   0.705911 0.532581 0.209174 -0.203536
C11   C     C_2   0.496092 0.716964 0.978781 0.309459
C12   C     C_R   0.453750 0.205183 0.502151 0.972919
C13   C     C_2   0.587848 0.604869 0.004332 0.320698
C14   C     C_3   0.653515 0.361143 0.950820 0.098720
C15   C     C_3   0.756916 0.278924 0.877602 -0.819511
C16   C     C_3   0.355772 0.949385 0.000412 0.107426
C17   C     C_3   0.286989 0.064475 0.067997 -0.830121
C18   C     C_2   0.570597 0.958323 0.496933 -0.381568
C19   C     C_2   0.429365 0.041684 0.503435 -0.383368
C20   C     C_R   0.479155 0.511994 0.654261 0.845409
C21   C     C_R   0.522937 0.498146 0.345188 0.860591
C22   C     C_R   0.477680 0.572089 0.737219 -0.036335
C23   C     C_R   0.539416 0.511512 0.256946 -0.033446
C24   C     C_R   0.623770 0.663664 0.755215 -0.170849
H1    H     H_    0.823814 0.530132 0.235967 0.159000
H2    H     H_    0.683345 0.310387 0.007537 0.152009
H3    H     H_    0.899267 0.298530 0.878815 0.250183
H4    H     H_    0.721640 0.151245 0.879241 0.191050
H5    H     H_    0.727113 0.325416 0.819967 0.263626
H6    H     H_    0.253040 0.923371 0.961544 0.151927
H7    H     H_    0.474359 0.006393 0.963208 0.125926
H8    H     H_    0.388175 0.094897 0.107054 0.257592
H9    H     H_    0.253718 0.173126 0.040790 0.190787
H10   H     H_    0.167802 0.012062 0.106358 0.263514
H11   H     H_    0.211928 0.598794 0.920269 0.149730
H12   H     H_    0.209911 0.490507 0.781492 0.153708
H13   H     H_    0.850300 0.581677 0.090282 0.156081
H14   H     H_    0.703895 0.009535 0.490759 0.179327
H15   H     H_    0.296064 0.990467 0.509636 0.179669
H16   H     H_    0.288306 0.544439 0.110142 0.144083
H17   H     H_    0.738559 0.793779 0.847289 0.132194
H18   H     H_    0.022806 0.380129 0.439221 0.187370
H19   H     H_    0.977200 0.619900 0.560766 0.184844
H20   H     H_    0.740106 0.682099 0.709809 0.138675
H21   H     H_    0.259685 0.495781 0.255983 0.151120
H22   H     H_    0.511618 0.338795 0.947769 0.133290
N1    N     N_2   0.953500 0.457650 0.478520 -0.173449
N2    N     N_2   0.046500 0.542350 0.521480 -0.171640
O1    O     O_R   0.388470 0.738640 0.505270 -0.608799
O2    O     O_3   0.394796 0.810798 0.035823 -0.631264
O3    O     O_R   0.611530 0.261360 0.494730 -0.607892
O4    O     O_R   0.679650 0.711510 0.491500 -0.630335
O5    O     O_R   0.320350 0.288490 0.508500 -0.626881
O6    O     O_R   0.337210 0.515200 0.623500 -0.612144
O7    O     O_R   0.662790 0.484800 0.376500 -0.619141
O8    O     O_R   0.628380 0.488060 0.609730 -0.623524
O9    O     O_R   0.371620 0.511940 0.390270 -0.623375
O10   O     O_3   0.702996 0.522700 0.947851 -0.631430
Zn1   Zn    Zn3+2 0.305580 0.518120 0.509190 0.941037
Zn2   Zn    Zn3+2 0.694420 0.481880 0.490810 0.936598

loop_
_geom_bond_atom_site_label_1
_geom_bond_atom_site_label_2
_ccdc_geom_bond_type
C9    H12   S    
C2    C4    A    
C21   O9    A    
C13   O10   S    
C10   C23   A    
H19   N2    S    
C15   H3    S    
C12   O5    A    
O1    Zn1   S    
C20   O8    A    
C4    H16   S    
C7    C9    A    
C18   H14   S    
C14   H22   S    
C11   O2    S    
O7    Zn2   S    
C14   H2    S    
C6    C13   S    
C11   C13   D    
C15   H4    S    
C17   H9    S    
C14   O10   S    
C19   H15   S    
C12   C19   S    
C20   O6    A    
C3    C24   A    
C16   O2    S    
C15   H5    S    
C5    C7    A    
H18   N1    S    
C21   C23   S    
C5    C11   S    
O5    Zn1   S    
C24   H20   S    
C1    O4    A    
C22   C24   A    
C9    C22   A    
O9    Zn1   S    
C2    H21   S    
C16   H6    S    
O8    Zn2   S    
C8    H13   S    
C12   O3    A    
C10   H1    S    
N2    Zn1   S    
C4    C6    A    
C18   C19   D    
C17   H10   S    
C2    C23   A    
C21   O7    A    
C17   H8    S    
C1    C18   S    
C14   C15   S    
C3    H17   S    
C6    C8    A    
O3    Zn2   S    
O4    Zn2   S    
C3    C5    A    
N1    Zn2   S    
O6    Zn1   S    
C7    H11   S    
C8    C10   A    
N1    N2    D    
C20   C22   S    
C16   C17   S    
C16   H7    S    
C1    O1    A    
