data_mof_unit_22242.cif
_audit_creation_date              2013-03-05T15:54:35-0500
_audit_creation_method            fapswitch 2.2
_symmetry_space_group_name_H-M    P1
_symmetry_Int_Tables_number       1
_space_group_crystal_system       triclinic
_cell_length_a                    17.374186
_cell_length_b                    24.314265
_cell_length_c                    14.941439
_cell_angle_alpha                 90.081874
_cell_angle_beta                  125.492219
_cell_angle_gamma                 90.025103
_cell_volume                      5139.07747401

loop_
_atom_site_label
_atom_site_type_symbol
_atom_site_description
_atom_site_fract_x
_atom_site_fract_y
_atom_site_fract_z
_atom_type_partial_charge
C1    C     C_R   0.849904 0.652122 0.907018 -0.153101
C2    C     C_R   0.190160 0.626614 0.095205 -0.131194
C3    C     C_R   0.353389 0.152730 0.906345 -0.157183
C4    C     C_R   0.650982 0.151788 0.094039 -0.141939
H1    H     H_    0.816415 0.666480 0.823889 0.102086
H2    H     H_    0.249549 0.628064 0.180113 0.105742
H3    H     H_    0.321285 0.166455 0.823063 0.106063
H4    H     H_    0.685224 0.165660 0.177699 0.098740
N1    N     N_R   0.892620 0.603790 0.941770 -0.040213
N2    N     N_R   0.107380 0.603790 0.058230 -0.040057
N3    N     N_R   0.392620 0.103790 0.941770 -0.036153
N4    N     N_R   0.607380 0.103790 0.058230 -0.039213
C5    C     C_R   0.906222 0.375644 0.095388 -0.143426
C6    C     C_R   0.089425 0.368369 0.906822 -0.074303
C7    C     C_R   0.446045 0.849018 0.093296 -0.107777
C8    C     C_R   0.595486 0.876838 0.905622 -0.144443
H5    H     H_    0.932404 0.374380 0.180631 0.110966
H6    H     H_    0.057463 0.357865 0.823017 0.092734
H7    H     H_    0.496331 0.835062 0.176556 0.088263
H8    H     H_    0.569448 0.875057 0.820495 0.111467
N5    N     N_R   0.952270 0.397640 0.058010 -0.042702
N6    N     N_R   0.047730 0.397640 0.941990 -0.048777
N7    N     N_R   0.452270 0.897640 0.058010 -0.037431
N8    N     N_R   0.547730 0.897640 0.941990 -0.043437
C9    C     C_R   0.051796 0.547808 0.302861 -0.149394
C10   C     C_R   0.999635 0.547785 0.731969 -0.146617
C11   C     C_R   0.479055 0.047345 0.245297 -0.154354
C12   C     C_R   0.451079 0.047134 0.697191 -0.146270
H9    H     H_    0.071483 0.590132 0.328607 0.106532
H10   H     H_    0.998582 0.589939 0.711417 0.099316
H11   H     H_    0.464120 0.089994 0.248743 0.115819
H12   H     H_    0.432176 0.089327 0.670509 0.105593
N9    N     N_R   0.026310 0.529110 0.206760 -0.044662
N10   N     N_R   0.973690 0.529110 0.793240 -0.045721
N11   N     N_R   0.526310 0.029110 0.206760 -0.049018
N12   N     N_R   0.473690 0.029110 0.793240 -0.046085
C13   C     C_R   0.729114 0.455486 0.732843 -0.153532
C14   C     C_R   0.257251 0.454365 0.301162 -0.094923
C15   C     C_R   0.231283 0.954220 0.748670 -0.066528
C16   C     C_R   0.762056 0.955227 0.297694 -0.159130
H13   H     H_    0.704242 0.414499 0.701795 0.093163
H14   H     H_    0.270832 0.412043 0.328203 0.106768
H15   H     H_    0.209136 0.911695 0.731159 0.096447
H16   H     H_    0.777522 0.913473 0.328159 0.095528
N13   N     N_R   0.818570 0.472310 0.793020 -0.040231
N14   N     N_R   0.181430 0.472310 0.206980 -0.040192
N15   N     N_R   0.318570 0.972310 0.793020 -0.038774
N16   N     N_R   0.681430 0.972310 0.206980 -0.036948
C17   C     C_R   0.051862 0.456484 0.306714 -0.122562
C18   C     C_R   0.999486 0.456394 0.727925 -0.066282
C19   C     C_R   0.482922 0.955364 0.252388 -0.091267
C20   C     C_R   0.450159 0.955801 0.694359 -0.116430
H17   H     H_    0.067841 0.414614 0.335637 0.155042
H18   H     H_    0.997511 0.415460 0.699396 0.083652
H19   H     H_    0.474224 0.912985 0.266515 0.130072
H20   H     H_    0.433965 0.913790 0.666193 0.157196
N17   N     N_R   0.026930 0.472300 0.207330 -0.052048
N18   N     N_R   0.973070 0.472300 0.792670 -0.050466
N19   N     N_R   0.526930 0.972300 0.207330 -0.055121
N20   N     N_R   0.473070 0.972300 0.792670 -0.053077
C21   C     C_R   0.730373 0.547666 0.740378 -0.127161
C22   C     C_R   0.257545 0.546049 0.303698 -0.177835
C23   C     C_R   0.230468 0.046529 0.749022 -0.135145
C24   C     C_R   0.763372 0.047350 0.295105 -0.128680
H21   H     H_    0.709236 0.590338 0.724895 0.094484
H22   H     H_    0.272245 0.587997 0.333487 0.103349
H23   H     H_    0.207398 0.088894 0.731850 0.103192
H24   H     H_    0.779373 0.089807 0.321498 0.089538
N21   N     N_R   0.817960 0.529130 0.792460 -0.041955
N22   N     N_R   0.182040 0.529130 0.207540 -0.035231
N23   N     N_R   0.317960 0.029130 0.792460 -0.040332
N24   N     N_R   0.682040 0.029130 0.207540 -0.037762
C25   C     C_R   0.816243 0.369727 0.912146 -0.124673
C26   C     C_R   0.185167 0.371084 0.090449 -0.130205
C27   C     C_R   0.352020 0.848599 0.910611 -0.124581
C28   C     C_R   0.687492 0.874213 0.089554 -0.123077
H25   H     H_    0.762215 0.356762 0.829709 0.087978
H26   H     H_    0.243855 0.365498 0.175216 0.091313
H27   H     H_    0.313131 0.834228 0.826632 0.092538
H28   H     H_    0.745603 0.867408 0.174086 0.092445
N25   N     N_R   0.894850 0.397640 0.943830 -0.042756
N26   N     N_R   0.105150 0.397640 0.056170 -0.043745
N27   N     N_R   0.394850 0.897640 0.943830 -0.040036
N28   N     N_R   0.605150 0.897640 0.056170 -0.044013
C29   C     C_R   0.938954 0.652114 0.090076 -0.122716
C30   C     C_R   0.095232 0.633547 0.912367 -0.107247
C31   C     C_R   0.442563 0.153521 0.088851 -0.132383
C32   C     C_R   0.561069 0.152280 0.910755 -0.123544
H29   H     H_    0.983363 0.666140 0.174367 0.089566
H30   H     H_    0.065338 0.649025 0.831198 0.080942
H31   H     H_    0.488443 0.168225 0.172539 0.081224
H32   H     H_    0.516404 0.166537 0.826767 0.087454
N29   N     N_R   0.950040 0.603780 0.055950 -0.041011
N30   N     N_R   0.049960 0.603780 0.944050 -0.039710
N31   N     N_R   0.450040 0.103780 0.055950 -0.036362
N32   N     N_R   0.549960 0.103780 0.944050 -0.040115
C33   C     C_R   0.876888 0.683535 0.997734 0.075008
C34   C     C_R   0.185477 0.644903 0.004995 0.071351
C35   C     C_R   0.382435 0.184933 0.996221 0.091103
C36   C     C_R   0.623400 0.183482 0.003743 0.072796
C37   C     C_R   0.819688 0.358149 0.005481 0.070579
C38   C     C_R   0.177857 0.353636 0.997239 0.086620
C39   C     C_R   0.383591 0.817134 0.003125 0.076187
C40   C     C_R   0.683626 0.861373 0.996174 0.072071
C41   C     C_R   0.068659 0.503476 0.368077 0.156344
C42   C     C_R   0.024155 0.503389 0.697657 0.164818
C43   C     C_R   0.451295 0.002258 0.275950 0.169221
C44   C     C_R   0.435007 0.002136 0.632283 0.147370
C45   C     C_R   0.674238 0.501827 0.704938 0.051881
C46   C     C_R   0.305036 0.499886 0.361781 0.079252
C47   C     C_R   0.175213 0.000086 0.721528 0.027279
C48   C     C_R   0.814206 0.001493 0.351850 0.046810
Ni1   Ni    Ni4+2 0.934160 0.565860 0.869070 0.212841
Ni2   Ni    Ni4+2 0.065840 0.565860 0.130930 0.218624
Ni3   Ni    Ni4+2 0.434160 0.065860 0.869070 0.214012
Ni4   Ni    Ni4+2 0.565840 0.065860 0.130930 0.207163
Ni5   Ni    Ni4+2 0.067260 0.435560 0.132230 0.233514
Ni6   Ni    Ni4+2 0.932740 0.435560 0.867770 0.213064
Ni7   Ni    Ni4+2 0.567260 0.935560 0.132230 0.211281
Ni8   Ni    Ni4+2 0.432740 0.935560 0.867770 0.237800
C49   C     C_3   0.498562 0.471637 0.627220 -0.101597
C50   C     C_3   0.460096 0.448542 0.511934 -0.145914
C51   C     C_3   0.009690 0.949944 0.588326 -0.164006
C52   C     C_3   0.983862 0.964079 0.473313 -0.131799
C53   C     C_3   0.433856 0.522948 0.574814 -0.096157
C54   C     C_3   0.537032 0.479328 0.511262 -0.165144
C55   C     C_3   0.929444 0.987617 0.568930 -0.140452
C56   C     C_3   0.050721 0.013828 0.519815 -0.109285
H33   H     H_    0.388071 0.540404 0.597142 0.132578
H34   H     H_    0.581268 0.461704 0.486808 0.120321
H35   H     H_    0.876567 0.977000 0.585333 0.116890
H36   H     H_    0.102349 0.024470 0.501377 0.141425
H37   H     H_    0.512063 0.447830 0.698365 0.130696
H38   H     H_    0.437448 0.405407 0.484917 0.117482
H39   H     H_    0.027123 0.908522 0.626446 0.117111
H40   H     H_    0.976168 0.934275 0.412194 0.128075
C57   C     C_3   0.397997 0.499728 0.461755 0.185877
C58   C     C_3   0.574114 0.502394 0.624818 0.153214
C59   C     C_3   0.905700 0.001679 0.455612 0.163587
C60   C     C_3   0.075773 0.999856 0.633997 0.169737
C61   C     C_3   0.474347 0.530426 0.460707 -0.157545
C62   C     C_3   0.512077 0.553642 0.575102 -0.194152
C63   C     C_3   0.971780 0.051536 0.501395 -0.182876
C64   C     C_3   0.997942 0.037616 0.616862 -0.146954
H41   H     H_    0.462467 0.554388 0.390454 0.120822
H42   H     H_    0.535078 0.596685 0.602690 0.120889
H43   H     H_    0.955151 0.093094 0.463906 0.118554
H44   H     H_    0.006508 0.067356 0.678500 0.118986
C65   C     C_R   0.770010 0.308952 0.109147 0.151795
C66   C     C_R   0.227354 0.305072 0.892701 0.324229
C67   C     C_R   0.391989 0.735191 0.106749 0.113566
C68   C     C_R   0.732512 0.810147 0.893072 0.149593
C69   C     C_R   0.747728 0.330491 0.009928 0.032355
C70   C     C_R   0.249463 0.325889 0.992458 0.026100
C71   C     C_R   0.364359 0.759207 0.007051 0.040959
C72   C     C_R   0.755322 0.832773 0.992032 0.029435
C73   C     C_R   0.659318 0.317226 0.912751 -0.189411
C74   C     C_R   0.339777 0.315013 0.088581 -0.189097
C75   C     C_R   0.303187 0.729212 0.909625 -0.193793
C76   C     C_R   0.842717 0.818449 0.089571 -0.181417
H45   H     H_    0.635084 0.336474 0.835314 0.126930
H46   H     H_    0.363615 0.333835 0.166314 0.128745
H47   H     H_    0.285515 0.743507 0.831295 0.127937
H48   H     H_    0.867276 0.837819 0.167099 0.130218
C77   C     C_R   0.251635 0.685263 0.910223 -0.182157
C78   C     C_R   0.891565 0.772396 0.090649 -0.177094
C79   C     C_R   0.608778 0.272244 0.911961 -0.177674
C80   C     C_R   0.394253 0.272948 0.087953 -0.200296
H49   H     H_    0.196591 0.666879 0.832516 0.128095
H50   H     H_    0.951949 0.757898 0.168910 0.133212
H51   H     H_    0.547451 0.258162 0.833851 0.131085
H52   H     H_    0.457472 0.260112 0.165483 0.126934
C81   C     C_R   0.261600 0.672029 0.008090 0.051818
C82   C     C_R   0.853250 0.741436 0.993848 0.028464
C83   C     C_R   0.647022 0.241342 0.008566 0.028335
C84   C     C_R   0.357675 0.242394 0.991115 0.001908
C85   C     C_R   0.340874 0.692036 0.107221 0.136271
C86   C     C_R   0.781242 0.765201 0.894077 0.163689
C87   C     C_R   0.720018 0.264829 0.108451 0.158666
C88   C     C_R   0.281424 0.264185 0.891770 0.188296
C89   C     C_3   0.351692 0.712788 0.208356 -0.478157
C90   C     C_3   0.694269 0.740258 0.795027 -0.525113
C91   C     C_3   0.806733 0.239652 0.207306 -0.521774
C92   C     C_3   0.196547 0.236805 0.793657 -0.535222
C93   C     C_3   0.861452 0.287856 0.207921 -0.492080
C94   C     C_3   0.137567 0.281392 0.795194 -0.537548
C95   C     C_3   0.407560 0.759992 0.207914 -0.439717
C96   C     C_3   0.640675 0.789138 0.794148 -0.486621
H53   H     H_    0.395235 0.684856 0.279729 0.184162
H54   H     H_    0.672633 0.701051 0.812848 0.202107
H55   H     H_    0.827387 0.200097 0.189329 0.205637
H56   H     H_    0.180211 0.195736 0.811500 0.196990
H57   H     H_    0.283929 0.726344 0.193238 0.219744
H58   H     H_    0.697327 0.739120 0.722757 0.193060
H59   H     H_    0.804054 0.239086 0.279861 0.190432
H60   H     H_    0.197477 0.238546 0.719926 0.224196
H61   H     H_    0.912916 0.275484 0.190103 0.203976
H62   H     H_    0.089279 0.265287 0.815211 0.181162
H63   H     H_    0.483194 0.759360 0.279169 0.181288
H64   H     H_    0.588809 0.777397 0.811727 0.203048
H65   H     H_    0.890345 0.314926 0.280908 0.201533
H66   H     H_    0.104003 0.308525 0.721865 0.236821
H67   H     H_    0.371194 0.800080 0.192100 0.250972
H68   H     H_    0.612435 0.815853 0.721013 0.204735
C97   C     C_R   0.057150 0.556543 0.586181 0.132939
C98   C     C_R   0.071890 0.557230 0.506281 0.127829
C99   C     C_R   0.420172 0.054333 0.483776 0.133971
C100  C     C_R   0.423806 0.054731 0.394848 0.138255
C101  C     C_R   0.071139 0.508320 0.643873 -0.151537
C102  C     C_R   0.098696 0.509087 0.480382 -0.170898
C103  C     C_R   0.401612 0.005778 0.517421 -0.160737
C104  C     C_R   0.408491 0.006495 0.335691 -0.155441
C105  C     C_R   0.129771 0.466835 0.646373 0.179228
C106  C     C_R   0.139805 0.465901 0.558303 0.219079
C107  C     C_R   0.360531 0.961202 0.441939 0.210617
C108  C     C_R   0.363646 0.961693 0.348693 0.190419
C109  C     C_3   0.988776 0.594574 0.434894 -0.465528
C110  C     C_3   0.973089 0.593763 0.523719 -0.498232
C111  C     C_3   0.504998 0.094565 0.449053 -0.493429
C112  C     C_3   0.500517 0.094166 0.546724 -0.473624
H69   H     H_    0.929975 0.574741 0.357615 0.199948
H70   H     H_    0.986131 0.634524 0.564065 0.184687
H71   H     H_    0.485273 0.135039 0.406718 0.186585
H72   H     H_    0.564431 0.075856 0.621265 0.198726
N33   N     N_R   0.182212 0.430186 0.739571 0.236237
O1    O     O_R   0.226556 0.387692 0.737600 -0.366588
O2    O     O_R   0.201624 0.445269 0.834251 -0.416559
N34   N     N_R   0.187103 0.421665 0.545303 0.261503
O3    O     O_R   0.252709 0.432440 0.531130 -0.425509
O4    O     O_R   0.154014 0.371815 0.528792 -0.394896
N35   N     N_R   0.313666 0.917743 0.457666 0.254025
O5    O     O_R   0.247769 0.929748 0.470702 -0.414364
O6    O     O_R   0.347692 0.868077 0.479030 -0.373490
N36   N     N_R   0.320322 0.918842 0.267094 0.245050
O7    O     O_R   0.332050 0.867362 0.295311 -0.373514
O8    O     O_R   0.273961 0.931223 0.163355 -0.400019
H73   H     H_    0.010455 0.635707 0.424298 0.184456
H74   H     H_    0.905859 0.573261 0.497935 0.196350
H75   H     H_    0.571599 0.076469 0.467613 0.195937
H76   H     H_    0.477826 0.134286 0.559930 0.185884

loop_
_geom_bond_atom_site_label_1
_geom_bond_atom_site_label_2
_geom_bond_distance
_ccdc_geom_bond_type
N13   Ni6   1.847271 S    
C28   C40   1.392320 A    
C103  C107  1.420284 A    
C32   N32   1.337286 A    
N2    N30   1.389044 A    
C65   C93   1.498491 S    
C73   H45   1.082148 S    
C108  N36   1.438282 S    
C62   H42   1.109958 S    
C52   C59   1.527942 S    
C59   C63   1.529717 S    
C3    N3    1.320718 A    
N18   Ni6   1.861021 S    
C68   C96   1.500046 S    
C21   C45   1.368024 A    
C10   C42   1.364545 A    
C77   H49   1.082232 S    
N34   O4    1.301670 A    
C89   C95   1.505320 S    
C74   C80   1.397543 A    
C51   C52   1.542397 S    
C16   C48   1.373433 A    
C16   H16   1.081496 S    
C97   C98   1.358718 A    
N22   Ni2   1.872103 S    
N10   Ni1   1.858778 S    
C63   H43   1.110049 S    
N21   Ni1   1.869698 S    
N9    Ni2   1.860047 S    
C18   H18   1.074820 S    
N7    N27   1.389045 A    
C13   H13   1.077306 S    
C1    H1    1.079530 S    
N6    N26   1.389044 A    
N17   Ni5   1.859776 S    
C30   N30   1.341441 A    
C70   C74   1.406913 A    
C3    H3    1.079949 S    
C91   C93   1.505477 S    
C88   C92   1.500986 S    
N7    Ni7   1.869255 S    
C85   C89   1.497100 S    
N29   Ni2   1.881573 S    
C6    C38   1.380474 A    
C96   H64   1.112350 S    
C77   C81   1.406836 A    
C63   C64   1.545596 S    
C76   H48   1.081681 S    
C95   H67   1.110393 S    
C65   C87   1.376268 A    
C17   N17   1.339941 A    
C94   H66   1.111848 S    
N11   N19   1.381340 A    
C111  H75   1.112502 S    
C99   C103  1.392856 A    
C65   C69   1.399245 A    
C50   H38   1.109847 S    
N5    Ni5   1.869255 S    
C20   N20   1.340248 A    
C89   H53   1.111990 S    
C10   N10   1.314416 A    
C35   C84   1.451039 S    
C32   H32   1.080656 S    
C106  N34   1.433667 S    
C31   N31   1.339328 A    
C91   H59   1.111849 S    
C28   H28   1.077959 S    
C92   H56   1.112284 S    
N32   Ni3   1.879140 S    
C104  C108  1.416726 A    
C76   C78   1.399784 A    
C14   C46   1.363020 A    
C89   H57   1.112432 S    
C82   C86   1.399580 A    
C66   C88   1.373686 A    
C13   C45   1.375906 A    
N2    Ni2   1.861168 S    
C29   C33   1.387880 A    
C4    H4    1.079480 S    
C52   C56   1.534419 S    
C49   H37   1.110134 S    
C100  C111  1.501284 S    
C7    N7    1.324825 A    
C112  H76   1.111786 S    
C8    N8    1.327648 A    
C27   C39   1.385592 A    
C48   C59   1.438330 S    
C28   N28   1.338967 A    
C97   C101  1.391660 A    
C2    H2    1.074805 S    
N36   O8    1.301441 A    
N16   N24   1.381546 A    
C56   H36   1.111021 S    
C25   N25   1.340698 A    
N34   O3    1.301122 A    
N30   Ni1   1.879140 S    
C8    C40   1.383149 A    
C47   C60   1.439306 S    
C110  H70   1.111943 S    
N16   Ni7   1.844885 S    
C87   C91   1.498540 S    
C25   C37   1.389893 A    
C98   C109  1.504244 S    
C9    H9    1.081538 S    
N19   Ni7   1.859777 S    
C23   H23   1.081307 S    
C97   C110  1.497957 S    
C78   C82   1.407174 A    
C18   C42   1.385640 A    
N8    Ni8   1.871681 S    
C31   H31   1.080678 S    
C22   H22   1.081688 S    
C109  H73   1.111991 S    
C71   C75   1.407217 A    
C99   C100  1.366377 A    
C18   N18   1.345605 A    
C105  C106  1.424348 A    
C68   C72   1.401087 A    
C12   H12   1.081062 S    
C1    N1    1.325301 A    
C109  H69   1.112521 S    
C30   H30   1.073442 S    
C1    C33   1.378117 A    
C111  C112  1.505930 S    
C34   C81   1.454133 S    
C29   H29   1.080710 S    
C52   H40   1.110509 S    
C79   H51   1.081286 S    
C43   C104  1.459822 S    
C19   H19   1.080121 S    
C53   C57   1.528207 S    
C109  C110  1.502063 S    
C92   H60   1.111966 S    
N1    N29   1.389047 A    
N13   N21   1.381579 A    
N25   Ni6   1.856376 S    
C96   H68   1.111980 S    
C19   N19   1.343762 A    
C101  C105  1.418935 A    
C41   C102  1.445367 S    
C75   C77   1.397382 A    
N14   Ni5   1.844885 S    
C51   H39   1.109995 S    
C45   C58   1.428745 S    
N27   Ni8   1.856376 S    
C50   C54   1.536839 S    
C7    H7    1.079567 S    
C107  C108  1.425403 A    
N14   N22   1.381546 A    
C49   C53   1.554138 S    
C21   H21   1.080395 S    
C98   C102  1.394772 A    
C51   C55   1.549038 S    
C29   N29   1.338187 A    
C22   C46   1.365975 A    
C68   C86   1.377462 A    
C11   C43   1.378985 A    
N31   Ni4   1.881573 S    
C8    H8    1.075164 S    
C36   C83   1.455224 S    
N33   O1    1.299588 A    
C99   C112  1.497627 S    
C5    N5    1.325626 A    
N11   Ni4   1.860047 S    
N35   O6    1.300882 A    
C86   C90   1.497091 S    
C40   C72   1.459186 S    
C38   C70   1.453200 S    
N15   N23   1.381579 A    
C49   C50   1.545721 S    
C32   C36   1.388457 A    
C90   H58   1.111808 S    
C10   H10   1.067486 S    
C39   C71   1.456504 S    
N15   Ni8   1.847271 S    
N35   O5    1.301157 A    
C23   N23   1.329163 A    
C78   H50   1.081314 S    
C67   C71   1.401013 A    
C57   C61   1.529796 S    
C93   H65   1.111955 S    
C11   H11   1.077458 S    
C58   C62   1.529822 S    
C107  N35   1.434182 S    
C73   C79   1.398013 A    
C53   C62   1.547978 S    
C4    N4    1.322459 A    
N36   O7    1.299232 A    
C110  H74   1.112533 S    
C37   C69   1.454510 S    
C13   N13   1.329318 A    
C2    N2    1.325713 A    
C24   H24   1.081556 S    
C112  H72   1.112425 S    
C44   C103  1.460845 S    
N3    Ni3   1.859942 S    
C15   N15   1.328206 A    
C26   N26   1.336742 A    
C80   H52   1.081506 S    
C21   N21   1.323228 A    
C80   C84   1.406446 A    
C105  N33   1.447159 S    
N6    Ni6   1.871681 S    
C16   N16   1.330160 A    
C54   C58   1.528405 S    
N9    N17   1.381342 A    
C33   C82   1.458443 S    
C6    H6    1.064449 S    
C46   C57   1.427761 S    
N4    N32   1.389044 A    
C60   C64   1.528666 S    
C50   C57   1.529580 S    
N5    N25   1.389045 A    
N12   N20   1.381306 A    
C49   C58   1.528907 S    
C91   H55   1.112372 S    
C66   C94   1.498439 S    
C83   C87   1.400342 A    
C22   N22   1.328022 A    
C14   H14   1.080988 S    
C72   C76   1.408248 A    
C61   H41   1.110922 S    
C55   C59   1.531182 S    
N24   Ni4   1.872103 S    
C54   C61   1.532614 S    
N26   Ni5   1.855051 S    
C5    H5    1.075848 S    
C26   C38   1.388743 A    
C11   N11   1.323146 A    
C6    N6    1.322418 A    
C4    C36   1.377049 A    
N8    N28   1.389044 A    
N1    Ni1   1.859942 S    
C102  C106  1.416588 A    
C61   C62   1.538086 S    
C23   C47   1.380321 A    
C15   C47   1.378638 A    
C42   C101  1.445158 S    
C27   N27   1.338116 A    
C27   H27   1.080351 S    
C2    C34   1.376759 A    
C12   C44   1.377599 A    
N28   Ni7   1.855051 S    
C17   H17   1.078156 S    
C51   C60   1.530775 S    
C100  C104  1.396865 A    
N33   O2    1.301490 A    
C92   C94   1.501370 S    
N20   Ni8   1.861021 S    
C79   C83   1.406899 A    
C75   H47   1.081130 S    
C55   C64   1.553602 S    
C24   N24   1.325075 A    
C69   C73   1.407169 A    
C30   C34   1.388819 A    
C56   C63   1.536543 S    
C55   H35   1.110008 S    
C9    C41   1.367100 A    
C14   N14   1.325020 A    
C24   C48   1.369719 A    
C67   C85   1.377026 A    
C74   H46   1.081508 S    
C111  H71   1.111916 S    
N23   Ni3   1.869698 S    
C31   C35   1.383849 A    
C3    C35   1.371431 A    
C84   C88   1.399473 A    
N3    N31   1.389047 A    
C12   N12   1.324084 A    
C25   H25   1.074111 S    
C19   C43   1.396414 A    
C53   H33   1.110076 S    
C66   C70   1.399357 A    
C15   H15   1.080555 S    
C95   H63   1.111779 S    
C93   H61   1.112346 S    
N10   N18   1.381306 A    
C54   H34   1.110746 S    
C94   H62   1.112682 S    
C20   C44   1.385112 A    
C90   H54   1.112486 S    
C17   C41   1.384669 A    
C7    C39   1.375606 A    
C81   C85   1.398565 A    
C90   C96   1.505497 S    
N12   Ni3   1.858778 S    
C5    C37   1.377872 A    
C67   C95   1.498000 S    
C20   H20   1.077369 S    
C9    N9    1.313082 A    
C56   C60   1.534596 S    
N4    Ni4   1.861168 S    
C64   H44   1.109976 S    
C26   H26   1.078564 S    
