data_mof_unit_36043.cif
_audit_creation_date              2012-12-10T16:48:51-0500
_audit_creation_method            fapswitch 2.2
_symmetry_space_group_name_H-M    P1
_symmetry_Int_Tables_number       1
_space_group_crystal_system       triclinic
_cell_length_a                    17.116214
_cell_length_b                    8.684061
_cell_length_c                    7.443869
_cell_angle_alpha                 102.978846
_cell_angle_beta                  90.439407
_cell_angle_gamma                 92.919231
_cell_volume                      1076.57069335

loop_
_atom_site_label
_atom_site_type_symbol
_atom_type_description
_atom_site_fract_x
_atom_site_fract_y
_atom_site_fract_z
_atom_type_partial_charge
C1    C     C_R   0.497647 0.199716 0.453593 0.887751
C2    C     C_R   0.777962 0.602370 0.619045 -0.270741
C3    C     C_R   0.140740 0.378693 0.387652 0.448419
C4    C     C_R   0.859197 0.619673 0.614174 0.378566
C5    C     C_R   0.102800 0.451032 0.550199 -0.007330
C6    C     C_R   0.897284 0.549429 0.450957 0.021052
C7    C     C_R   0.146617 0.526754 0.707892 -0.097810
C8    C     C_R   0.853546 0.475865 0.292249 -0.083719
C9    C     C_R   0.227891 0.539616 0.702220 -0.174233
C10   C     C_R   0.772246 0.462792 0.297558 -0.183525
C11   C     C_2   0.018038 0.461348 0.555571 -0.080529
C12   C     C_R   0.502360 0.800284 0.546405 0.887911
C13   C     C_2   0.982056 0.539036 0.445582 -0.057924
C14   C     C_2   0.496508 0.031831 0.427438 -0.355369
C15   C     C_2   0.503509 0.968170 0.572559 -0.359037
C16   C     C_R   0.350715 0.496831 0.524992 0.823459
C17   C     C_R   0.649295 0.503252 0.475037 0.815864
C18   C     C_R   0.265722 0.478571 0.537567 -0.110886
C19   C     C_R   0.734312 0.521720 0.462718 -0.094661
C20   C     C_R   0.222010 0.396097 0.382217 -0.240144
Cu1   Cu    Cu3+1 0.508700 0.517250 0.683000 0.963065
Cu2   Cu    Cu3+1 0.491300 0.482750 0.317000 0.965155
H1    H     H_    0.251400 0.343936 0.256525 0.191330
H2    H     H_    0.510113 0.039728 0.712419 0.180048
H3    H     H_    0.438917 0.378572 0.958090 0.230018
H4    H     H_    0.561085 0.621425 0.041908 0.229037
H5    H     H_    0.841927 0.939894 0.850447 0.345410
H6    H     H_    0.029874 0.313060 0.954893 0.383165
H7    H     H_    0.748586 0.653147 0.745259 0.192986
H8    H     H_    0.739350 0.402177 0.174944 0.166068
H9    H     H_    0.260855 0.601782 0.824041 0.174134
H10   H     H_    0.014433 0.586861 0.343662 0.213519
H11   H     H_    0.985669 0.413396 0.657388 0.178547
H12   H     H_    0.117654 0.581573 0.833205 0.224329
H13   H     H_    0.882588 0.422837 0.166322 0.199841
H14   H     H_    0.489906 0.960273 0.287578 0.180949
N1    N     N_2   0.478180 0.456750 0.041980 -0.216122
N2    N     N_2   0.521820 0.543250 0.958020 -0.216749
O1    O     O_R   0.505650 0.286040 0.618880 -0.583669
O2    O     O_2   0.982532 0.816109 0.759577 -0.244847
O3    O     O_3   0.852019 0.867839 0.933039 -0.491966
O4    O     O_2   0.141597 0.143554 0.083315 -0.259370
O5    O     O_2   0.018254 0.179053 0.248767 -0.247166
O6    O     O_3   0.061391 0.382928 0.056058 -0.562318
O7    O     O_R   0.494350 0.713960 0.381120 -0.582492
O8    O     O_R   0.490960 0.256910 0.309800 -0.585273
O9    O     O_R   0.509040 0.743090 0.690200 -0.585825
O10   O     O_R   0.394600 0.516230 0.672450 -0.588512
O11   O     O_R   0.605400 0.483770 0.327550 -0.589564
O12   O     O_R   0.379910 0.487100 0.363380 -0.580437
O13   O     O_R   0.620090 0.512900 0.636620 -0.582643
O14   O     O_2   0.933220 0.624789 0.933538 -0.284913
S1    S     S_3+6 0.910125 0.732741 0.812631 0.022268
S2    S     S_3+6 0.089318 0.263533 0.191085 0.014881

loop_
_geom_bond_atom_site_label_1
_geom_bond_atom_site_label_2
_ccdc_geom_bond_type
C2    C4    A    
C20   H1    S    
N1    N2    D    
C4    S1    S    
H5    O3    S    
O5    S2    D    
C16   O10   A    
Cu1   O1    S    
C12   C15   S    
C11   H11   S    
C10   C19   A    
Cu2   O12   S    
Cu1   O10   S    
H3    N1    S    
C7    C9    A    
C17   O13   A    
C3    C5    A    
C3    C20   A    
Cu1   Cu2   S    
O4    S2    D    
C6    C13   S    
C11   C13   D    
O3    S1    S    
C12   O9    A    
C8    C10   A    
C15   H2    S    
Cu2   O8    S    
C16   O12   A    
C5    C11   S    
C18   C20   A    
Cu2   O11   S    
C14   H14   S    
C3    S2    S    
C1    O8    A    
C4    C6    A    
C9    H9    S    
O6    S2    S    
C9    C18   A    
Cu1   O13   S    
Cu2   O7    S    
C2    H7    S    
O14   S1    D    
C16   C18   S    
O2    S1    D    
C7    H12   S    
C17   O11   A    
C10   H8    S    
C5    C7    A    
C1    O1    A    
C14   C15   D    
H4    N2    S    
C6    C8    A    
C1    C14   S    
C13   H10   S    
C17   C19   S    
C2    C19   A    
Cu2   N1    S    
H6    O6    S    
Cu1   N2    S    
C12   O7    A    
Cu1   O9    S    
C8    H13   S    
