data_mof_unit_10854.cif
_audit_creation_date              2012-12-10T18:10:50-0500
_audit_creation_method            fapswitch 2.2
_symmetry_space_group_name_H-M    P1
_symmetry_Int_Tables_number       1
_space_group_crystal_system       triclinic
_cell_length_a                    12.691783
_cell_length_b                    12.955612
_cell_length_c                    15.738434
_cell_angle_alpha                 91.664958
_cell_angle_beta                  103.511559
_cell_angle_gamma                 81.517069
_cell_volume                      2488.67543038

loop_
_atom_site_label
_atom_site_type_symbol
_atom_type_description
_atom_site_fract_x
_atom_site_fract_y
_atom_site_fract_z
_atom_type_partial_charge
C1    C     C_R   0.438656 0.691858 0.491785 0.913307
C2    C     C_3   0.379747 0.533322 0.025355 -0.387585
C3    C     C_3   0.497182 0.503481 0.082486 0.237256
C4    C     C_3   0.543029 0.393015 0.055415 -0.409003
C5    C     C_3   0.545067 0.392254 0.957846 -0.374534
C6    C     C_1   0.494163 0.500837 0.173505 -0.085807
C7    C     C_1   0.506026 0.501900 0.826524 -0.060708
C8    C     C_1   0.505804 0.500705 0.751134 -0.080464
C9    C     C_R   0.679416 0.081286 0.660385 -0.028497
C10   C     C_R   0.602417 0.200402 0.538122 -0.090716
C11   C     C_R   0.312741 0.838540 0.414110 -0.242908
C12   C     C_R   0.502138 0.499467 0.661552 0.916525
C13   C     C_R   0.294986 0.942684 0.387225 -0.003419
C14   C     C_R   0.370076 0.008078 0.427993 -0.162369
C15   C     C_R   0.459711 0.971729 0.497336 0.068481
C16   C     C_R   0.462207 0.874101 0.535032 0.087596
C17   C     C_R   0.542944 0.032822 0.533091 0.021296
C18   C     C_R   0.610879 0.008706 0.617852 0.066237
C19   C     C_R   0.601799 0.917659 0.660139 -0.252406
C20   C     C_R   0.528577 0.850494 0.620269 -0.033596
C21   C     C_R   0.558444 0.119969 0.488180 -0.107766
C22   C     C_R   0.666810 0.180021 0.622537 -0.230654
C23   C     C_R   0.561730 0.308285 0.511785 0.939579
C24   C     C_R   0.399017 0.803228 0.484890 -0.071716
C25   C     C_R   0.071903 0.393254 0.346775 -0.122400
C26   C     C_R   0.803712 0.615211 0.615366 -0.030552
C27   C     C_R   0.910015 0.639961 0.644175 -0.104932
C28   C     C_R   0.988888 0.601228 0.597592 -0.188429
C29   C     C_R   0.961626 0.538884 0.523046 -0.003551
C30   C     C_R   0.852504 0.516010 0.497375 0.239043
C31   C     C_R   0.038574 0.494454 0.474160 -0.018557
C32   C     C_R   0.998258 0.449368 0.391572 0.088771
C33   C     C_R   0.884166 0.454892 0.359932 -0.122712
C34   C     C_R   0.498276 0.499445 0.338481 0.904795
C35   C     C_R   0.822336 0.457325 0.421471 -0.159759
C36   C     C_R   0.153022 0.491615 0.503986 -0.022873
C37   C     C_R   0.183916 0.397348 0.377797 -0.010511
C38   C     C_3   0.383124 0.538300 0.927675 -0.171194
C39   C     C_3   0.575382 0.583729 0.968373 -0.199533
C40   C     C_3   0.574425 0.581257 0.067389 -0.226935
C41   C     C_1   0.494400 0.499539 0.248863 -0.126633
C42   C     C_3   0.503274 0.503132 0.917848 0.115756
H1    H     H_    0.341024 0.609732 0.045664 0.231132
H2    H     H_    0.327855 0.474954 0.036268 0.184403
H3    H     H_    0.627431 0.368575 0.095367 0.204535
H4    H     H_    0.705757 0.241888 0.659180 0.201763
H5    H     H_    0.646667 0.900825 0.726770 0.199249
H6    H     H_    0.263536 0.783569 0.376966 0.197323
H7    H     H_    0.357792 0.087744 0.406253 0.215229
H8    H     H_    0.358059 0.621216 0.905734 0.210488
H9    H     H_    0.188715 0.528034 0.564136 0.163338
H10   H     H_    0.741290 0.643778 0.650204 0.165510
H11   H     H_    0.069959 0.622332 0.619210 0.204644
H12   H     H_    0.536678 0.662161 0.940502 0.175934
H13   H     H_    0.658063 0.551136 0.106033 0.166416
H14   H     H_    0.493290 0.335073 0.922795 0.168228
H15   H     H_    0.629142 0.363890 0.950017 0.239949
H16   H     H_    0.491584 0.334875 0.067414 0.190695
N1    N     N_R   0.222200 0.444690 0.455710 -0.147595
N2    N     N_R   0.776960 0.554780 0.543830 -0.131694
O1    O     O_R   0.366740 0.627160 0.478850 -0.597783
O2    O     O_R   0.544830 0.662520 0.507140 -0.623326
O3    O     O_R   0.410920 0.482310 0.608710 -0.600206
O4    O     O_R   0.589010 0.517670 0.637000 -0.634745
O5    O     O_R   0.455170 0.337480 0.492860 -0.585007
O6    O     O_R   0.633260 0.372840 0.521150 -0.599307
O7    O     O_R   0.410990 0.482330 0.363000 -0.589063
O8    O     O_R   0.589080 0.517690 0.391290 -0.653304
Zn1   Zn    Zn3+2 0.381090 0.476390 0.481110 1.010102
Zn2   Zn    Zn3+2 0.618910 0.523610 0.518890 0.967596
C43   C     C_2   0.301071 0.475378 0.872326 0.445368
H17   H     H_    0.304816 0.393098 0.885758 0.074361
O9    O     O_2   0.229280 0.516827 0.812433 -0.528007
C44   C     C_2   0.758410 0.061009 0.746110 0.925265
O10   O     O_2   0.814248 0.975518 0.762386 -0.580590
O11   O     O_R   0.772700 0.141688 0.806855 -0.801830
H18   H     H_    0.829776 0.119017 0.862244 0.362206
C45   C     C_2   0.554212 0.118043 0.392310 0.939390
O12   O     O_2   0.544425 0.037269 0.350886 -0.600712
O13   O     O_R   0.570491 0.206340 0.350674 -0.842499
H19   H     H_    0.569148 0.194356 0.286501 0.342452
C46   C     C_2   0.203804 0.980994 0.312381 0.976424
O14   O     O_2   0.135196 0.925224 0.280003 -0.590822
O15   O     O_R   0.196379 0.080841 0.278082 -0.783332
H20   H     H_    0.132144 0.096785 0.225999 0.363122
C47   C     C_2   0.512539 0.766507 0.676044 0.389683
H21   H     H_    0.580136 0.731703 0.727573 0.106811
O16   O     O_2   0.422433 0.740002 0.668691 -0.568592
C48   C     C_2   0.257972 0.354739 0.322178 1.027958
O17   O     O_2   0.251821 0.397385 0.252465 -0.576312
O18   O     O_R   0.328291 0.262064 0.345202 -0.800994
H22   H     H_    0.363759 0.234915 0.296023 0.357204
C49   C     C_2   0.827208 0.454766 0.266051 0.432331
H23   H     H_    0.746164 0.431853 0.246608 0.026993
O19   O     O_2   0.867286 0.486364 0.210188 -0.517139
C50   C     C_2   0.034983 0.317078 0.277223 0.969199
O20   O     O_2   0.984036 0.249423 0.292498 -0.616699
O21   O     O_R   0.056463 0.323744 0.194545 -0.722578
H24   H     H_    0.025289 0.268738 0.152975 0.348673
C51   C     C_2   0.938758 0.705386 0.722828 0.993581
O22   O     O_2   0.870287 0.736323 0.764595 -0.580021
O23   O     O_R   0.044501 0.731630 0.749747 -0.748957
H25   H     H_    0.053979 0.776219 0.804272 0.372616
C52   C     C_2   0.780578 0.358347 0.425930 0.566198
H26   H     H_    0.718491 0.334904 0.372069 0.070021
O24   O     O_2   0.822329 0.297822 0.486659 -0.532897
C53   C     C_2   0.691633 0.568422 0.955353 0.925211
O25   O     O_2   0.719687 0.632478 0.912748 -0.588648
O26   O     O_R   0.767025 0.482707 0.992692 -0.774270
H27   H     H_    0.841511 0.482104 0.979402 0.375569
C54   C     C_2   0.547087 0.689593 0.102591 0.405010
H28   H     H_    0.599725 0.714611 0.161920 0.100325
O27   O     O_2   0.465768 0.748719 0.066644 -0.543504

loop_
_geom_bond_atom_site_label_1
_geom_bond_atom_site_label_2
_ccdc_geom_bond_type
C5    C42   S    
C49   H23   S    
C16   C24   A    
C5    H14   S    
C19   C20   A    
C3    C6    S    
C1    O2    A    
C52   O24   D    
C7    C8    T    
C10   C22   A    
C39   C53   S    
C26   C27   A    
C44   O11   S    
C30   C35   A    
C23   O6    A    
C28   C29   A    
C38   C42   S    
C31   C36   A    
C12   O4    A    
C47   O16   D    
C9    C22   A    
C39   H12   S    
C15   C16   A    
C11   C24   A    
O2    Zn2   S    
C18   C19   A    
C7    C42   S    
C25   C37   A    
O3    Zn1   S    
C2    H2    S    
C6    C41   T    
C50   O21   S    
C21   C45   S    
C53   O25   D    
O4    Zn2   S    
C40   C54   S    
C1    C24   S    
C16   C20   A    
C36   N1    A    
C25   C32   A    
C49   O19   D    
C13   C14   A    
C53   O26   S    
C11   H6    S    
C34   C41   S    
C52   H26   S    
C39   C42   S    
C4    H3    S    
C10   C21   A    
C27   C51   S    
C44   O10   D    
O11   H18   S    
C35   C52   S    
C34   O8    A    
O18   H22   S    
C43   O9    D    
C12   O3    A    
C45   O12   D    
O13   H19   S    
C13   C46   S    
C17   C21   A    
C20   C47   S    
O7    Zn1   S    
C29   C30   A    
C26   H10   S    
C2    C38   S    
C33   C49   S    
C31   C32   A    
N2    Zn2   S    
C2    H1    S    
C8    C12   S    
C40   H13   S    
C50   O20   D    
C51   O23   S    
C17   C18   A    
C54   O27   D    
O15   H20   S    
C37   N1    A    
C36   H9    S    
N1    Zn1   S    
C22   H4    S    
C3    C40   S    
O21   H24   S    
C46   O15   S    
C48   O18   S    
C9    C44   S    
C3    C4    S    
C39   C40   S    
C30   N2    A    
O1    Zn1   S    
C15   C17   A    
C38   C43   S    
C54   H28   S    
C47   H21   S    
C4    C5    S    
C1    O1    A    
C34   O7    A    
C28   H11   S    
C38   H8    S    
C37   C48   S    
C10   C23   S    
C5    H15   S    
C32   C33   A    
C23   O5    A    
C2    C3    S    
C43   H17   S    
C29   C31   A    
O26   H27   S    
C11   C13   A    
O6    Zn2   S    
O5    Zn1   S    
C51   O22   D    
C33   C35   A    
C45   O13   S    
O23   H25   S    
C14   H7    S    
C9    C18   A    
C25   C50   S    
O8    Zn2   S    
C46   O14   D    
C19   H5    S    
C4    H16   S    
C27   C28   A    
C14   C15   A    
C48   O17   D    
C26   N2    A    
