data_mof_unit_10966.cif
_audit_creation_date              2012-12-11T15:48:55-0500
_audit_creation_method            fapswitch 2.2
_symmetry_space_group_name_H-M    P1
_symmetry_Int_Tables_number       1
_space_group_crystal_system       triclinic
_cell_length_a                    10.995497
_cell_length_b                    11.075077
_cell_length_c                    18.701368
_cell_angle_alpha                 90.804805
_cell_angle_beta                  90.700015
_cell_angle_gamma                 60.056668
_cell_volume                      1973.1615786

loop_
_atom_site_label
_atom_site_type_symbol
_atom_type_description
_atom_site_fract_x
_atom_site_fract_y
_atom_site_fract_z
_atom_type_partial_charge
C1    C     C_R   0.236494 0.647841 0.609324 0.531889
C2    C     C_R   0.615184 0.076918 0.691902 -0.163114
C3    C     C_R   0.585274 0.084935 0.765640 -0.034534
C4    C     C_R   0.628834 0.586388 0.608472 0.556118
C5    C     C_3   0.936593 0.016016 0.778467 -0.253898
C6    C     C_3   0.935577 0.054504 0.701817 -0.272241
C7    C     C_R   0.687892 0.137976 0.664449 -0.000195
C8    C     C_R   0.174622 0.671068 0.833855 0.009645
C9    C     C_R   0.132909 0.594215 0.790966 0.002818
C10   C     C_R   0.139939 0.594066 0.717072 -0.016910
C11   C     C_R   0.205160 0.769121 0.725111 -0.174954
C12   C     C_3   0.765979 0.493314 0.801025 -0.230792
C13   C     C_R   0.211975 0.759343 0.799591 -0.179408
C14   C     C_3   0.185899 0.442534 0.792208 -0.247521
C15   C     C_3   0.192436 0.443550 0.711163 -0.261042
C16   C     C_R   0.631841 0.222813 0.600473 0.537023
C17   C     C_R   0.183780 0.675203 0.682625 0.009199
C18   C     C_R   0.651343 0.659192 0.164617 0.018394
C19   C     C_R   0.745722 0.537202 0.201153 0.031097
C20   C     C_R   0.741641 0.530750 0.274089 0.038426
C21   C     C_R   0.531784 0.754265 0.277692 -0.163327
C22   C     C_R   0.535243 0.761872 0.202641 -0.170873
C23   C     C_3   0.691369 0.652530 0.817604 0.058973
C24   C     C_3   0.903605 0.454004 0.202343 -0.266471
C25   C     C_3   0.897049 0.449862 0.282716 -0.279213
C26   C     C_R   0.643012 0.642427 0.314414 0.018367
C27   C     C_R   0.633843 0.191466 0.167909 0.019687
C28   C     C_R   0.219874 0.649454 0.402490 0.555853
C29   C     C_R   0.515530 0.210974 0.205257 0.020802
C30   C     C_R   0.512249 0.222361 0.278354 0.033735
C31   C     C_R   0.729800 0.224370 0.278150 -0.153679
C32   C     C_R   0.731513 0.216937 0.203653 -0.156928
C33   C     C_3   0.444273 0.125616 0.206878 -0.270284
C34   C     C_3   0.653109 0.610313 0.683748 0.046371
C35   C     C_3   0.440415 0.139748 0.287367 -0.279431
C36   C     C_R   0.625877 0.214094 0.316245 0.022408
C37   C     C_R   0.116829 0.691833 0.188881 0.026087
C38   C     C_R   0.069246 0.811135 0.231746 0.046781
C39   C     C_R   0.081175 0.802966 0.304477 0.015975
C40   C     C_R   0.639129 0.619647 0.390650 0.553953
C41   C     C_R   0.167626 0.555059 0.295150 -0.165408
C42   C     C_R   0.156679 0.564283 0.221025 -0.178263
C43   C     C_3   0.102392 0.926156 0.228053 -0.265265
C44   C     C_3   0.112188 0.920654 0.308558 -0.273028
C45   C     C_3   0.731767 0.692792 0.688539 -0.221019
C46   C     C_R   0.144076 0.672445 0.336500 0.018124
C47   C     C_R   0.720731 0.047447 0.888083 0.548808
C48   C     C_R   0.718286 0.682097 0.891430 0.536126
C49   C     C_R   0.118081 0.706140 0.905980 0.533910
C50   C     C_R   0.672591 0.111864 0.102060 0.559616
C51   C     C_R   0.695102 0.688750 0.096634 0.546922
C52   C     C_R   0.611807 0.238166 0.392381 0.549137
C53   C     C_R   0.088800 0.712667 0.113810 0.548026
C54   C     C_3   0.534261 0.711998 0.802411 -0.248448
C55   C     C_3   0.512538 0.691463 0.722824 -0.237010
C56   C     C_3   0.739923 0.468984 0.722591 -0.236286
C57   C     C_3   0.753071 0.717934 0.767266 -0.231810
C58   C     C_R   0.441823 0.093325 0.781208 0.031130
C59   C     C_R   0.392505 0.072820 0.847529 -0.091019
C60   C     C_R   0.252584 0.110132 0.858512 -0.149511
C61   C     C_R   0.157331 0.160447 0.802639 -0.128957
C62   C     C_R   0.203884 0.162368 0.734674 -0.132670
C63   C     C_R   0.341394 0.131975 0.724214 -0.109961
C64   C     C_R   0.689233 0.094408 0.812690 0.010646
C65   C     C_R   0.787201 0.120739 0.780952 -0.017015
C66   C     C_R   0.782199 0.151674 0.708275 -0.008644
Cr1   Cr    Cr6+3 0.392960 0.397920 0.502240 0.996593
Cr2   Cr    Cr6+3 0.398340 0.708480 0.501250 0.997059
Cr3   Cr    Cr6+3 0.708670 0.393570 0.496460 0.999893
Cr4   Cr    Cr6+3 0.937650 0.938540 0.007610 0.999998
Cr5   Cr    Cr6+3 0.625330 0.937370 0.994520 0.973340
Cr6   Cr    Cr6+3 0.937940 0.625230 0.001190 0.999925
H1    H     H_    0.473595 0.823504 0.815867 0.137289
H2    H     H_    0.226229 0.844914 0.701108 0.148220
H3    H     H_    0.493800 0.657870 0.836089 0.117772
H4    H     H_    0.233100 0.830804 0.830084 0.140601
H5    H     H_    0.104394 0.421525 0.812791 0.156050
H6    H     H_    0.290414 0.384033 0.818634 0.159008
H7    H     H_    0.301383 0.386407 0.690456 0.176629
H8    H     H_    0.114492 0.423397 0.683304 0.128539
H9    H     H_    0.446313 0.837835 0.306835 0.120012
H10   H     H_    0.453953 0.852247 0.175479 0.115251
H11   H     H_    0.953032 0.514259 0.184780 0.177182
H12   H     H_    0.842463 0.401970 0.695909 0.136712
H13   H     H_    0.945123 0.349940 0.176469 0.122279
H14   H     H_    0.936739 0.343334 0.303545 0.130540
H15   H     H_    0.460912 0.627796 0.718013 0.126568
H16   H     H_    0.938571 0.510904 0.310835 0.145212
H17   H     H_    0.811908 0.232740 0.305824 0.128907
H18   H     H_    0.816758 0.215983 0.174973 0.118408
H19   H     H_    0.514432 0.017015 0.188859 0.169660
H20   H     H_    0.338503 0.179503 0.181472 0.127519
H21   H     H_    0.332418 0.203183 0.308684 0.132647
H22   H     H_    0.507250 0.039487 0.315232 0.139944
H23   H     H_    0.866591 0.673265 0.778155 0.129535
H24   H     H_    0.210459 0.453086 0.318727 0.141449
H25   H     H_    0.185356 0.471578 0.189135 0.122198
H26   H     H_    0.013763 0.023975 0.207701 0.142154
H27   H     H_    0.447673 0.795073 0.697710 0.145191
H28   H     H_    0.204620 0.893154 0.201777 0.137292
H29   H     H_    0.219101 0.891639 0.327310 0.163747
H30   H     H_    0.026635 0.014603 0.335100 0.128246
H31   H     H_    0.703575 0.830029 0.778241 0.127023
H32   H     H_    0.670972 0.793988 0.660750 0.126854
H33   H     H_    0.880860 0.444602 0.809759 0.132655
H34   H     H_    0.835693 0.633948 0.661950 0.138312
H35   H     H_    0.727105 0.440975 0.837107 0.126703
H36   H     H_    0.679336 0.413624 0.721056 0.122493
H37   H     H_    0.455580 0.017324 0.891277 0.193011
H38   H     H_    0.218348 0.098622 0.910764 0.104583
H39   H     H_    0.047128 0.201832 0.812209 0.105618
H40   H     H_    0.130436 0.201519 0.690479 0.093791
H41   H     H_    0.359159 0.154473 0.670860 0.116548
H42   H     H_    0.568326 0.039297 0.653121 0.117373
H43   H     H_    0.947826 0.911295 0.784150 0.148516
H44   H     H_    0.000006 0.038851 0.816257 0.156068
H45   H     H_    0.991973 0.111467 0.691955 0.130134
H46   H     H_    0.960994 0.967631 0.663368 0.149974
O1    O     O_R   0.507380 0.255700 0.581440 -0.534347
O2    O     O_R   0.837170 0.593410 0.915250 -0.525325
O3    O     O_R   0.065200 0.635530 0.931570 -0.497629
O4    O     O_R   0.280320 0.527350 0.578930 -0.505726
O5    O     O_R   0.068260 0.828890 0.091840 -0.520900
O6    O     O_R   0.798870 0.057410 0.079340 -0.502280
O7    O     O_R   0.584930 0.080350 0.076780 -0.523667
O8    O     O_R   0.626960 0.809650 0.067060 -0.510902
O9    O     O_R   0.816040 0.596610 0.076510 -0.524623
O10   O     O_R   0.045610 0.638500 0.081060 -0.511097
O11   O     O_3   0.833640 0.833710 0.001100 -0.260655
O12   O     O_R   0.524480 0.695810 0.424040 -0.503559
O13   O     O_R   0.260510 0.739590 0.584590 -0.539871
O14   O     O_R   0.532300 0.695080 0.573820 -0.508101
O15   O     O_R   0.744840 0.503500 0.576370 -0.527340
O16   O     O_R   0.699120 0.276560 0.571960 -0.513259
O17   O     O_R   0.498940 0.256500 0.419860 -0.518830
O18   O     O_R   0.272500 0.528080 0.429150 -0.508668
O19   O     O_R   0.252060 0.740380 0.423010 -0.525003
O20   O     O_R   0.736390 0.504290 0.414790 -0.517007
O21   O     O_R   0.691300 0.277290 0.422170 -0.512527
O22   O     O_3   0.499990 0.499990 0.499980 -0.268956
O23   O     O_R   0.089400 0.825690 0.930570 -0.537577
O24   O     O_R   0.818460 0.054440 0.929850 -0.492601
O25   O     O_R   0.606060 0.077150 0.915510 -0.548045
O26   O     O_R   0.646550 0.806680 0.917570 -0.549648

loop_
_geom_bond_atom_site_label_1
_geom_bond_atom_site_label_2
_ccdc_geom_bond_type
Cr3   O21   S    
C21   C26   A    
C34   C56   S    
C8    C13   A    
C29   C33   S    
Cr6   O3    S    
C27   C29   A    
C11   C13   A    
C41   C42   A    
C2    C7    A    
C43   H26   S    
C43   C44   S    
C16   O16   A    
Cr6   O11   S    
C48   O2    A    
C3    C64   A    
C12   C23   S    
C45   C57   S    
C37   C38   A    
C30   C35   S    
Cr6   O10   S    
C22   H10   S    
C53   O10   A    
C24   H11   S    
C10   C15   S    
C33   H19   S    
C12   H33   S    
C41   H24   S    
C20   C25   S    
C10   C17   A    
C47   O25   A    
C58   C63   A    
C52   O21   A    
C48   O26   A    
C18   C19   A    
C14   H5    S    
C37   C42   A    
Cr2   O14   S    
C1    O4    A    
C56   H36   S    
C59   H37   S    
Cr4   O5    S    
C32   H18   S    
C15   H8    S    
C8    C9    A    
C31   H17   S    
C40   O20   A    
C41   C46   A    
Cr5   O8    S    
C29   C30   A    
C24   H13   S    
C6    H45   S    
C36   C52   S    
C27   C50   S    
C37   C53   S    
Cr3   O22   S    
C59   C60   A    
C18   C22   A    
C21   C22   A    
C5    H43   S    
Cr2   O19   S    
C18   C51   S    
C56   H12   S    
C31   C36   A    
C35   H21   S    
C38   C39   A    
C57   H31   S    
C4    C34   S    
Cr4   O24   S    
Cr6   O9    S    
C50   O6    A    
C43   H28   S    
C4    O14   A    
C53   O5    A    
C42   H25   S    
C47   C64   S    
C50   O7    A    
C44   H30   S    
C58   C59   A    
C25   H16   S    
C49   O23   A    
C60   C61   A    
Cr2   O13   S    
Cr1   O17   S    
C9    C14   S    
C62   C63   A    
C45   H32   S    
Cr5   O11   S    
C54   H1    S    
C31   C32   A    
C47   O24   A    
C13   H4    S    
C49   O3    A    
Cr6   O2    S    
C34   C55   S    
C34   C45   S    
C24   C25   S    
Cr2   O12   S    
Cr1   O22   S    
C12   C56   S    
C39   C46   A    
C5    C65   S    
C7    C16   S    
C21   H9    S    
C5    H44   S    
C57   H23   S    
C33   H20   S    
C61   H39   S    
Cr1   O4    S    
C45   H34   S    
C23   C54   S    
Cr5   O25   S    
C9    C10   A    
C35   H22   S    
Cr3   O20   S    
C23   C57   S    
C40   O12   A    
C54   C55   S    
C11   C17   A    
Cr4   O23   S    
Cr3   O15   S    
C23   C48   S    
C27   C32   A    
C28   O18   A    
C51   O8    A    
C28   O19   A    
C1    O13   A    
C11   H2    S    
C12   H35   S    
C44   H29   S    
C39   C44   S    
C15   H7    S    
C4    O15   A    
C1    C17   S    
C30   C36   A    
C28   C46   S    
C51   O9    A    
C64   C65   A    
C19   C20   A    
C19   C24   S    
C38   C43   S    
Cr3   O16   S    
C7    C66   A    
C2    H42   S    
C26   C40   S    
C5    C6    S    
C20   C26   A    
C60   H38   S    
C25   H14   S    
C33   C35   S    
C2    C3    A    
C14   H6    S    
C55   H15   S    
C61   C62   A    
Cr1   O18   S    
Cr2   O22   S    
C54   H3    S    
C63   H41   S    
C3    C58   S    
Cr4   O6    S    
C6    C66   S    
C62   H40   S    
C65   C66   A    
Cr4   O11   S    
C55   H27   S    
C52   O17   A    
C14   C15   S    
Cr5   O7    S    
Cr1   O1    S    
C8    C49   S    
C6    H46   S    
C16   O1    A    
Cr5   O26   S    
