data_mof_unit_33923.cif
_audit_creation_date              2012-12-10T20:04:01-0500
_audit_creation_method            fapswitch 2.2
_symmetry_space_group_name_H-M    P1
_symmetry_Int_Tables_number       1
_space_group_crystal_system       triclinic
_cell_length_a                    18.972105
_cell_length_b                    18.561736
_cell_length_c                    10.717676
_cell_angle_alpha                 93.974377
_cell_angle_beta                  90.807731
_cell_angle_gamma                 90.351666
_cell_volume                      3764.73886378

loop_
_atom_site_label
_atom_site_type_symbol
_atom_type_description
_atom_site_fract_x
_atom_site_fract_y
_atom_site_fract_z
_atom_type_partial_charge
C1    C     C_R   0.365429 0.499836 0.501717 0.846417
C2    C     C_R   0.965356 0.445503 0.607706 -0.158372
C3    C     C_R   0.547452 0.728734 0.574636 0.469140
C4    C     C_R   0.452407 0.723402 0.427169 0.478817
C5    C     C_R   0.550620 0.805006 0.572662 0.204979
C6    C     C_R   0.449290 0.799924 0.433039 0.195807
C7    C     C_R   0.500122 0.841418 0.503387 -0.174594
C8    C     C_R   0.522664 0.956795 0.398471 -0.159775
C9    C     C_R   0.477725 0.965094 0.608563 -0.159178
C10   C     C_R   0.522679 0.032580 0.397543 0.349743
C11   C     C_R   0.476766 0.040941 0.608362 0.349451
C12   C     C_R   0.634476 0.500391 0.501373 0.955090
C13   C     C_R   0.499485 0.075862 0.502655 -0.022877
C14   C     C_R   0.499040 0.497183 0.262772 0.840772
C15   C     C_R   0.499716 0.503069 0.737327 0.834927
C16   C     C_R   0.500465 0.922301 0.503791 0.142501
C17   C     C_R   0.563092 0.196798 0.513305 0.358554
C18   C     C_R   0.436237 0.195400 0.489775 0.361303
C19   C     C_R   0.562075 0.273236 0.513144 0.430113
C20   C     C_R   0.437782 0.271723 0.487289 0.436651
C21   C     C_R   0.499543 0.156976 0.502266 -0.157615
C22   C     C_2   0.556645 0.497783 0.934931 0.257577
C23   C     C_R   0.709230 0.502668 0.525609 -0.128912
C24   C     C_2   0.555898 0.509147 0.070014 0.276422
C25   C     C_2   0.498623 0.514389 0.870245 0.311862
C26   C     C_2   0.498719 0.487627 0.130037 0.299703
C27   C     C_R   0.755330 0.466163 0.443710 -0.228969
C28   C     C_R   0.265727 0.459403 0.622184 -0.256410
C29   C     C_R   0.827681 0.470172 0.468105 0.535412
C30   C     C_R   0.196087 0.466279 0.660073 0.538516
C31   C     C_R   0.852738 0.506906 0.580106 0.019221
C32   C     C_R   0.150467 0.511162 0.596236 0.041720
C33   C     C_R   0.805516 0.541009 0.663656 -0.119634
C34   C     C_R   0.290957 0.500367 0.527205 -0.122597
C35   C     C_R   0.175868 0.550310 0.498482 -0.148032
C36   C     C_R   0.734183 0.540639 0.634648 -0.097163
C37   C     C_R   0.246321 0.546378 0.466289 -0.188936
C38   C     C_3   0.638354 0.129022 0.628001 -0.167044
C39   C     C_3   0.360895 0.116959 0.376341 -0.167106
C40   C     C_3   0.648004 0.318564 0.646515 -0.104739
C41   C     C_3   0.356090 0.306541 0.347807 -0.185902
C42   C     C_3   0.381864 0.554018 0.866752 -0.306317
C43   C     C_3   0.380901 0.453132 0.114856 -0.281890
C44   C     C_3   0.890047 0.484164 0.292908 -0.215390
C45   C     C_R   0.964345 0.577092 0.626801 0.327178
C46   C     C_3   0.180369 0.468315 0.869153 -0.277800
C47   C     C_3   0.573183 0.698459 0.772189 -0.135990
C48   C     C_3   0.422806 0.683775 0.226916 -0.149614
C49   C     C_R   0.038011 0.577707 0.636814 0.322177
C50   C     C_R   0.074878 0.512126 0.621075 -0.055278
C51   C     C_R   0.928263 0.510369 0.608735 -0.056316
C52   C     C_R   0.038180 0.446343 0.611226 -0.163077
Cl1   Cl    Cl    0.634036 0.463051 0.864420 -0.668532
Cl2   Cl    Cl    0.629981 0.551234 0.147547 -0.584296
Cl3   Cl    Cl    0.619440 0.854034 0.652848 -0.516473
Cl4   Cl    Cl    0.379441 0.843420 0.358410 -0.545802
Cl5   Cl    Cl    0.550446 0.071696 0.261374 -0.515622
Cl6   Cl    Cl    0.448479 0.090938 0.743803 -0.523471
Cl7   Cl    Cl    0.919077 0.660028 0.624210 -0.474753
Cl8   Cl    Cl    0.083867 0.660531 0.666667 -0.494742
H1    H     H_    0.540092 0.924585 0.316662 0.202841
H2    H     H_    0.937878 0.394065 0.595986 0.198117
H3    H     H_    0.607161 0.153259 0.707647 0.149572
H4    H     H_    0.694836 0.134514 0.655353 0.195051
H5    H     H_    0.626823 0.070353 0.613881 0.199826
H6    H     H_    0.393392 0.133309 0.296894 0.149855
H7    H     H_    0.304791 0.120581 0.347066 0.193557
H8    H     H_    0.370983 0.059596 0.393070 0.199963
H9    H     H_    0.604163 0.333537 0.711218 0.176553
H10   H     H_    0.687801 0.362694 0.655834 0.205659
H11   H     H_    0.674436 0.269297 0.675573 0.155985
H12   H     H_    0.460376 0.939362 0.690568 0.202945
H13   H     H_    0.401321 0.320796 0.288785 0.154621
H14   H     H_    0.314273 0.347198 0.336630 0.166530
H15   H     H_    0.333684 0.253502 0.313282 0.164734
H16   H     H_    0.366321 0.496677 0.843776 0.157516
H17   H     H_    0.381358 0.584686 0.781415 0.193591
H18   H     H_    0.341549 0.578539 0.930139 0.182521
H19   H     H_    0.366884 0.511284 0.119439 0.155989
H20   H     H_    0.375305 0.432345 0.208563 0.142144
H21   H     H_    0.342416 0.423661 0.050968 0.192482
H22   H     H_    0.915976 0.534188 0.335312 0.173126
H23   H     H_    0.735482 0.436500 0.359705 0.199137
H24   H     H_    0.842318 0.497925 0.238055 0.191334
H25   H     H_    0.927785 0.457443 0.226815 0.196758
H26   H     H_    0.149551 0.519178 0.869015 0.184676
H27   H     H_    0.236910 0.480568 0.890396 0.134930
H28   H     H_    0.160003 0.436937 0.945498 0.202061
H29   H     H_    0.515321 0.690184 0.782048 0.143868
H30   H     H_    0.588935 0.751448 0.818805 0.202863
H31   H     H_    0.600153 0.656072 0.822797 0.191552
H32   H     H_    0.480724 0.680080 0.211502 0.161794
H33   H     H_    0.402021 0.732825 0.186335 0.204561
H34   H     H_    0.300694 0.424241 0.670337 0.191573
H35   H     H_    0.397789 0.636728 0.174029 0.170603
H36   H     H_    0.824033 0.568458 0.750575 0.202517
H37   H     H_    0.140890 0.583427 0.446270 0.192239
H38   H     H_    0.698149 0.568509 0.698669 0.204023
H39   H     H_    0.265802 0.578233 0.392919 0.186098
H40   H     H_    0.065870 0.395544 0.598710 0.204028
N1    N     N_R   0.500000 0.689440 0.500000 -0.206624
N2    N     N_R   0.500000 0.310560 0.500000 -0.222104
O1    O     O_R   0.398180 0.560840 0.499970 -0.575442
O2    O     O_3   0.371207 0.160677 0.488657 -0.532450
O3    O     O_3   0.625602 0.309710 0.520181 -0.546208
O4    O     O_3   0.374643 0.306999 0.475859 -0.536338
O5    O     O_3   0.448249 0.559814 0.928391 -0.643447
O6    O     O_3   0.449440 0.441045 0.067931 -0.596029
O7    O     O_3   0.873528 0.436062 0.384543 -0.612396
O8    O     O_3   0.172141 0.426300 0.755153 -0.601823
O9    O     O_3   0.594882 0.692657 0.646339 -0.548235
O10   O     O_3   0.404596 0.682071 0.354206 -0.559104
O11   O     O_R   0.601820 0.560840 0.500030 -0.548497
O12   O     O_R   0.398180 0.439210 0.499910 -0.568892
O13   O     O_R   0.601820 0.439210 0.500090 -0.558011
O14   O     O_R   0.500000 0.560800 0.319070 -0.595271
O15   O     O_R   0.500000 0.560800 0.680930 -0.623691
O16   O     O_R   0.499990 0.439170 0.319010 -0.604624
O17   O     O_R   0.500010 0.439170 0.680990 -0.603910
O18   O     O_3   0.627862 0.162452 0.514553 -0.533114
Zn1   Zn    Zn3+2 0.500000 0.581210 0.500000 1.038099
Zn2   Zn    Zn3+2 0.500000 0.418790 0.500000 1.029482

loop_
_geom_bond_atom_site_label_1
_geom_bond_atom_site_label_2
_ccdc_geom_bond_type
C40   H11   S    
C27   C29   A    
C18   C21   A    
C39   H8    S    
C9    H12   S    
C39   O2    S    
C6    Cl4   S    
C12   C23   S    
C49   Cl8   S    
C40   H10   S    
C30   O8    S    
C29   O7    S    
C35   C37   A    
C9    C16   A    
C24   C26   D    
C38   H3    S    
C44   H22   S    
C19   N2    A    
C14   O14   A    
C15   C25   S    
C20   N2    A    
C45   C51   A    
C43   H19   S    
C34   C37   A    
C33   C36   A    
C28   H34   S    
O16   Zn2   S    
O15   Zn1   S    
C17   O18   S    
C41   H14   S    
C3    O9    S    
C14   O16   A    
C22   C25   D    
C50   C52   A    
C31   C33   A    
C23   C27   A    
C11   Cl6   S    
C42   O5    S    
C1    O1    A    
C46   H28   S    
C8    H1    S    
C12   O13   A    
C38   O18   S    
C44   O7    S    
C3    N1    A    
C4    O10   S    
C28   C34   A    
C8    C16   A    
O13   Zn2   S    
C47   H29   S    
C47   H31   S    
C1    C34   S    
C22   Cl1   S    
C20   O4    S    
C41   O4    S    
C32   C35   A    
C10   Cl5   S    
C4    C6    A    
C40   H9    S    
C48   H35   S    
C26   O6    S    
C5    C7    A    
C3    C5    A    
C43   H20   S    
C52   H40   S    
C17   C21   A    
C15   O15   A    
C41   H15   S    
C38   H5    S    
C45   C49   A    
C4    N1    A    
C13   C21   S    
C18   O2    S    
C14   C26   S    
C9    C11   A    
C32   C50   S    
C47   H30   S    
C2    C52   A    
C19   O3    S    
C7    C16   S    
C48   O10   S    
C42   H18   S    
C46   O8    S    
C43   H21   S    
C39   H6    S    
C22   C24   S    
C1    O12   A    
C44   H25   S    
O1    Zn1   S    
C33   H36   S    
C37   H39   S    
C25   O5    S    
C46   H27   S    
O17   Zn2   S    
C45   Cl7   S    
C39   H7    S    
C5    Cl3   S    
C31   C51   S    
C44   H24   S    
C10   C13   A    
C6    C7    A    
C23   C36   A    
C42   H16   S    
C27   H23   S    
C29   C31   A    
N2    Zn2   S    
C30   C32   A    
C11   C13   A    
C47   O9    S    
C28   C30   A    
C17   C19   A    
C15   O17   A    
C12   O11   A    
C18   C20   A    
C43   O6    S    
N1    Zn1   S    
C48   H33   S    
C2    C51   A    
C41   H13   S    
O12   Zn2   S    
O11   Zn1   S    
C42   H17   S    
C8    C10   A    
C49   C50   A    
C48   H32   S    
C38   H4    S    
C36   H38   S    
O14   Zn1   S    
C35   H37   S    
C24   Cl2   S    
C2    H2    S    
C40   O3    S    
C46   H26   S    
