data_mof_unit_8701.cif
_audit_creation_date              2012-12-11T15:23:52-0500
_audit_creation_method            fapswitch 2.2
_symmetry_space_group_name_H-M    P1
_symmetry_Int_Tables_number       1
_space_group_crystal_system       triclinic
_cell_length_a                    17.281703
_cell_length_b                    24.375244
_cell_length_c                    15.007632
_cell_angle_alpha                 89.716844
_cell_angle_beta                  125.086805
_cell_angle_gamma                 90.682547
_cell_volume                      5172.71733378

loop_
_atom_site_label
_atom_site_type_symbol
_atom_type_description
_atom_site_fract_x
_atom_site_fract_y
_atom_site_fract_z
_atom_type_partial_charge
C1    C     C_R   0.353621 0.347199 0.908405 -0.194774
C2    C     C_R   0.426171 0.502605 0.631546 0.047585
C3    C     C_3   0.419718 0.316343 0.727363 -0.955450
C4    C     C_3   0.969935 0.832242 0.201430 -0.379462
C5    C     C_3   0.076625 0.823138 0.276664 -0.957478
C6    C     C_3   0.024043 0.833577 0.795520 -0.382292
C7    C     C_3   0.919719 0.816342 0.727364 -0.955447
C8    C     C_R   0.013806 0.001971 0.335246 0.037986
C9    C     C_R   0.926169 0.002604 0.631545 0.047587
C10   C     C_R   0.175408 0.497132 0.719494 0.135071
C11   C     C_R   0.810364 0.498737 0.353674 0.139575
C12   C     C_R   0.675408 0.997132 0.719495 0.135070
C13   C     C_R   0.310365 0.998737 0.353673 0.139575
C14   C     C_2   0.923926 0.456366 0.529078 -0.114136
C15   C     C_2   0.021494 0.452434 0.624872 -0.109936
C16   C     C_2   0.423926 0.956366 0.529077 -0.114136
C17   C     C_R   0.645356 0.347906 0.091374 -0.182652
C18   C     C_2   0.521494 0.952434 0.624872 -0.109937
C19   C     C_2   0.897044 0.499385 0.461562 -0.195149
C20   C     C_2   0.074661 0.497638 0.669876 -0.192924
C21   C     C_2   0.397044 0.999385 0.461561 -0.195150
C22   C     C_2   0.574661 0.997638 0.669876 -0.192923
C23   C     C_R   0.162680 0.682452 0.921637 -0.200311
C24   C     C_R   0.848878 0.675143 0.079798 -0.190893
C25   C     C_R   0.662681 0.182454 0.921635 -0.200323
C26   C     C_R   0.348877 0.175143 0.079798 -0.190893
C27   C     C_R   0.606659 0.222754 0.920910 -0.190413
C28   C     C_R   0.853621 0.847199 0.908405 -0.194772
C29   C     C_R   0.399153 0.219585 0.078102 -0.189971
C30   C     C_R   0.106660 0.722753 0.920911 -0.190414
C31   C     C_R   0.899153 0.719585 0.078101 -0.189970
C32   C     C_R   0.644938 0.257198 0.011587 0.114475
C33   C     C_R   0.354465 0.254801 0.987676 0.111840
C34   C     C_R   0.144942 0.757198 0.011588 0.114471
C35   C     C_R   0.854465 0.754801 0.987675 0.111840
C36   C     C_R   0.720565 0.237847 0.112239 -0.206712
C37   C     C_R   0.279477 0.233037 0.887730 -0.200048
C38   C     C_R   0.220569 0.737849 0.112240 -0.206698
C39   C     C_R   0.145357 0.847906 0.091374 -0.182653
C40   C     C_R   0.779476 0.733037 0.887730 -0.200045
C41   C     C_R   0.273746 0.694108 0.116976 0.193107
C42   C     C_R   0.738223 0.682593 0.884573 0.194426
C43   C     C_R   0.773746 0.194110 0.116973 0.193107
C44   C     C_R   0.238222 0.182594 0.884572 0.194415
C45   C     C_R   0.411867 0.631597 0.094600 -0.145620
C46   C     C_R   0.596187 0.624080 0.906188 -0.145094
C47   C     C_R   0.911869 0.131599 0.094599 -0.145616
C48   C     C_R   0.096187 0.124080 0.906188 -0.145092
C49   C     C_R   0.252375 0.673128 0.016895 0.038077
C50   C     C_R   0.323501 0.646312 0.008353 0.060035
C51   C     C_R   0.761109 0.661095 0.985012 0.023994
C52   C     C_R   0.752377 0.173131 0.016893 0.038093
C53   C     C_R   0.261108 0.161095 0.985012 0.023995
C54   C     C_R   0.422510 0.553874 0.489898 -0.164242
C55   C     C_R   0.459745 0.552894 0.430184 -0.185709
C56   C     C_R   0.922487 0.053872 0.489882 -0.164244
C57   C     C_R   0.959714 0.052894 0.430159 -0.185721
C58   C     C_R   0.473831 0.502683 0.397133 0.154993
C59   C     C_R   0.406184 0.504260 0.523938 0.139202
C60   C     C_R   0.973809 0.002683 0.397116 0.154994
C61   C     C_R   0.687844 0.634884 0.993473 0.049059
C62   C     C_R   0.906174 0.004258 0.523934 0.139201
C63   C     C_R   0.439366 0.454004 0.412925 -0.171658
C64   C     C_R   0.404271 0.454873 0.475369 -0.172607
C65   C     C_R   0.939354 0.954003 0.412917 -0.171657
C66   C     C_R   0.904265 0.954871 0.475368 -0.172605
C67   C     C_R   0.526785 0.456035 0.292533 -0.162844
C68   C     C_R   0.441924 0.456418 0.692370 -0.153438
C69   C     C_R   0.026775 0.956035 0.292527 -0.162841
C70   C     C_R   0.941924 0.956417 0.692370 -0.153442
C71   C     C_R   0.230126 0.543558 0.741197 -0.147357
C72   C     C_R   0.823503 0.146315 0.008351 0.060041
C73   C     C_R   0.759984 0.544815 0.297147 -0.164597
C74   C     C_R   0.730126 0.043558 0.741198 -0.147355
C75   C     C_R   0.259984 0.044815 0.297146 -0.164598
C76   C     C_R   0.521168 0.546610 0.285276 -0.129189
C77   C     C_R   0.448295 0.546685 0.698133 -0.136390
C78   C     C_R   0.021156 0.046610 0.285268 -0.129187
C79   C     C_R   0.948295 0.046684 0.698132 -0.136388
C80   C     C_R   0.233034 0.452013 0.750250 -0.119460
C81   C     C_R   0.758635 0.453044 0.294483 -0.117671
C82   C     C_R   0.733034 0.952013 0.750250 -0.119460
C83   C     C_R   0.187844 0.134884 0.993473 0.049061
C84   C     C_R   0.258635 0.953044 0.294482 -0.117673
C85   C     C_R   0.316920 0.632054 0.913632 -0.119557
C86   C     C_R   0.691837 0.622355 0.087933 -0.110981
C87   C     C_R   0.816921 0.132056 0.913632 -0.119565
C88   C     C_R   0.191837 0.122356 0.087933 -0.110983
C89   C     C_R   0.438742 0.346368 0.088078 0.259233
C90   C     C_R   0.559255 0.347019 0.910624 0.252926
C91   C     C_R   0.938742 0.846368 0.088078 0.259234
C92   C     C_R   0.059256 0.847019 0.910624 0.252928
C93   C     C_R   0.381050 0.313661 0.995823 -0.017924
C94   C     C_R   0.513825 0.501971 0.335260 0.037986
C95   C     C_R   0.616521 0.314682 0.002990 -0.010896
C96   C     C_R   0.881050 0.813661 0.995822 -0.017926
C97   C     C_R   0.116523 0.814682 0.002990 -0.010897
C98   C     C_3   0.389749 0.703326 0.318314 -0.981750
C99   C     C_3   0.661023 0.672717 0.684555 -0.962005
C100  C     C_3   0.889777 0.203337 0.318302 -0.981791
C101  C     C_3   0.161006 0.172724 0.684546 -0.961967
C102  C     C_3   0.469937 0.332243 0.201431 -0.379463
C103  C     C_3   0.576626 0.323136 0.276663 -0.957480
C104  C     C_3   0.524043 0.333577 0.795520 -0.382288
H1    H     H_    0.316493 0.334627 0.824597 0.111748
H2    H     H_    0.875711 0.654403 0.156092 0.124274
H3    H     H_    0.638059 0.161210 0.846430 0.123766
H4    H     H_    0.375711 0.154403 0.156092 0.124274
H5    H     H_    0.537785 0.228888 0.847166 0.146621
H6    H     H_    0.468564 0.228184 0.150196 0.143174
H7    H     H_    0.037786 0.728888 0.847167 0.146620
H8    H     H_    0.968566 0.728184 0.150194 0.143173
H9    H     H_    0.741174 0.258085 0.186457 0.132712
H10   H     H_    0.251745 0.255512 0.813421 0.128244
H11   H     H_    0.241180 0.758089 0.186455 0.132708
H12   H     H_    0.682420 0.336071 0.175589 0.111491
H13   H     H_    0.751744 0.755512 0.813421 0.128241
H14   H     H_    0.419244 0.593130 0.520688 0.115807
H15   H     H_    0.481578 0.591377 0.415303 0.113927
H16   H     H_    0.919216 0.093128 0.520668 0.115805
H17   H     H_    0.981535 0.091378 0.415267 0.113939
H18   H     H_    0.442824 0.415035 0.381237 0.108695
H19   H     H_    0.385984 0.416167 0.494617 0.110774
H20   H     H_    0.942818 0.915034 0.381234 0.108693
H21   H     H_    0.885987 0.916164 0.494623 0.110774
H22   H     H_    0.449156 0.643153 0.178109 0.123655
H23   H     H_    0.816492 0.834627 0.824597 0.111748
H24   H     H_    0.563635 0.630892 0.821114 0.119056
H25   H     H_    0.949159 0.143157 0.178108 0.123669
H26   H     H_    0.063635 0.130891 0.821114 0.119060
H27   H     H_    0.550286 0.417766 0.334742 0.130558
H28   H     H_    0.413575 0.416877 0.657355 0.121322
H29   H     H_    0.050274 0.917767 0.334737 0.130559
H30   H     H_    0.913572 0.916877 0.657356 0.121322
H31   H     H_    0.203934 0.584458 0.715589 0.087341
H32   H     H_    0.774801 0.586480 0.327668 0.096068
H33   H     H_    0.703934 0.084458 0.715591 0.087341
H34   H     H_    0.182420 0.836071 0.175589 0.111491
H35   H     H_    0.274802 0.086480 0.327668 0.096068
H36   H     H_    0.529235 0.588884 0.309464 0.087807
H37   H     H_    0.431809 0.589130 0.674265 0.089041
H38   H     H_    0.029222 0.088883 0.309456 0.087806
H39   H     H_    0.931809 0.089130 0.674263 0.089041
H40   H     H_    0.213338 0.409322 0.743846 0.092856
H41   H     H_    0.772190 0.410604 0.319751 0.084989
H42   H     H_    0.713338 0.909322 0.743846 0.092856
H43   H     H_    0.272190 0.910604 0.319750 0.084989
H44   H     H_    0.262988 0.645521 0.832719 0.086072
H45   H     H_    0.941745 0.535322 0.481360 0.129549
H46   H     H_    0.752615 0.626842 0.171021 0.093449
H47   H     H_    0.762990 0.145523 0.832718 0.086072
H48   H     H_    0.252615 0.126842 0.171021 0.093449
H49   H     H_    0.879026 0.420184 0.505927 0.119908
H50   H     H_    0.052736 0.412013 0.644323 0.118394
H51   H     H_    0.379026 0.920184 0.505926 0.119908
H52   H     H_    0.552736 0.912013 0.644323 0.118394
H53   H     H_    0.338265 0.629738 0.227455 0.171883
H54   H     H_    0.456693 0.683995 0.383808 0.250186
H55   H     H_    0.341828 0.705436 0.345088 0.255040
H56   H     H_    0.042478 0.537619 0.655701 0.128656
H57   H     H_    0.407617 0.745230 0.305480 0.262321
H58   H     H_    0.679893 0.611339 0.792747 0.172758
H59   H     H_    0.612669 0.643941 0.617186 0.251574
H60   H     H_    0.729373 0.674637 0.693335 0.258270
H61   H     H_    0.627006 0.713544 0.662295 0.253984
H62   H     H_    0.838254 0.129744 0.227465 0.171883
H63   H     H_    0.956730 0.184008 0.383783 0.250192
H64   H     H_    0.841880 0.205453 0.345107 0.255043
H65   H     H_    0.907632 0.245238 0.305441 0.262336
H66   H     H_    0.179896 0.111341 0.792744 0.172752
H67   H     H_    0.441746 0.035322 0.481359 0.129549
H68   H     H_    0.112650 0.143950 0.617175 0.251570
H69   H     H_    0.229353 0.174649 0.693317 0.258260
H70   H     H_    0.126984 0.213551 0.662291 0.253975
H71   H     H_    0.596683 0.287146 0.249398 0.254071
H72   H     H_    0.616077 0.359467 0.277042 0.257970
H73   H     H_    0.597871 0.315562 0.360882 0.254360
H74   H     H_    0.443857 0.363974 0.229291 0.171166
H75   H     H_    0.431955 0.296491 0.204466 0.182782
H76   H     H_    0.407730 0.279870 0.762589 0.256766
H77   H     H_    0.375243 0.349798 0.723791 0.254768
H78   H     H_    0.542477 0.037619 0.655700 0.128656
H79   H     H_    0.396490 0.306408 0.643223 0.254245
H80   H     H_    0.537763 0.369006 0.760558 0.184049
H81   H     H_    0.567347 0.301973 0.791797 0.182922
H82   H     H_    0.096685 0.787148 0.249401 0.254072
H83   H     H_    0.116075 0.859469 0.277043 0.257972
H84   H     H_    0.097870 0.815564 0.360884 0.254360
H85   H     H_    0.943852 0.863972 0.229288 0.171163
H86   H     H_    0.931956 0.796490 0.204465 0.182782
H87   H     H_    0.907731 0.779869 0.762591 0.256767
H88   H     H_    0.875244 0.849798 0.723792 0.254767
H89   H     H_    0.138057 0.661207 0.846433 0.123764
H90   H     H_    0.896490 0.806407 0.643224 0.254245
H91   H     H_    0.037762 0.869006 0.760557 0.184049
H92   H     H_    0.067348 0.801973 0.791797 0.182922
N1    N     N_R   0.395440 0.396300 0.944370 -0.051750
N2    N     N_R   0.474910 0.470990 0.794360 -0.037969
N3    N     N_R   0.025090 0.970990 0.205640 -0.033323
N4    N     N_R   0.974910 0.970990 0.794360 -0.037969
N5    N     N_R   0.320240 0.527820 0.794510 -0.039060
N6    N     N_R   0.679760 0.527820 0.205490 -0.040132
N7    N     N_R   0.820240 0.027820 0.794510 -0.039060
N8    N     N_R   0.179760 0.027820 0.205490 -0.040132
N9    N     N_R   0.524580 0.527810 0.205160 -0.035362
N10   N     N_R   0.475420 0.527810 0.794840 -0.039067
N11   N     N_R   0.024580 0.027810 0.205160 -0.035362
N12   N     N_R   0.604560 0.396300 0.055630 -0.053076
N13   N     N_R   0.975420 0.027810 0.794840 -0.039067
N14   N     N_R   0.320750 0.470990 0.794990 -0.043137
N15   N     N_R   0.679250 0.470990 0.205010 -0.042609
N16   N     N_R   0.820750 0.970990 0.794990 -0.043137
N17   N     N_R   0.179250 0.970990 0.205010 -0.042609
N18   N     N_R   0.393580 0.602500 0.942610 -0.039732
N19   N     N_R   0.606420 0.602500 0.057390 -0.042655
N20   N     N_R   0.893580 0.102500 0.942610 -0.039731
N21   N     N_R   0.106420 0.102500 0.057390 -0.042655
N22   N     N_R   0.451750 0.396300 0.057540 -0.057697
N23   N     N_R   0.895440 0.896300 0.944370 -0.051750
N24   N     N_R   0.548250 0.396300 0.942460 -0.060798
N25   N     N_R   0.951750 0.896300 0.057540 -0.057696
N26   N     N_R   0.048250 0.896300 0.942460 -0.060798
N27   N     N_2   0.346197 0.671086 0.219410 -0.120485
N28   N     N_2   0.675548 0.653470 0.784552 -0.117956
N29   N     N_2   0.846199 0.171089 0.219406 -0.120492
N30   N     N_2   0.175547 0.153472 0.784549 -0.117952
N31   N     N_R   0.104560 0.896300 0.055630 -0.053076
N32   N     N_R   0.449890 0.602500 0.055780 -0.042235
N33   N     N_R   0.550110 0.602500 0.944220 -0.042584
N34   N     N_R   0.949890 0.102500 0.055780 -0.042237
N35   N     N_R   0.050110 0.102500 0.944220 -0.042584
N36   N     N_R   0.525090 0.470990 0.205640 -0.033323
Ni1   Ni    Ni4+2 0.435420 0.434250 0.870220 0.206458
Ni2   Ni    Ni4+2 0.564580 0.434250 0.129780 0.208769
Ni3   Ni    Ni4+2 0.935420 0.934250 0.870220 0.206458
Ni4   Ni    Ni4+2 0.064580 0.934250 0.129780 0.208770
Ni5   Ni    Ni4+2 0.563400 0.564580 0.128670 0.213527
Ni6   Ni    Ni4+2 0.436600 0.564580 0.871330 0.211803
Ni7   Ni    Ni4+2 0.063400 0.064580 0.128670 0.213527
Ni8   Ni    Ni4+2 0.936600 0.064580 0.871330 0.211802

loop_
_geom_bond_atom_site_label_1
_geom_bond_atom_site_label_2
_ccdc_geom_bond_type
C3    C104  S    
N12   N24   A    
C16   C21   D    
C38   H11   S    
C12   C74   A    
C89   C102  S    
N2    N10   A    
C56   H16   S    
C101  H69   S    
C51   C61   S    
N4    Ni3   S    
N6    N15   A    
C7    H87   S    
C98   H57   S    
N6    Ni5   S    
C6    H92   S    
C101  H70   S    
C90   C95   A    
C47   N34   A    
C55   H15   S    
C35   C96   S    
C11   C81   A    
C104  H81   S    
C13   C84   A    
C11   C19   S    
C59   C64   A    
C47   H25   S    
C100  H63   S    
C52   C72   S    
C32   C36   A    
C46   H24   S    
N18   Ni6   S    
C2    C68   A    
C78   H38   S    
C71   H31   S    
C43   C52   A    
N14   Ni1   S    
C74   N7    A    
C12   C22   S    
C34   C97   S    
C88   N21   A    
C101  H68   S    
C68   N2    A    
C9    C79   A    
C65   H20   S    
C68   H28   S    
C78   N11   A    
C15   H50   S    
C50   C85   A    
C76   C94   A    
C91   C96   A    
C86   N19   A    
C48   N35   A    
C44   C53   A    
C79   H39   S    
C13   C75   A    
C29   C33   A    
C10   C20   S    
C80   H40   S    
C67   C94   A    
N20   N34   A    
C87   N20   A    
N13   Ni8   S    
C17   C95   A    
C91   N25   A    
N17   Ni4   S    
N18   N32   A    
N21   Ni7   S    
C39   N31   A    
C28   H23   S    
N11   Ni7   S    
C42   C51   A    
C4    C91   S    
C10   C71   A    
C24   C51   A    
C40   C42   A    
C83   C88   A    
C89   N22   A    
C39   H34   S    
C87   H47   S    
C8    C78   A    
C102  H75   S    
C88   H48   S    
C48   H26   S    
N34   Ni7   S    
C100  N29   S    
C5    H82   S    
N8    Ni7   S    
C42   N28   S    
C36   H9    S    
C4    H85   S    
C70   H30   S    
C41   C49   A    
C6    H91   S    
C82   H42   S    
C92   C97   A    
C82   N16   A    
C54   C59   A    
C76   H36   S    
C15   C20   D    
C74   H33   S    
C67   H27   S    
N26   Ni3   S    
N23   Ni3   S    
C62   C66   A    
C46   C61   A    
C13   C21   S    
C9    C62   S    
N20   Ni8   S    
C23   C30   A    
C98   H54   S    
C29   H6    S    
N5    Ni6   S    
C99   N28   S    
C9    C70   A    
N22   Ni2   S    
C38   C41   A    
N3    N11   A    
C11   C73   A    
C26   H4    S    
C30   C34   A    
C2    C59   S    
C57   C60   A    
C37   H10   S    
C21   H67   S    
N8    N17   A    
C33   C37   A    
C63   C64   A    
C33   C93   S    
C101  N30   S    
C103  H73   S    
C45   N32   A    
N19   N33   A    
C3    H76   S    
C79   N13   A    
N31   Ni4   S    
C4    H86   S    
N23   N25   A    
N24   Ni1   S    
C14   C15   S    
C73   H32   S    
C45   H22   S    
C31   H8    S    
C98   N27   S    
C23   H89   S    
C16   H51   S    
C103  H71   S    
C8    C69   A    
C12   C82   A    
N10   Ni6   S    
C7    H90   S    
N9    Ni5   S    
C72   C87   A    
C3    H77   S    
C86   H46   S    
C90   C104  S    
N7    Ni8   S    
C41   N27   S    
N19   Ni5   S    
C22   H78   S    
C1    C93   A    
C81   N15   A    
H58   N28   S    
C60   C65   A    
C49   C50   S    
C28   N23   A    
C81   H41   S    
C54   H14   S    
N25   Ni4   S    
C102  H74   S    
C46   N33   A    
C99   H59   S    
N7    N16   A    
C24   H2    S    
C56   C57   A    
C5    H83   S    
N1    N22   A    
C26   C53   A    
N12   Ni2   S    
N5    N14   A    
N16   Ni3   S    
C18   H52   S    
C76   N9    A    
C25   H3    S    
C80   N14   A    
C84   H43   S    
C100  H65   S    
C58   C63   A    
C71   N5    A    
H66   N30   S    
C54   C55   A    
C69   H29   S    
C104  H80   S    
C27   C32   A    
C34   C38   A    
C90   N24   A    
C14   C19   D    
C17   N12   A    
C1    N1    A    
C4    C5    S    
C36   C43   A    
N2    Ni1   S    
N36   Ni2   S    
C67   N36   A    
C75   N8    A    
C66   H21   S    
C6    C7    S    
C18   C22   D    
C25   C27   A    
C64   H19   S    
C73   N6    A    
N4    N13   A    
N15   Ni2   S    
C100  H64   S    
C30   H7    S    
C28   C96   A    
C37   C44   A    
C10   C80   A    
C35   C40   A    
C58   C94   S    
C24   C31   A    
N32   Ni5   S    
C14   H49   S    
C2    C77   A    
C75   H35   S    
C77   N10   A    
C8    C60   S    
C45   C50   A    
C63   H18   S    
N1    Ni1   S    
C44   N30   S    
N26   N31   A    
H62   N29   S    
C6    C92   S    
C53   C83   S    
C70   N4    A    
C31   C35   A    
C92   N26   A    
C103  H72   S    
C19   H45   S    
C40   H13   S    
C85   N18   A    
C56   C62   A    
C89   C93   A    
C102  C103  S    
C7    H88   S    
C77   H37   S    
C47   C72   A    
C25   C52   A    
C39   C97   A    
C61   C86   A    
C57   H17   S    
C99   H60   S    
C69   N3    A    
C32   C95   S    
C23   C49   A    
C98   H55   S    
C27   H5    S    
C26   C29   A    
C16   C18   S    
C65   C66   A    
C20   H56   S    
C55   C58   A    
H53   N27   S    
C48   C83   A    
C84   N17   A    
N35   Ni8   S    
N9    N36   A    
C85   H44   S    
C5    H84   S    
N33   Ni6   S    
N3    Ni4   S    
C3    H79   S    
N21   N35   A    
C43   N29   S    
C17   H12   S    
C1    H1    S    
C99   H61   S    
