data_mof_unit_40029.cif
_audit_creation_date              2012-12-11T14:23:12-0500
_audit_creation_method            fapswitch 2.2
_symmetry_space_group_name_H-M    P1
_symmetry_Int_Tables_number       1
_space_group_crystal_system       triclinic
_cell_length_a                    11.041556
_cell_length_b                    11.040064
_cell_length_c                    18.741595
_cell_angle_alpha                 90.190303
_cell_angle_beta                  89.96355
_cell_angle_gamma                 59.450223
_cell_volume                      1967.44391443

loop_
_atom_site_label
_atom_site_type_symbol
_atom_type_description
_atom_site_fract_x
_atom_site_fract_y
_atom_site_fract_z
_atom_type_partial_charge
C1    C     C_R   0.234480 0.645938 0.609150 0.594552
C2    C     C_R   0.581936 0.139414 0.708785 -0.137385
C3    C     C_R   0.585274 0.139042 0.781317 -0.175523
C4    C     C_R   0.651114 0.619440 0.602383 0.619245
C5    C     C_R   0.911498 0.154411 0.814768 -0.106398
C6    C     C_R   0.021948 0.146322 0.774957 -0.157077
C7    C     C_R   0.025372 0.129982 0.701237 -0.136984
C8    C     C_R   0.915876 0.127324 0.666533 -0.069496
C9    C     C_R   0.680354 0.154325 0.670017 0.040261
C10   C     C_R   0.180725 0.668025 0.833772 0.018984
C11   C     C_R   0.202473 0.545197 0.798534 0.003947
C12   C     C_3   0.688143 0.538779 0.801544 -0.304727
C13   C     C_R   0.190536 0.543647 0.722589 0.056857
C14   C     C_R   0.177725 0.771931 0.721058 -0.136807
C15   C     C_R   0.176556 0.776363 0.794128 -0.136656
C16   C     C_R   0.631760 0.223113 0.600838 0.538791
C17   C     C_R   0.235130 0.424409 0.838294 -0.104627
C18   C     C_R   0.241410 0.308837 0.806117 -0.188324
C19   C     C_R   0.218595 0.309414 0.733597 -0.126557
C20   C     C_R   0.187721 0.425647 0.691592 0.241468
C21   C     C_R   0.185952 0.658096 0.683535 0.062938
C22   C     C_R   0.709539 0.691537 0.181256 -0.004881
C23   C     C_3   0.695816 0.672638 0.813850 0.031824
C24   C     C_R   0.793583 0.555867 0.212344 0.055284
C25   C     C_R   0.736670 0.518874 0.268557 0.027399
C26   C     C_R   0.560855 0.763851 0.285955 -0.127759
C27   C     C_R   0.593492 0.794485 0.219054 -0.154982
C28   C     C_R   0.276639 0.626258 0.391749 0.543889
C29   C     C_R   0.924435 0.449535 0.184471 -0.082612
C30   C     C_R   0.966467 0.309654 0.192781 -0.136133
C31   C     C_R   0.898336 0.272947 0.241567 -0.117813
C32   C     C_R   0.785498 0.375890 0.280201 -0.087243
C33   C     C_R   0.633179 0.625497 0.311401 -0.004955
C34   C     C_3   0.665577 0.646013 0.677931 0.024144
C35   C     C_R   0.686082 0.073990 0.190430 -0.008311
C36   C     C_R   0.559699 0.116667 0.228654 0.016985
C37   C     C_R   0.568587 0.098366 0.303009 0.046075
C38   C     C_R   0.800118 0.062767 0.304430 -0.167462
C39   C     C_R   0.809306 0.032976 0.230728 -0.160844
C40   C     C_R   0.617906 0.592841 0.385237 0.531729
C41   C     C_R   0.424261 0.181139 0.198364 -0.114892
C42   C     C_R   0.309611 0.207110 0.240301 -0.164277
C43   C     C_R   0.326887 0.162521 0.310678 -0.128002
C44   C     C_R   0.459333 0.095627 0.339895 -0.077085
C45   C     C_3   0.804217 0.645038 0.689959 0.130525
C46   C     C_R   0.671867 0.113106 0.339143 0.006324
C47   C     C_R   0.203351 0.641401 0.168157 -0.004880
C48   C     C_R   0.256218 0.721291 0.198277 0.032495
C49   C     C_R   0.239433 0.744834 0.272211 0.020822
C50   C     C_R   0.223496 0.534279 0.282797 -0.139569
C51   C     C_R   0.199345 0.539489 0.209706 -0.154749
C52   C     C_R   0.624908 0.213469 0.400797 0.520921
C53   C     C_R   0.291667 0.803425 0.155448 -0.060734
C54   C     C_R   0.265444 0.932448 0.180861 -0.108528
C55   C     C_R   0.213762 0.972670 0.249709 -0.160292
C56   C     C_3   0.668984 0.523590 0.721486 -0.285232
C57   C     C_R   0.207771 0.878783 0.296477 -0.117898
C58   C     C_R   0.237877 0.640477 0.315834 -0.007544
C59   C     C_R   0.703295 0.099291 0.894961 0.559630
C60   C     C_R   0.721051 0.686571 0.889448 0.590689
C61   C     C_R   0.119345 0.705186 0.905890 0.561531
C62   C     C_R   0.699107 0.048039 0.112144 0.541713
C63   C     C_R   0.732661 0.714921 0.106414 0.541267
C64   C     C_3   0.555131 0.800045 0.786545 -0.252995
C65   C     C_R   0.107844 0.701071 0.106842 0.520324
C66   C     C_3   0.539865 0.786692 0.705960 -0.240215
C67   C     C_R   0.693448 0.141268 0.819570 -0.002248
C68   C     C_3   0.823510 0.659753 0.770469 0.138473
C69   C     C_R   0.801713 0.146070 0.781045 0.029817
C70   C     C_R   0.799299 0.142875 0.705121 0.037750
Cl1   Cl    Cl    0.123633 0.418068 0.605928 -0.581732
Cl2   Cl    Cl    0.818198 0.771155 0.635042 -0.583525
Cr1   Cr    Cr6+3 0.392940 0.397950 0.502230 1.088442
Cr2   Cr    Cr6+3 0.398400 0.708500 0.501260 1.012872
Cr3   Cr    Cr6+3 0.708640 0.393530 0.496460 1.034083
Cr4   Cr    Cr6+3 0.937880 0.938320 0.007620 1.008353
Cr5   Cr    Cr6+3 0.625560 0.937220 0.994510 0.994054
Cr6   Cr    Cr6+3 0.938080 0.625010 0.001190 0.998380
H1    H     H_    0.549200 0.901411 0.797649 0.132789
H2    H     H_    0.926126 0.107807 0.609655 0.150750
H3    H     H_    0.179131 0.856990 0.693767 0.140860
H4    H     H_    0.464686 0.803802 0.814991 0.115051
H5    H     H_    0.259787 0.416920 0.894559 0.132378
H6    H     H_    0.166572 0.869050 0.819633 0.143786
H7    H     H_    0.266365 0.217164 0.837691 0.104301
H8    H     H_    0.226133 0.217227 0.709577 0.127008
H9    H     H_    0.477715 0.846855 0.317087 0.155297
H10   H     H_    0.988873 0.471507 0.150399 0.147247
H11   H     H_    0.528795 0.897671 0.196736 0.149309
H12   H     H_    0.757084 0.420467 0.703010 0.156734
H13   H     H_    0.052905 0.229619 0.161781 0.100480
H14   H     H_    0.938357 0.164336 0.250556 0.118243
H15   H     H_    0.438750 0.790297 0.696070 0.131843
H16   H     H_    0.731397 0.344856 0.315709 0.147309
H17   H     H_    0.889664 0.052165 0.333441 0.121395
H18   H     H_    0.401050 0.223309 0.145184 0.154756
H19   H     H_    0.910542 0.988120 0.204485 0.159962
H20   H     H_    0.207032 0.263263 0.218322 0.103252
H21   H     H_    0.237435 0.183838 0.343513 0.120122
H22   H     H_    0.471649 0.061494 0.394941 0.145358
H23   H     H_    0.919566 0.560691 0.787054 0.159265
H24   H     H_    0.222020 0.452969 0.314015 0.166770
H25   H     H_    0.319022 0.777738 0.099676 0.125367
H26   H     H_    0.171979 0.468994 0.185675 0.110253
H27   H     H_    0.534707 0.877625 0.677717 0.164035
H28   H     H_    0.275591 0.004482 0.145799 0.108478
H29   H     H_    0.171976 0.078446 0.266686 0.117739
H30   H     H_    0.162713 0.920866 0.348005 0.152756
H31   H     H_    0.786192 0.444824 0.820463 0.135990
H32   H     H_    0.598915 0.544395 0.832108 0.127291
H33   H     H_    0.569863 0.522121 0.713031 0.128074
H34   H     H_    0.889821 0.540313 0.673419 0.179017
H35   H     H_    0.765915 0.858839 0.772596 0.358831
H36   H     H_    0.494780 0.137748 0.683314 0.153995
H37   H     H_    0.912453 0.171131 0.871415 0.138347
H38   H     H_    0.504358 0.128295 0.807111 0.146475
H39   H     H_    0.107391 0.147733 0.801964 0.105341
H40   H     H_    0.114703 0.114582 0.670380 0.123996
O1    O     O_R   0.507340 0.255690 0.581430 -0.498453
O2    O     O_R   0.837290 0.593240 0.915240 -0.513798
O3    O     O_R   0.065320 0.635310 0.931580 -0.490510
O4    O     O_R   0.280360 0.527380 0.578910 -0.428754
O5    O     O_R   0.068470 0.828620 0.091850 -0.532671
O6    O     O_R   0.799150 0.057200 0.079350 -0.490085
O7    O     O_R   0.585220 0.080180 0.076770 -0.542548
O8    O     O_R   0.627170 0.809480 0.067050 -0.514204
O9    O     O_R   0.816200 0.596410 0.076500 -0.524751
O10   O     O_R   0.045770 0.638240 0.081070 -0.544025
O11   O     O_3   0.833840 0.833520 0.001110 -0.269815
O12   O     O_R   0.524510 0.695820 0.424050 -0.509748
O13   O     O_R   0.260600 0.739610 0.584580 -0.541101
O14   O     O_R   0.532370 0.695050 0.573830 -0.503984
O15   O     O_R   0.744850 0.503430 0.576380 -0.483683
O16   O     O_R   0.699080 0.276500 0.571950 -0.527534
O17   O     O_R   0.498860 0.256520 0.419860 -0.522490
O18   O     O_R   0.272490 0.528150 0.429140 -0.466483
O19   O     O_R   0.252110 0.740440 0.423010 -0.532397
O20   O     O_3   0.850050 0.769035 0.786014 -0.653228
O21   O     O_R   0.736370 0.504260 0.414810 -0.481655
O22   O     O_R   0.691220 0.277270 0.422180 -0.537399
O23   O     O_3   0.499990 0.499990 0.499980 -0.304090
O24   O     O_R   0.089570 0.825450 0.930590 -0.528807
O25   O     O_R   0.818700 0.054260 0.929860 -0.493562
O26   O     O_R   0.606310 0.077010 0.915520 -0.530289
O27   O     O_R   0.646730 0.806540 0.917560 -0.499075

loop_
_geom_bond_atom_site_label_1
_geom_bond_atom_site_label_2
_ccdc_geom_bond_type
C32   H16   S    
C1    C21   S    
Cr1   O1    S    
Cr2   O14   S    
C11   C13   A    
C41   C42   A    
C68   O20   S    
C19   C20   A    
C19   H8    S    
C16   O16   A    
C34   C66   S    
C12   H32   S    
Cr3   O16   S    
C7    C8    A    
C4    O14   A    
Cr1   O23   S    
C53   C54   A    
C34   C56   S    
C12   C23   S    
C26   C27   A    
C14   C21   A    
C36   C37   A    
C9    C16   S    
C43   H21   S    
Cr3   O22   S    
C42   H20   S    
C30   C31   A    
C39   H19   S    
C41   H18   S    
C40   O21   A    
C46   C52   S    
C49   C57   A    
C61   O3    A    
C18   C19   A    
Cr6   O3    S    
C24   C29   A    
C29   H10   S    
C5    C69   A    
Cr3   O23   S    
C59   C67   S    
C22   C63   S    
C1    O4    A    
C11   C17   A    
Cr1   O17   S    
C26   H9    S    
C68   H23   S    
C38   H17   S    
C20   Cl1   S    
C60   O2    A    
H35   O20   S    
C56   H33   S    
C25   C32   A    
C56   H12   S    
Cr6   O10   S    
Cr2   O13   S    
C5    H37   S    
C45   Cl2   S    
C7    H40   S    
C36   C41   A    
C23   C60   S    
Cr6   O9    S    
C62   O6    A    
C12   H31   S    
C50   C51   A    
C6    C7    A    
C48   C53   A    
Cr2   O19   S    
C4    C34   S    
C45   H34   S    
C18   H7    S    
C54   H28   S    
Cr1   O4    S    
C50   C58   A    
C65   O10   A    
C38   C39   A    
C9    C70   A    
C16   O1    A    
C44   H22   S    
C47   C51   A    
C51   H26   S    
C49   C58   A    
C55   H29   S    
C17   H5    S    
C35   C36   A    
Cr4   O6    S    
C23   C68   S    
Cr6   O2    S    
C43   C44   A    
C29   C30   A    
Cr4   O11   S    
C26   C33   A    
C47   C48   A    
Cr1   O18   S    
C45   C68   S    
C17   C18   A    
C13   C21   A    
C34   C45   S    
Cr5   O11   S    
C24   C25   A    
C64   H4    S    
C12   C56   S    
C66   H15   S    
C23   C64   S    
Cr2   O23   S    
C59   O26   A    
C50   H24   S    
C22   C27   A    
Cr2   O12   S    
C64   H1    S    
C22   C24   A    
C10   C61   S    
C42   C43   A    
C66   H27   S    
Cr5   O27   S    
Cr5   O7    S    
C40   O12   A    
C54   C55   A    
C48   C49   A    
C6    H39   S    
C13   C20   A    
C10   C15   A    
C28   O18   A    
Cr4   O5    S    
Cr6   O11   S    
C31   C32   A    
C3    C67   A    
C28   O19   A    
C30   H13   S    
C1    O13   A    
C62   O7    A    
Cr3   O15   S    
C15   H6    S    
C28   C58   S    
C8    C70   A    
C3    H38   S    
C37   C44   A    
C55   C57   A    
C2    C3    A    
Cr5   O26   S    
Cr3   O21   S    
C2    H36   S    
C5    C6    A    
C53   H25   S    
C35   C39   A    
C52   O22   A    
C27   H11   S    
C35   C62   S    
C65   O5    A    
C69   C70   A    
C38   C46   A    
C63   O8    A    
C10   C11   A    
C59   O25   A    
Cr4   O25   S    
C61   O24   A    
C57   H30   S    
C31   H14   S    
C60   O27   A    
C25   C33   A    
C8    H2    S    
C52   O17   A    
C33   C40   S    
C14   C15   A    
C14   H3    S    
C67   C69   A    
C37   C46   A    
C2    C9    A    
C47   C65   S    
C63   O9    A    
Cr5   O8    S    
C64   C66   S    
C4    O15   A    
Cr4   O24   S    
