data_mof_unit_67664.cif
_audit_creation_date              2012-12-10T19:42:33-0500
_audit_creation_method            fapswitch 2.2
_symmetry_space_group_name_H-M    P1
_symmetry_Int_Tables_number       1
_space_group_crystal_system       triclinic
_cell_length_a                    10.923711
_cell_length_b                    10.901503
_cell_length_c                    9.801604
_cell_angle_alpha                 97.98199
_cell_angle_beta                  98.523467
_cell_angle_gamma                 91.207813
_cell_volume                      1142.11290475

loop_
_atom_site_label
_atom_site_type_symbol
_atom_type_description
_atom_site_fract_x
_atom_site_fract_y
_atom_site_fract_z
_atom_type_partial_charge
C1    C     C_R   0.501966 0.262308 0.500660 0.805093
C2    C     C_R   0.498099 0.737724 0.499496 0.802236
C3    C     C_R   0.871555 0.508046 0.499817 -0.102329
C4    C     C_R   0.127782 0.499801 0.498009 -0.085946
C5    C     C_R   0.954736 0.568163 0.615163 0.044350
C6    C     C_R   0.044180 0.442596 0.381058 0.068457
C7    C     C_R   0.485078 0.149201 0.024690 -0.172171
C8    C     C_R   0.530743 0.847583 0.975087 -0.175543
C9    C     C_R   0.457456 0.103728 0.143122 -0.138179
C10   C     C_R   0.552620 0.894899 0.855566 -0.123972
C11   C     C_R   0.552222 0.091105 0.252634 0.089314
C12   C     C_R   0.453786 0.909211 0.750930 0.076366
C13   C     C_R   0.675324 0.124555 0.243498 0.186100
C14   C     C_R   0.331804 0.875292 0.765796 0.185950
C15   C     C_R   0.703322 0.164810 0.120524 0.150652
C16   C     C_R   0.310167 0.831020 0.889477 0.159901
C17   C     C_R   0.607360 0.178943 0.012687 -0.189526
C18   C     C_R   0.410235 0.816053 0.992266 -0.194430
C19   C     C_R   0.518325 0.919679 0.381589 -0.260797
C20   C     C_R   0.482865 0.080564 0.619609 -0.274627
C21   C     C_R   0.497020 0.871844 0.500995 -0.065993
C22   C     C_R   0.503375 0.128283 0.499804 -0.070457
C23   C     C_R   0.262075 0.498837 0.500160 0.816973
C24   C     C_R   0.737706 0.503807 0.499508 0.789696
C25   C     C_R   0.479906 0.953451 0.621936 0.046488
C26   C     C_R   0.521436 0.046741 0.379438 0.056839
C27   C     C_2   0.506361 0.512867 0.078427 -0.092595
C28   C     C_2   0.491857 0.488586 0.921402 -0.078944
C29   C     C_R   0.137049 0.370142 0.022243 0.153597
C30   C     C_R   0.877299 0.644520 0.979784 0.163048
C31   C     C_R   0.106152 0.435522 0.145182 -0.239905
C32   C     C_R   0.891195 0.577915 0.850249 -0.252420
C33   C     C_R   0.084481 0.372903 0.255572 0.105974
C34   C     C_R   0.914036 0.639439 0.739652 0.086024
C35   C     C_R   0.101422 0.244693 0.245524 0.195593
C36   C     C_R   0.906793 0.768973 0.752451 0.189084
C37   C     C_R   0.123264 0.178244 0.118701 -0.286373
C38   C     C_R   0.896429 0.836242 0.883153 -0.257478
C39   C     C_R   0.136475 0.239897 0.004719 0.200131
C40   C     C_R   0.887638 0.775125 0.998915 0.185851
C41   C     C_R   0.917325 0.448305 0.383456 -0.220494
C42   C     C_R   0.081913 0.563104 0.612545 -0.216241
Cu1   Cu    Cu3+1 0.521120 0.521140 0.639640 0.955679
Cu2   Cu    Cu3+1 0.478880 0.478860 0.360360 0.948583
H1    H     H_    0.536531 0.858123 0.290929 0.140168
H2    H     H_    0.466387 0.142349 0.710859 0.142976
H3    H     H_    0.426913 0.415328 0.866098 0.172218
H4    H     H_    0.567043 0.589342 0.133524 0.149806
H5    H     H_    0.615876 0.620048 0.904153 0.203001
H6    H     H_    0.390661 0.374343 0.096419 0.213106
H7    H     H_    0.102505 0.535543 0.156161 0.170015
H8    H     H_    0.888232 0.477439 0.836434 0.148862
H9    H     H_    0.128197 0.078393 0.108967 0.135306
H10   H     H_    0.898151 0.936415 0.895212 0.129470
H11   H     H_    0.853607 0.403312 0.294818 0.170366
H12   H     H_    0.145734 0.610021 0.700106 0.177273
H13   H     H_    0.627980 0.211581 0.918846 0.142410
H14   H     H_    0.393946 0.780709 0.086151 0.141739
H15   H     H_    0.412003 0.158982 0.940791 0.117375
H16   H     H_    0.607144 0.836363 0.055207 0.115786
H17   H     H_    0.362474 0.078734 0.150100 0.129474
H18   H     H_    0.646557 0.919612 0.843695 0.132055
N1    N     N_2   0.447120 0.447110 0.150550 -0.282211
N2    N     N_2   0.552880 0.552890 0.849450 -0.280281
O1    O     O_R   0.517830 0.337490 0.617920 -0.589121
O2    O     O_R   0.482170 0.662510 0.382080 -0.593363
O3    O     O_R   0.482150 0.301790 0.382070 -0.569780
O4    O     O_R   0.517850 0.698210 0.617930 -0.567210
O5    O     O_R   0.337480 0.517860 0.617920 -0.570990
O6    O     O_R   0.662520 0.482140 0.382080 -0.579679
O7    O     O_R   0.301810 0.482160 0.382070 -0.576572
O8    O     O_R   0.698190 0.517840 0.617930 -0.573864
C43   C     C_3   0.147819 0.166753 0.864882 -0.410007
C44   C     C_3   0.030546 0.173338 0.760128 -0.794234
H19   H     H_    0.948580 0.138114 0.799948 0.228897
H20   H     H_    0.015596 0.270068 0.740099 0.268442
H21   H     H_    0.039635 0.115835 0.659693 0.242735
H22   H     H_    0.227962 0.203541 0.823156 0.206310
H23   H     H_    0.163356 0.067961 0.875314 0.202335
C45   C     C_3   0.887235 0.849991 0.140795 -0.426430
C46   C     C_3   0.003030 0.832036 0.243602 -0.789787
H24   H     H_    0.012286 0.733422 0.258070 0.280001
H25   H     H_    0.087259 0.865437 0.206874 0.229644
H26   H     H_    0.996697 0.886015 0.346849 0.240130
H27   H     H_    0.883684 0.949855 0.131217 0.204078
H28   H     H_    0.803648 0.824476 0.184328 0.192780
N3    N     N_3   0.769616 0.118697 0.360482 -0.611601
H29   H     H_    0.817917 0.204429 0.386667 0.241942
H30   H     H_    0.830709 0.051274 0.332106 0.221148
N4    N     N_3   0.233094 0.883893 0.653261 -0.609069
H31   H     H_    0.222104 0.977687 0.645096 0.210992
H32   H     H_    0.149469 0.848662 0.673710 0.277771
N5    N     N_3   0.828796 0.189530 0.104176 -0.621340
H33   H     H_    0.847479 0.129718 0.017615 0.205489
H34   H     H_    0.835836 0.279099 0.079347 0.212284
N6    N     N_3   0.186944 0.804553 0.912960 -0.620436
H35   H     H_    0.170746 0.865430 0.999825 0.211313
H36   H     H_    0.182202 0.714713 0.938088 0.216225
N7    N     N_3   0.174761 0.435693 0.917698 -0.615655
H37   H     H_    0.244628 0.500997 0.965729 0.212639
H38   H     H_    0.100896 0.485335 0.879235 0.222938
N8    N     N_3   0.856129 0.580047 0.092831 -0.602349
H39   H     H_    0.845333 0.484903 0.058761 0.207354
H40   H     H_    0.771900 0.607088 0.122570 0.203552
N9    N     N_3   0.096208 0.182226 0.363777 -0.608417
H41   H     H_    0.182750 0.145279 0.389630 0.212602
H42   H     H_    0.031883 0.107886 0.333663 0.225130
N10   N     N_3   0.911982 0.831074 0.633245 -0.609489
H43   H     H_    0.833816 0.800792 0.560045 0.212918
H44   H     H_    0.904453 0.926439 0.659975 0.217272

loop_
_geom_bond_atom_site_label_1
_geom_bond_atom_site_label_2
_ccdc_geom_bond_type
C27   H4    S    
C38   C40   A    
N3    H29   S    
C28   H3    S    
Cu1   O8    S    
C36   N10   S    
C43   C44   S    
C23   O5    A    
Cu2   O2    S    
C5    C42   A    
C46   H24   S    
C24   O6    A    
N9    H42   S    
N5    H33   S    
C44   H20   S    
C9    H17   S    
C35   C37   A    
C2    O4    A    
C33   C35   A    
C20   C25   A    
N10   H43   S    
Cu2   O7    S    
C15   C17   A    
C19   C26   A    
C32   H8    S    
C45   H28   S    
C42   H12   S    
C18   H14   S    
C14   N4    S    
Cu1   O4    S    
C7    C17   A    
C44   H21   S    
N6    H36   S    
C1    O1    A    
C43   H22   S    
C40   C45   S    
Cu2   O6    S    
C37   H9    S    
C1    C22   S    
N5    H34   S    
H5    N2    S    
C5    C34   S    
H6    N1    S    
C30   N8    S    
C3    C24   S    
C10   H18   S    
C7    H15   S    
C46   H25   S    
Cu1   N2    S    
Cu2   N1    S    
C37   C39   A    
C16   N6    S    
C44   H19   S    
C29   N7    S    
C23   O7    A    
C4    C6    A    
C31   H7    S    
C4    C23   S    
C11   C26   S    
C3    C5    A    
C6    C41   A    
C8    C18   A    
C32   C34   A    
Cu1   Cu2   S    
C45   H27   S    
C35   N9    S    
N4    H32   S    
N7    H37   S    
C38   H10   S    
Cu1   O1    S    
N6    H35   S    
C13   N3    S    
C2    C21   S    
C31   C33   A    
C43   H23   S    
C30   C40   A    
N8    H40   S    
C9    C11   A    
C10   C12   A    
C28   N2    D    
C16   C18   A    
N7    H38   S    
C20   C22   A    
C13   C15   A    
C14   C16   A    
C46   H26   S    
C24   O8    A    
C29   C39   A    
C7    C9    A    
C21   C25   A    
C3    C41   A    
C19   C21   A    
C12   C14   A    
C45   C46   S    
C2    O2    A    
C15   N5    S    
C19   H1    S    
N9    H41   S    
C6    C33   S    
C12   C25   S    
C36   C38   A    
C29   C31   A    
C8    H16   S    
C30   C32   A    
C11   C13   A    
N4    H31   S    
C4    C42   A    
C41   H11   S    
C1    O3    A    
N10   H44   S    
C34   C36   A    
C39   C43   S    
N8    H39   S    
C8    C10   A    
C22   C26   A    
C27   C28   S    
N3    H30   S    
C27   N1    D    
Cu2   O3    S    
Cu1   O5    S    
C20   H2    S    
C17   H13   S    
