data_mof_unit_54070.cif
_audit_creation_date              2013-03-05T15:48:29-0500
_audit_creation_method            fapswitch 2.2
_symmetry_space_group_name_H-M    P1
_symmetry_Int_Tables_number       1
_space_group_crystal_system       triclinic
_cell_length_a                    20.292528
_cell_length_b                    7.320005
_cell_length_c                    14.112883
_cell_angle_alpha                 90.000636
_cell_angle_beta                  103.249984
_cell_angle_gamma                 90.002444
_cell_volume                      2040.54129665

loop_
_atom_site_label
_atom_site_type_symbol
_atom_site_description
_atom_site_fract_x
_atom_site_fract_y
_atom_site_fract_z
_atom_type_partial_charge
O1    O     O_R   0.449830 0.506740 0.599960 -0.579922
O2    O     O_R   0.550170 0.006740 0.400040 -0.579949
O3    O     O_R   0.588980 0.179860 0.596720 -0.544315
O4    O     O_R   0.411020 0.679860 0.403280 -0.544315
C1    C     C_R   0.616475 0.347115 0.617064 1.134513
C2    C     C_R   0.383526 0.847110 0.382933 1.134478
O5    O     O_R   0.452740 0.177340 0.612040 -0.546272
O6    O     O_R   0.547260 0.677340 0.387960 -0.546285
O7    O     O_R   0.412960 0.002070 0.415460 -0.548740
O8    O     O_R   0.587040 0.502070 0.584540 -0.548731
C3    C     C_R   0.434205 0.347345 0.634301 1.146948
C4    C     C_R   0.565786 0.847355 0.365685 1.146897
O9    O     O_3   0.487110 0.337570 0.435490 -0.244100
O10   O     O_3   0.512890 0.837570 0.564510 -0.244100
V1    V     V_3+5 0.502390 0.064650 0.511970 1.453660
V2    V     V_3+5 0.497610 0.564650 0.488030 1.453667
C5    C     C_R   0.629424 0.061580 0.160281 0.297140
C6    C     C_R   0.370738 0.560976 0.839997 0.297202
C7    C     C_R   0.607713 0.874404 0.292712 -0.401658
C8    C     C_R   0.392293 0.374345 0.707291 -0.401787
C9    C     C_R   0.931845 0.767256 0.305168 -0.161981
C10   C     C_R   0.068163 0.267350 0.694816 -0.162036
C11   C     C_R   0.899131 0.749389 0.381753 0.388097
C12   C     C_R   0.100882 0.249549 0.618233 0.388153
C13   C     C_R   0.829658 0.786773 0.365814 -0.153308
C14   C     C_R   0.170356 0.286973 0.634186 -0.153325
C15   C     C_R   0.792136 0.839368 0.273033 0.111690
C16   C     C_R   0.207877 0.339491 0.726984 0.111458
C17   C     C_R   0.828980 0.880511 0.200096 0.026003
C18   C     C_R   0.171026 0.380597 0.799912 0.026033
C19   C     C_R   0.720187 0.869969 0.252262 -0.048730
C20   C     C_R   0.279837 0.369973 0.747795 -0.048712
C21   C     C_R   0.692180 0.975984 0.169481 -0.239275
C22   C     C_R   0.307892 0.475743 0.830674 -0.239531
C23   C     C_R   0.726584 0.990518 0.095154 0.568034
C24   C     C_R   0.273434 0.490376 0.904941 0.567220
C25   C     C_R   0.794027 0.946232 0.110005 -0.216548
C26   C     C_R   0.205969 0.446279 0.890013 -0.216514
C27   C     C_R   0.674095 0.799253 0.306484 0.460164
C28   C     C_R   0.325902 0.299267 0.693524 0.460112
C29   C     C_R   0.588695 0.015869 0.223077 0.369415
C30   C     C_R   0.411372 0.515586 0.777028 0.369695
C31   C     C_R   0.899252 0.846233 0.216522 -0.194945
C32   C     C_R   0.100753 0.346286 0.783476 -0.195002
H1    H     H_    0.983463 0.722435 0.316252 0.228640
H2    H     H_    0.016545 0.222512 0.683719 0.228656
H3    H     H_    0.806140 0.779107 0.427017 0.242106
H4    H     H_    0.193876 0.279358 0.572984 0.242134
H5    H     H_    0.818366 0.962386 0.049878 0.170136
H6    H     H_    0.181608 0.462464 0.950117 0.170145
C33   C     C_3   0.239335 0.783428 0.142756 -0.569241
C34   C     C_3   0.760650 0.283458 0.857254 -0.569135
H7    H     H_    0.221526 0.647243 0.116450 0.256776
H8    H     H_    0.778450 0.147273 0.883571 0.256721
H9    H     H_    0.239735 0.848263 0.072974 0.260970
H10   H     H_    0.760245 0.348311 0.927030 0.261096
C35   C     C_3   0.312555 0.769486 0.211845 0.509244
C36   C     C_3   0.687435 0.269509 0.788153 0.509098
H11   H     H_    0.184590 0.607408 0.263517 0.227831
H12   H     H_    0.815396 0.107412 0.736493 0.227849
C37   C     C_3   0.187124 0.752282 0.285721 0.105889
C38   C     C_3   0.812870 0.252282 0.714289 0.105902
C39   C     C_3   0.209303 0.079139 0.224002 0.379803
C40   C     C_3   0.790703 0.579147 0.776009 0.379786
C41   C     C_3   0.185409 0.872213 0.192155 -0.451650
C42   C     C_3   0.814587 0.372216 0.807856 -0.451703
C43   C     C_3   0.312317 0.867133 0.311793 -0.638617
C44   C     C_3   0.687682 0.367146 0.688208 -0.638588
C45   C     C_3   0.255661 0.786383 0.361266 0.253736
C46   C     C_3   0.744337 0.286390 0.638739 0.253771
C47   C     C_3   0.288923 0.073776 0.284724 0.411215
C48   C     C_3   0.711082 0.573795 0.715285 0.411200
H13   H     H_    0.246935 0.886828 0.414751 0.212541
H14   H     H_    0.753071 0.386834 0.585259 0.212519
O11   O     O_R   0.912980 0.203550 0.915410 -0.593780
O12   O     O_R   0.087020 0.703550 0.084590 -0.593811
O13   O     O_R   0.047270 0.535570 0.887960 -0.583366
O14   O     O_R   0.952730 0.035570 0.112040 -0.583346
C49   C     C_R   0.062814 0.366343 0.861954 1.007799
C50   C     C_R   0.937185 0.866336 0.138043 1.007800
O15   O     O_R   0.911030 0.532970 0.903270 -0.537703
O16   O     O_R   0.088970 0.032970 0.096730 -0.537688
O17   O     O_R   0.949820 0.708150 0.099970 -0.584904
O18   O     O_R   0.050180 0.208150 0.900030 -0.584895
C51   C     C_R   0.884784 0.366601 0.881287 1.081281
C52   C     C_R   0.115213 0.866604 0.118721 1.081233
O19   O     O_3   0.012900 0.375230 0.064480 -0.263833
O20   O     O_3   0.987100 0.875230 0.935520 -0.263832
V3    V     V_3+5 0.997610 0.648190 0.988040 1.345975
V4    V     V_3+5 0.002390 0.148190 0.011960 1.346008
Cl1   Cl    Cl    0.516341 0.153300 0.214634 -0.342308
Cl2   Cl    Cl    0.483700 0.653136 0.785459 -0.342132
N1    N     N_R   0.364850 0.846407 0.164494 0.273194
O21   O     O_R   0.428163 0.845504 0.210481 -0.345662
O22   O     O_R   0.351289 0.888925 0.072612 -0.221560
N2    N     N_R   0.635129 0.346457 0.835468 0.273107
O23   O     O_R   0.571815 0.345398 0.789487 -0.345820
O24   O     O_R   0.648688 0.389235 0.927312 -0.220931
N3    N     N_R   0.330083 0.579072 0.231445 0.280032
O25   O     O_R   0.287688 0.471457 0.258433 -0.337785
O26   O     O_R   0.389856 0.518971 0.228060 -0.197623
N4    N     N_R   0.669910 0.079082 0.768570 0.280021
O27   O     O_R   0.712296 0.971494 0.741551 -0.337789
O28   O     O_R   0.610149 0.018937 0.772000 -0.197581
Cl3   Cl    Cl    0.278870 0.603206 0.445805 -0.477018
Cl4   Cl    Cl    0.721124 0.103221 0.554189 -0.477029
N5    N     N_R   0.163799 0.156150 0.285026 0.279564
O29   O     O_R   0.171148 0.117682 0.376697 -0.299840
O30   O     O_R   0.109263 0.247150 0.245504 -0.253463
N6    N     N_R   0.836212 0.656151 0.714989 0.279566
O31   O     O_R   0.828867 0.617674 0.623319 -0.299878
O32   O     O_R   0.890741 0.747191 0.754512 -0.253465
N7    N     N_R   0.200703 0.198334 0.135470 0.275607
O33   O     O_R   0.178960 0.364480 0.137200 -0.369141
O34   O     O_R   0.201027 0.133320 0.049691 -0.395626
N8    N     N_R   0.799310 0.698344 0.864541 0.275562
O35   O     O_R   0.821025 0.864521 0.862797 -0.369196
O36   O     O_R   0.798988 0.633340 0.950322 -0.395580
N9    N     N_R   0.336633 0.158843 0.232122 0.285670
O37   O     O_R   0.397453 0.198753 0.278826 -0.213735
O38   O     O_R   0.322230 0.192093 0.139561 -0.217126
N10   N     N_R   0.663371 0.658876 0.767885 0.285643
O39   O     O_R   0.602546 0.698721 0.721181 -0.213814
O40   O     O_R   0.677795 0.692368 0.860425 -0.217078
Cl5   Cl    Cl    0.300494 0.202362 0.397236 -0.447914
Cl6   Cl    Cl    0.699520 0.702363 0.602771 -0.447928
N11   N     N_R   0.129124 0.775770 0.330897 0.259905
O41   O     O_R   0.125290 0.676587 0.405948 -0.255987
O42   O     O_R   0.077929 0.878747 0.292026 -0.405888
N12   N     N_R   0.870873 0.275755 0.669119 0.259902
O43   O     O_R   0.874709 0.176549 0.594076 -0.255985
O44   O     O_R   0.922072 0.378734 0.707991 -0.405900
Cl7   Cl    Cl    0.681139 0.011173 0.976583 -0.456777
Cl8   Cl    Cl    0.318781 0.510801 0.023558 -0.456974
N13   N     N_R   0.612510 0.219025 0.098876 0.294267
O45   O     O_R   0.557230 0.221630 0.030415 -0.174048
O46   O     O_R   0.647495 0.368326 0.120750 -0.289634
N14   N     N_R   0.387925 0.717750 0.901829 0.294321
O47   O     O_R   0.443072 0.718743 0.970570 -0.174124
O48   O     O_R   0.353897 0.868491 0.879406 -0.288447
Cl9   Cl    Cl    0.693114 0.597124 0.375591 -0.542694
Cl10  Cl    Cl    0.306843 0.097195 0.624372 -0.542712
N15   N     N_R   0.937293 0.699001 0.476758 0.276742
O49   O     O_R   0.990945 0.597080 0.486540 -0.299399
O50   O     O_R   0.925305 0.779255 0.553211 -0.228604
N16   N     N_R   0.062729 0.199156 0.523221 0.276765
O51   O     O_R   0.009080 0.097202 0.513425 -0.299378
O52   O     O_R   0.074729 0.279398 0.446773 -0.228565

loop_
_geom_bond_atom_site_label_1
_geom_bond_atom_site_label_2
_geom_bond_distance
_ccdc_geom_bond_type
C39   C41   1.622179 S    
N1    O21   1.299891 A    
C40   N8    1.500951 S    
C28   Cl10  1.765466 S    
C15   C17   1.435981 A    
C38   N12   1.471493 S    
O1    C3    1.329355 A    
O12   C52   1.362907 A    
C40   C48   1.646737 S    
O2    C4    1.329334 A    
C23   Cl7   1.722234 S    
C42   C51   1.558231 S    
O3    V1    2.065371 S    
N13   O45   1.302083 A    
O14   V4    2.083855 S    
O5    C3    1.357569 A    
O13   V3    2.083875 S    
C5    C21   1.398383 A    
C23   C25   1.375005 A    
C12   C14   1.402751 A    
N16   O51   1.300853 A    
C6    C30   1.384173 A    
C49   O18   1.326094 A    
C8    C28   1.426462 A    
O14   C50   1.349755 A    
C9    H1    1.074337 S    
N15   O49   1.300846 A    
C35   N3    1.449392 S    
N15   O50   1.299527 A    
C2    O7    1.314678 A    
N8    O35   1.295907 A    
C38   C46   1.566374 S    
H12   C38   1.103636 S    
C33   C41   1.567053 S    
C6    N14   1.435450 S    
C36   N2    1.488192 S    
N6    O31   1.298793 A    
O11   V4    2.044401 S    
C9    C31   1.399124 A    
O19   V3    2.258096 S    
O11   C51   1.362936 A    
C10   C32   1.399108 A    
C27   Cl9   1.765467 S    
N2    O24   1.300137 A    
C41   C52   1.558222 S    
C46   H14   1.096808 S    
N5    O29   1.298794 A    
C19   C21   1.409184 A    
C45   H13   1.096815 S    
C33   C35   1.582611 S    
C13   H3    1.079783 S    
C33   H9    1.094922 S    
C14   H4    1.079780 S    
O12   V3    2.044363 S    
O15   V3    2.065363 S    
O5    V1    2.083836 S    
O6    V2    2.083816 S    
C35   N1    1.488221 S    
C17   C31   1.413734 A    
N5    O30   1.302556 A    
C18   C32   1.413770 A    
O18   V4    2.081018 S    
C35   C43   1.582310 S    
C50   O17   1.326044 A    
C34   H8    1.095770 S    
N16   O52   1.299527 A    
N9    O38   1.294644 A    
O17   V3    2.081028 S    
C3    C8    1.491688 S    
C11   N15   1.434419 S    
C5    C29   1.384263 A    
H11   C37   1.103652 S    
C38   C42   1.579416 S    
C15   C19   1.439299 A    
C16   C20   1.439354 A    
O4    C2    1.348777 A    
C46   Cl4   1.784858 S    
C45   Cl3   1.784848 S    
C31   C50   1.493886 S    
O16   C52   1.336884 A    
C48   Cl6   1.814230 S    
C44   C48   1.605126 S    
C43   C45   1.589534 S    
C20   C22   1.409382 A    
O4    V2    2.065443 S    
N12   O44   1.298935 A    
C29   Cl1   1.761214 S    
N11   O42   1.298936 A    
C5    N13   1.435543 S    
C25   H5    1.081709 S    
C40   N6    1.508874 S    
N3    O25   1.286806 A    
O6    C4    1.357605 A    
N2    O23   1.299883 A    
O13   C49   1.349731 A    
C7    C29   1.418895 A    
C37   N11   1.471486 S    
O1    V2    2.077774 S    
C34   C36   1.582609 S    
N4    O28   1.301407 A    
O2    V1    2.077784 S    
C6    C22   1.398564 A    
C7    C27   1.426540 A    
C36   N4    1.449406 S    
C36   C44   1.582291 S    
C2    C43   1.566046 S    
C10   H2    1.074342 S    
O20   V4    2.258051 S    
C9    C11   1.398173 A    
N14   O48   1.301687 A    
C10   C12   1.398170 A    
O19   V4    1.812286 S    
C39   N5    1.508879 S    
N11   O41   1.301087 A    
C1    C44   1.566038 S    
C34   C42   1.567093 S    
N7    O33   1.295907 A    
C37   C45   1.566383 S    
N13   O46   1.301215 A    
C30   Cl2   1.761241 S    
C48   N10   1.485198 S    
C32   C49   1.493922 S    
C39   C47   1.646725 S    
O3    C1    1.348766 A    
C24   Cl8   1.722015 S    
C8    C30   1.418708 A    
N9    O37   1.292313 A    
C26   H6    1.081717 S    
C13   C15   1.409077 A    
C14   C16   1.409105 A    
O16   V4    2.065437 S    
C47   N9    1.485128 S    
C16   C18   1.435924 A    
N12   O43   1.301087 A    
O7    V1    2.055527 S    
C1    O8    1.314693 A    
O8    V2    2.055571 S    
C4    C7    1.491762 S    
C24   C26   1.374991 A    
C21   C23   1.390945 A    
C22   C24   1.391017 A    
N8    O36   1.302182 A    
C43   C47   1.605077 S    
C20   C28   1.434053 A    
N4    O27   1.286803 A    
N6    O32   1.302553 A    
N14   O47   1.302254 A    
C39   N7    1.500973 S    
C37   C41   1.579418 S    
C11   C13   1.402736 A    
O20   V3    1.812318 S    
N1    O22   1.300192 A    
O9    V2    1.812656 S    
C17   C25   1.392033 A    
C19   C27   1.434026 A    
C44   C46   1.589525 S    
O10   V1    1.812688 S    
C47   Cl5   1.814232 S    
C12   N16   1.434423 S    
C18   C26   1.391949 A    
C33   H7    1.095742 S    
N10   O39   1.292315 A    
N10   O40   1.294679 A    
N3    O26   1.301414 A    
O15   C51   1.336861 A    
C34   H10   1.094920 S    
C40   C42   1.622202 S    
N7    O34   1.302181 A    
