data_mof_unit_63777.cif
_audit_creation_date              2013-03-05T16:23:20-0500
_audit_creation_method            fapswitch 2.2
_symmetry_space_group_name_H-M    P1
_symmetry_Int_Tables_number       1
_space_group_crystal_system       triclinic
_cell_length_a                    30.69548
_cell_length_b                    30.848641
_cell_length_c                    22.242689
_cell_angle_alpha                 90.053015
_cell_angle_beta                  46.438214
_cell_angle_gamma                 89.966882
_cell_volume                      15262.0986493

loop_
_atom_site_label
_atom_site_type_symbol
_atom_site_description
_atom_site_fract_x
_atom_site_fract_y
_atom_site_fract_z
_atom_type_partial_charge
O1    O     O_R   0.178830 0.231030 0.500000 -0.582816
O2    O     O_R   0.821170 0.231030 0.500000 -0.583616
O3    O     O_R   0.678830 0.731030 0.500000 -0.583539
O4    O     O_R   0.321170 0.731030 0.500000 -0.583295
O5    O     O_R   0.230990 0.178800 0.500020 -0.575687
O6    O     O_R   0.769010 0.178800 0.499980 -0.574423
O7    O     O_R   0.730990 0.678800 0.500020 -0.573957
O8    O     O_R   0.269010 0.678800 0.499980 -0.573503
C1    C     C_R   0.190934 0.190669 0.499404 0.799423
C2    C     C_R   0.809063 0.190695 0.500572 0.799664
C3    C     C_R   0.690699 0.690741 0.499890 0.801223
C4    C     C_R   0.309400 0.690736 0.499861 0.799873
O9    O     O_R   0.283780 0.276120 0.380310 -0.569326
O10   O     O_R   0.716220 0.276120 0.619690 -0.568967
O11   O     O_R   0.783780 0.776120 0.380310 -0.567606
O12   O     O_R   0.216220 0.776120 0.619690 -0.569425
O13   O     O_R   0.335940 0.223900 0.380320 -0.581363
O14   O     O_R   0.664060 0.223900 0.619680 -0.580846
O15   O     O_R   0.835940 0.723900 0.380320 -0.581322
O16   O     O_R   0.164060 0.723900 0.619680 -0.578858
C5    C     C_R   0.329437 0.250005 0.341180 0.791835
C6    C     C_R   0.670607 0.250037 0.658806 0.791425
C7    C     C_R   0.829433 0.750002 0.341180 0.793782
C8    C     C_R   0.170603 0.750041 0.658806 0.792113
Cu1   Cu    Cu3+1 0.219120 0.280920 0.500000 1.127047
Cu2   Cu    Cu3+1 0.780880 0.280920 0.500000 1.124853
Cu3   Cu    Cu3+1 0.719120 0.780920 0.500000 1.125995
Cu4   Cu    Cu3+1 0.280880 0.780920 0.500000 1.122849
Cu5   Cu    Cu3+1 0.280880 0.219080 0.500020 1.038664
Cu6   Cu    Cu3+1 0.719120 0.219080 0.499980 1.040035
Cu7   Cu    Cu3+1 0.780880 0.719080 0.500020 1.038181
Cu8   Cu    Cu3+1 0.219120 0.719080 0.499980 1.043798
O17   O     O_R   0.269010 0.321200 0.499990 -0.542094
O18   O     O_R   0.730990 0.321200 0.500010 -0.541881
O19   O     O_R   0.769010 0.821200 0.499990 -0.540504
O20   O     O_R   0.230990 0.821200 0.500010 -0.532600
O21   O     O_R   0.321170 0.268970 0.500010 -0.587140
O22   O     O_R   0.678830 0.268970 0.499990 -0.587227
O23   O     O_R   0.821170 0.768970 0.500010 -0.589864
O24   O     O_R   0.178830 0.768970 0.499990 -0.582629
O25   O     O_R   0.164060 0.276100 0.619690 -0.521458
O26   O     O_R   0.835940 0.276100 0.380310 -0.522594
O27   O     O_R   0.664060 0.776100 0.619690 -0.523228
O28   O     O_R   0.335940 0.776100 0.380310 -0.524822
O29   O     O_R   0.216220 0.223880 0.619710 -0.585040
O30   O     O_R   0.783780 0.223880 0.380290 -0.584680
O31   O     O_R   0.716220 0.723880 0.619710 -0.584948
O32   O     O_R   0.283780 0.723880 0.380290 -0.585453
C9    C     C_R   0.309647 0.309155 0.499638 0.842300
C10   C     C_R   0.690359 0.309146 0.500352 0.841907
C11   C     C_R   0.809516 0.809200 0.499953 0.841628
C12   C     C_R   0.190197 0.809231 0.500707 0.828616
C13   C     C_R   0.170550 0.249971 0.658772 0.839949
C14   C     C_R   0.829375 0.249981 0.341244 0.839582
C15   C     C_R   0.670540 0.749970 0.658781 0.836104
C16   C     C_R   0.329396 0.749966 0.341249 0.834291
H1    H     H_    0.464265 0.180207 0.076177 0.152177
H2    H     H_    0.540761 0.180241 0.923221 0.151869
H3    H     H_    0.970557 0.680692 0.076182 0.153595
H4    H     H_    0.047051 0.680733 0.923227 0.153956
C17   C     C_R   0.523207 0.210809 0.956371 -0.150376
C18   C     C_R   0.479739 0.210790 0.043285 -0.150271
C19   C     C_R   0.026730 0.711089 0.956373 -0.148157
C20   C     C_R   0.983263 0.711065 0.043288 -0.148874
C21   C     C_R   0.543757 0.250078 0.912758 0.136881
C22   C     C_R   0.456503 0.250039 0.087227 0.136647
C23   C     C_R   0.043727 0.750088 0.912757 0.135781
C24   C     C_R   0.956477 0.750041 0.087226 0.135278
C25   C     C_R   0.520525 0.289327 0.956700 -0.144034
C26   C     C_R   0.477060 0.289308 0.043615 -0.144137
C27   C     C_R   0.016942 0.789064 0.956695 -0.141402
C28   C     C_R   0.973478 0.789041 0.043610 -0.142710
H5    H     H_    0.535988 0.319909 0.923808 0.158062
H6    H     H_    0.459500 0.319876 0.076765 0.158204
H7    H     H_    0.029638 0.819436 0.923800 0.159205
H8    H     H_    0.953153 0.819396 0.076757 0.159350
C29   C     C_1   0.588548 0.250092 0.823130 -0.036475
C30   C     C_1   0.411662 0.250020 0.176855 -0.036594
C31   C     C_1   0.088526 0.750104 0.823129 -0.032650
C32   C     C_1   0.911644 0.750017 0.176855 -0.034890
C33   C     C_1   0.374136 0.250009 0.251851 -0.127299
C34   C     C_1   0.626010 0.250083 0.748135 -0.127036
C35   C     C_1   0.874127 0.750004 0.251851 -0.126134
C36   C     C_1   0.125997 0.750094 0.748134 -0.123490
C37   C     C_R   0.095642 0.155994 0.560488 0.077715
C38   C     C_R   0.904098 0.154955 0.437966 0.075362
C39   C     C_R   0.596136 0.653727 0.564462 0.071179
C40   C     C_R   0.404176 0.654232 0.436505 0.073391
C41   C     C_R   0.158172 0.156881 0.499608 -0.146124
C42   C     C_R   0.841708 0.156961 0.500613 -0.143022
C43   C     C_R   0.658163 0.657200 0.499433 -0.146078
C44   C     C_R   0.341926 0.657098 0.500098 -0.176711
C45   C     C_R   0.189179 0.121492 0.445174 -0.220615
C46   C     C_R   0.810434 0.122613 0.557289 -0.222177
C47   C     C_R   0.689749 0.624874 0.438347 -0.203371
C48   C     C_R   0.310247 0.623970 0.559240 -0.136509
H9    H     H_    0.237843 0.120207 0.400856 0.163176
H10   H     H_    0.761705 0.122212 0.603171 0.161560
H11   H     H_    0.738389 0.626309 0.389890 0.152825
H12   H     H_    0.261516 0.624563 0.606528 0.172643
C49   C     C_R   0.157663 0.088716 0.444594 0.136416
C50   C     C_R   0.841885 0.089796 0.557941 0.133996
C51   C     C_R   0.658593 0.592244 0.436699 0.150192
C52   C     C_R   0.341074 0.591652 0.561528 0.131915
C53   C     C_R   0.094321 0.090943 0.501064 -0.073268
C54   C     C_R   0.905392 0.090890 0.499252 -0.076121
C55   C     C_R   0.594902 0.591139 0.500054 -0.101598
C56   C     C_R   0.404986 0.591200 0.500326 -0.135235
C57   C     C_R   0.064208 0.123396 0.561594 0.057758
C58   C     C_R   0.935449 0.122271 0.436908 0.059415
C59   C     C_R   0.565004 0.620902 0.565288 0.065381
C60   C     C_R   0.435208 0.621518 0.436123 0.085843
C61   C     C_3   0.015883 0.153679 0.586926 -0.519515
C62   C     C_3   0.985216 0.152018 0.407905 -0.513552
C63   C     C_3   0.513475 0.650028 0.598770 -0.503510
C64   C     C_3   0.485819 0.650958 0.404994 -0.502650
C65   C     C_3   0.050868 0.189662 0.584906 0.150801
C66   C     C_3   0.950260 0.188126 0.410079 0.145981
C67   C     C_3   0.548282 0.686298 0.596249 0.145213
C68   C     C_3   0.451185 0.687074 0.406616 0.139387
H13   H     H_    0.014861 0.157189 0.538186 0.157880
H14   H     H_    0.987915 0.156222 0.454892 0.157307
H15   H     H_    0.508533 0.654792 0.554156 0.160095
H16   H     H_    0.489371 0.655667 0.451068 0.159834
H17   H     H_    0.971689 0.146091 0.649743 0.247033
H18   H     H_    0.028509 0.143386 0.344763 0.248019
H19   H     H_    0.471447 0.640385 0.662205 0.245182
H20   H     H_    0.528615 0.641627 0.341897 0.248331
H21   H     H_    0.069368 0.214528 0.536178 0.128349
H22   H     H_    0.933343 0.213689 0.457249 0.129294
H23   H     H_    0.563229 0.712369 0.550874 0.129639
H24   H     H_    0.435157 0.713103 0.452668 0.129850
H25   H     H_    0.106876 0.234329 0.919220 0.204543
H26   H     H_    0.892353 0.265824 0.080972 0.207908
H27   H     H_    0.606303 0.731763 0.919190 0.204343
H28   H     H_    0.393144 0.768703 0.081124 0.207899
C69   C     C_R   0.018490 0.241853 0.041842 0.344632
C70   C     C_R   0.980775 0.258476 0.958176 0.348056
C71   C     C_R   0.518273 0.740438 0.041819 0.344097
C72   C     C_R   0.481225 0.760273 0.958324 0.349101
C73   C     C_R   0.957430 0.250884 0.087375 -0.042653
C74   C     C_R   0.041840 0.249226 0.912643 -0.041720
C75   C     C_R   0.457598 0.750972 0.087416 -0.042857
C76   C     C_R   0.541878 0.749407 0.912699 -0.041487
C77   C     C_R   0.939375 0.259265 0.045338 -0.244982
C78   C     C_R   0.059868 0.240874 0.954736 -0.252848
C79   C     C_R   0.439880 0.760961 0.045461 -0.243600
C80   C     C_R   0.559582 0.739490 0.954727 -0.253769
C81   C     C_1   0.911963 0.250359 0.177111 0.099768
C82   C     C_1   0.087444 0.249536 0.822903 0.101733
C83   C     C_1   0.412119 0.750374 0.177139 0.102004
C84   C     C_1   0.587442 0.749633 0.822940 0.101903
C85   C     C_1   0.125545 0.249742 0.747969 -0.042803
C86   C     C_1   0.874063 0.250044 0.252045 -0.041996
C87   C     C_1   0.625533 0.749775 0.747996 -0.044122
C88   C     C_1   0.374152 0.750019 0.252062 -0.038182
C89   C     C_R   0.322297 0.382476 0.530122 0.042203
C90   C     C_R   0.677698 0.382385 0.469806 0.043258
C91   C     C_R   0.823343 0.883510 0.526361 0.043123
C92   C     C_R   0.185142 0.873496 0.440015 0.016112
C93   C     C_R   0.344393 0.341384 0.498226 -0.137879
C94   C     C_R   0.655648 0.341353 0.501636 -0.139102
C95   C     C_R   0.844028 0.841548 0.499039 -0.137938
C96   C     C_R   0.156054 0.841638 0.500911 -0.122870
C97   C     C_R   0.402118 0.331454 0.465698 -0.224475
C98   C     C_R   0.598016 0.331440 0.533910 -0.224861
C99   C     C_R   0.900273 0.831025 0.471181 -0.227262
C100  C     C_R   0.093427 0.837559 0.555272 -0.213125
H29   H     H_    0.420851 0.299532 0.439919 0.205661
H30   H     H_    0.579330 0.299553 0.559598 0.205964
H31   H     H_    0.918203 0.798561 0.449030 0.204916
H32   H     H_    0.070828 0.810905 0.598953 0.190726
C101  C     C_R   0.436625 0.362695 0.464326 0.334225
C102  C     C_R   0.563518 0.362672 0.535197 0.333170
C103  C     C_R   0.934607 0.862494 0.469577 0.333451
C104  C     C_R   0.059499 0.868525 0.555665 0.342896
C105  C     C_R   0.411177 0.404718 0.498456 -0.125962
C106  C     C_R   0.588887 0.404649 0.501245 -0.127695
C107  C     C_R   0.910800 0.905190 0.498611 -0.128092
C108  C     C_R   0.089935 0.903587 0.498668 -0.140982
C109  C     C_R   0.353850 0.412464 0.530976 -0.052831
C110  C     C_R   0.646141 0.412356 0.468893 -0.044015
C111  C     C_R   0.854972 0.913658 0.526825 -0.047639
C112  C     C_R   0.152697 0.903517 0.438292 0.007868
C113  C     C_3   0.306502 0.446545 0.570483 -0.545259
C114  C     C_3   0.693243 0.446462 0.429942 -0.557952
C115  C     C_3   0.809706 0.948759 0.561069 -0.539011
C116  C     C_3   0.195856 0.939476 0.409983 -0.535366
C117  C     C_3   0.269975 0.412157 0.570378 0.579747
C118  C     C_3   0.729824 0.412082 0.430034 0.580680
C119  C     C_3   0.772977 0.914357 0.561268 0.570694
C120  C     C_3   0.231612 0.906594 0.412892 0.554147
H33   H     H_    0.287224 0.455298 0.633323 0.219673
H34   H     H_    0.712629 0.455255 0.367102 0.219830
H35   H     H_    0.789311 0.959048 0.623830 0.224355
H36   H     H_    0.218976 0.950469 0.346406 0.227956
H37   H     H_    0.321791 0.474305 0.528070 0.212660
H38   H     H_    0.677610 0.474164 0.472739 0.206951
H39   H     H_    0.827508 0.975543 0.515917 0.216400
H40   H     H_    0.174996 0.965949 0.456650 0.206318
O33   O     O_R   0.579750 0.454880 0.430680 -0.557583
O34   O     O_R   0.420250 0.454880 0.569320 -0.562280
O35   O     O_R   0.079750 0.954880 0.430680 -0.552006
O36   O     O_R   0.920250 0.954880 0.569320 -0.556291
O37   O     O_R   0.510480 0.454840 0.569230 -0.555917
O38   O     O_R   0.489520 0.454840 0.430770 -0.554846
O39   O     O_R   0.010480 0.954840 0.569230 -0.559550
O40   O     O_R   0.989520 0.954840 0.430770 -0.557379
C121  C     C_R   0.557895 0.439200 0.500138 0.894040
C122  C     C_R   0.442106 0.439237 0.499763 0.892751
C123  C     C_R   0.058590 0.939444 0.499900 0.882911
C124  C     C_R   0.941927 0.939448 0.499796 0.897004
O41   O     O_R   0.079740 0.045080 0.430720 -0.570078
O42   O     O_R   0.920260 0.045080 0.569280 -0.568280
O43   O     O_R   0.579740 0.545080 0.430720 -0.562699
O44   O     O_R   0.420260 0.545080 0.569280 -0.608537
O45   O     O_R   0.010480 0.045040 0.569280 -0.586388
O46   O     O_R   0.989520 0.045040 0.430720 -0.587344
O47   O     O_R   0.510480 0.545040 0.569280 -0.582316
O48   O     O_R   0.489520 0.545040 0.430720 -0.570069
C125  C     C_R   0.059819 0.059223 0.500104 0.811827
C126  C     C_R   0.940064 0.059181 0.499996 0.811223
C127  C     C_R   0.559924 0.559288 0.499936 0.797864
C128  C     C_R   0.439951 0.559229 0.500213 0.782093
Cu9   Cu    Cu3+1 0.541030 0.500000 0.417970 1.073161
Cu10  Cu    Cu3+1 0.458970 0.500000 0.582030 1.042323
Cu11  Cu    Cu3+1 0.041030 1.000000 0.417970 1.067319
Cu12  Cu    Cu3+1 0.958970 1.000000 0.582030 1.072702
N1    N     N_R   0.039376 0.233800 0.082290 0.150274
O49   O     O_R   0.087743 0.210899 0.045259 -0.295067
O50   O     O_R   0.014077 0.252716 0.152147 -0.260870
N2    N     N_R   0.959875 0.267155 0.917855 0.149708
O51   O     O_R   0.910500 0.289015 0.956340 -0.290720
O52   O     O_R   0.986779 0.250367 0.845808 -0.263694
N3    N     N_R   0.538841 0.730925 0.082240 0.150430
O53   O     O_R   0.586035 0.706639 0.045543 -0.292912
O54   O     O_R   0.514766 0.749996 0.151457 -0.258541
N4    N     N_R   0.460683 0.770650 0.918095 0.148807
O55   O     O_R   0.412482 0.794000 0.956381 -0.293456
O56   O     O_R   0.486499 0.753879 0.846479 -0.258338
N5    N     N_R   0.495207 0.350168 0.430744 0.145308
O57   O     O_R   0.537250 0.378536 0.400248 -0.338622
O58   O     O_R   0.508668 0.309310 0.423837 -0.291393
N6    N     N_R   0.505017 0.350195 0.568565 0.145158
O59   O     O_R   0.462885 0.378595 0.599214 -0.339402
O60   O     O_R   0.491705 0.309348 0.575169 -0.291665
N7    N     N_R   0.991522 0.849807 0.440983 0.140146
O61   O     O_R   0.036807 0.876370 0.399002 -0.334541
O62   O     O_R   0.000249 0.809848 0.449311 -0.305150
N8    N     N_R   0.995157 0.863958 0.614331 0.146398
O63   O     O_R   0.965815 0.873549 0.593457 -0.320810
O64   O     O_R   0.966618 0.844782 0.685028 -0.316609
N9    N     N_R   0.215096 0.398814 0.654055 0.136518
O65   O     O_R   0.172613 0.426988 0.704245 -0.276699
O66   O     O_R   0.207176 0.358730 0.677968 -0.361736
N10   N     N_R   0.784893 0.398765 0.346346 0.137119
O67   O     O_R   0.827259 0.426957 0.296502 -0.283733
O68   O     O_R   0.793079 0.358689 0.322075 -0.361220
N11   N     N_R   0.716213 0.903230 0.645014 0.137156
O69   O     O_R   0.674811 0.932690 0.691022 -0.286846
O70   O     O_R   0.705668 0.863848 0.673117 -0.355143
N12   N     N_R   0.291245 0.897488 0.330992 0.140548
O71   O     O_R   0.330478 0.928539 0.288983 -0.287477
O72   O     O_R   0.307033 0.858053 0.302236 -0.356133
N13   N     N_R   0.259812 0.422856 0.516562 0.126804
O73   O     O_R   0.304476 0.434496 0.439915 -0.345694
O74   O     O_R   0.206504 0.419125 0.543728 -0.265080
N14   N     N_R   0.739684 0.422774 0.484207 0.125198
O75   O     O_R   0.694821 0.434369 0.560913 -0.347285
O76   O     O_R   0.792928 0.419087 0.457285 -0.268020
N15   N     N_R   0.765930 0.923698 0.503662 0.125018
O77   O     O_R   0.812485 0.933439 0.426619 -0.346809
O78   O     O_R   0.713488 0.920631 0.527962 -0.268160
N16   N     N_R   0.233245 0.916557 0.475944 0.125433
O79   O     O_R   0.183903 0.925404 0.551939 -0.356015
O80   O     O_R   0.283921 0.915922 0.456982 -0.266105
N17   N     N_3   0.190046 0.053869 0.386076 -0.570414
H41   H     H_    0.219329 0.067180 0.326476 0.238618
H42   H     H_    0.216231 0.038900 0.394230 0.235064
N18   N     N_3   0.809270 0.056130 0.618836 -0.566796
H43   H     H_    0.781760 0.070595 0.677450 0.238702
H44   H     H_    0.781222 0.041335 0.613890 0.232011
N19   N     N_3   0.691147 0.561505 0.369674 -0.534520
H45   H     H_    0.685086 0.531111 0.394874 0.213725
H46   H     H_    0.737293 0.567838 0.327204 0.232778
N20   N     N_3   0.306297 0.560911 0.627884 -0.555716
H47   H     H_    0.321490 0.529831 0.602941 0.224340
H48   H     H_    0.313022 0.566493 0.667331 0.251167
N21   N     N_R   0.019263 0.208104 0.666722 0.167118
O81   O     O_R   0.997682 0.183304 0.729365 -0.290364
O82   O     O_R   0.014124 0.249949 0.676622 -0.272854
N22   N     N_R   0.980788 0.205391 0.327978 0.166593
O83   O     O_R   0.000154 0.179754 0.267206 -0.280652
O84   O     O_R   0.987236 0.247062 0.315986 -0.274392
N23   N     N_R   0.518997 0.702711 0.678421 0.164569
O85   O     O_R   0.502463 0.676555 0.736966 -0.299284
O86   O     O_R   0.510369 0.744175 0.692829 -0.268505
N24   N     N_R   0.481409 0.703531 0.324156 0.167368
O87   O     O_R   0.499635 0.677326 0.264632 -0.278980
O88   O     O_R   0.488960 0.745057 0.310517 -0.272744

loop_
_geom_bond_atom_site_label_1
_geom_bond_atom_site_label_2
_geom_bond_distance
_ccdc_geom_bond_type
C39   C43   1.390510 A    
C74   C78   1.401258 A    
O35   C123  1.281618 A    
O35   Cu11  1.972766 S    
O33   Cu9   1.972766 S    
C6    C34   1.439776 S    
C38   C58   1.382335 A    
O40   Cu11  1.976020 S    
C104  N8    1.439415 S    
C56   C128  1.455924 S    
C47   H11   1.083999 S    
C70   C77   1.406540 A    
N8    O64   1.301455 A    
N15   O77   1.302014 A    
N6    O59   1.298951 A    
Cu6   O22   1.973713 S    
N16   O79   1.302213 A    
O42   C126  1.282176 A    
C120  N16   1.469674 S    
C26   H6    1.083396 S    
O4    C4    1.295253 A    
C120  N12   1.466481 S    
C107  C111  1.384071 A    
C73   C77   1.400974 A    
H2    C17   1.083401 S    
C103  N7    1.441213 S    
N24   O88   1.300360 A    
C39   C67   1.494225 S    
C32   C35   1.208767 T    
Cu1   Cu5   2.688881 S    
N4    O56   1.300480 A    
C98   C102  1.416820 A    
C63   H15   1.112227 S    
Cu3   Cu7   2.688881 S    
C69   C78   1.405729 A    
Cu4   Cu8   2.690437 S    
C23   C31   1.444604 S    
C38   C42   1.390965 A    
Cu1   O25   1.940510 S    
C99   H31   1.083207 S    
Cu3   O19   1.972543 S    
Cu4   O28   1.939986 S    
O44   Cu10  1.972177 S    
Cu5   O29   1.940347 S    
C114  C118  1.545123 S    
O15   C7    1.298826 A    
O44   C128  1.279695 A    
N1    O49   1.301536 A    
O11   Cu3   1.940350 S    
Cu11  Cu12  2.644282 S    
O40   C124  1.275781 A    
O36   C124  1.280941 A    
N2    O52   1.300872 A    
O9    C5    1.298782 A    
O37   Cu10  1.974362 S    
O2    Cu2   1.973808 S    
O10   Cu2   1.940898 S    
C37   C65   1.493664 S    
C106  C110  1.385889 A    
O6    Cu6   1.971547 S    
N14   O76   1.301319 A    
C48   C52   1.399030 A    
C71   N3    1.440691 S    
N24   O87   1.302303 A    
N11   O70   1.301696 A    
C14   C86   1.437704 S    
C103  C107  1.425734 A    
C70   N2    1.442493 S    
N20   H48   1.044761 S    
C22   C26   1.402155 A    
C29   C34   1.208760 T    
N22   O84   1.300383 A    
C25   C26   1.400879 A    
O3    C3    1.294494 A    
O45   Cu12  1.973863 S    
C3    C43   1.443346 S    
O39   Cu12  1.974362 S    
C46   C50   1.405444 A    
C117  N9    1.467016 S    
C113  H37   1.111429 S    
C93   C97   1.410311 A    
C108  C112  1.396079 A    
C52   N20   1.431601 S    
O23   C11   1.291599 A    
C13   C85   1.437763 S    
C10   C94   1.442226 S    
C16   C88   1.437527 S    
N23   O86   1.300319 A    
C15   C87   1.438034 S    
C20   C24   1.402142 A    
C90   C118  1.494735 S    
N9    O65   1.301015 A    
C62   H18   1.111714 S    
C116  H40   1.111836 S    
C44   C48   1.400376 A    
N5    O57   1.298960 A    
C71   C75   1.413577 A    
N10   O68   1.301681 A    
C67   H23   1.113401 S    
C101  C105  1.430632 A    
C65   H21   1.113251 S    
C58   C62   1.495446 S    
C9    C93   1.442941 S    
O20   C12   1.295477 A    
C102  N6    1.445000 S    
O29   C13   1.298689 A    
N17   H41   1.045479 S    
O39   C123  1.282003 A    
C117  N13   1.467768 S    
C72   C79   1.406147 A    
O33   C121  1.282239 A    
C47   C51   1.406598 A    
C71   C80   1.405590 A    
C18   C22   1.402144 A    
C67   N23   1.462300 S    
N18   H43   1.045481 S    
C107  C124  1.437473 S    
C64   C68   1.522661 S    
C105  C122  1.440573 S    
O5    C1    1.291783 A    
C17   C21   1.402159 A    
O38   C122  1.276211 A    
O8    C4    1.291754 A    
N21   O81   1.302285 A    
O19   C11   1.296540 A    
C11   C95   1.445716 S    
N13   O74   1.301323 A    
O25   C13   1.298012 A    
C61   C65   1.523940 S    
O27   C15   1.298001 A    
Cu2   Cu6   2.690437 S    
C63   C67   1.521650 S    
C45   H9    1.083975 S    
C60   C64   1.495960 S    
Cu2   O26   1.939986 S    
C99   C103  1.415553 A    
O16   Cu8   1.940156 S    
C100  C104  1.408345 A    
C53   C57   1.396607 A    
C65   N21   1.463088 S    
O14   C6    1.299153 A    
C55   C59   1.397077 A    
C4    C44   1.442118 S    
C51   C55   1.418485 A    
C113  C117  1.545144 S    
N12   O71   1.301145 A    
Cu6   O30   1.940902 S    
C116  C120  1.527920 S    
O10   C6    1.299365 A    
O3    Cu3   1.974924 S    
C27   C28   1.400882 A    
C76   C84   1.446921 S    
C105  C109  1.386248 A    
C48   H12   1.084249 S    
C75   C83   1.446425 S    
N6    O60   1.301732 A    
N16   O80   1.301379 A    
O47   Cu10  1.973863 S    
C41   C45   1.404165 A    
C17   C18   1.400869 A    
C43   C47   1.400467 A    
C19   C20   1.400871 A    
C55   C127  1.457169 S    
C104  C108  1.421684 A    
C2    C42   1.444696 S    
C61   H13   1.111338 S    
N19   H45   1.041793 S    
C119  N15   1.467707 S    
C118  N14   1.467774 S    
Cu1   O17   1.972543 S    
C118  N10   1.467010 S    
C24   C32   1.444614 S    
O13   Cu5   1.940683 S    
O15   Cu7   1.940683 S    
O34   Cu10  1.973369 S    
C7    C35   1.439787 S    
C92   C96   1.390789 A    
C49   N17   1.432043 S    
C37   C57   1.382501 A    
C39   C59   1.384120 A    
C46   H10   1.084019 S    
O17   C9    1.296184 A    
O32   C16   1.299623 A    
C110  C114  1.491616 S    
C94   C98   1.410343 A    
O41   C125  1.282105 A    
C82   C85   1.207975 T    
N3    O53   1.301519 A    
C25   H5    1.083397 S    
C119  N11   1.466995 S    
C40   C68   1.493750 S    
C102  C106  1.430383 A    
C76   C80   1.401161 A    
Cu7   O31   1.940347 S    
C97   H29   1.083067 S    
Cu8   O32   1.940902 S    
C66   N22   1.463028 S    
C89   C109  1.349281 A    
C114  H34   1.111687 S    
C42   C46   1.403264 A    
N7    O62   1.301554 A    
C22   C30   1.444606 S    
C91   C119  1.497003 S    
O1    C1    1.296568 A    
C92   C120  1.502629 S    
O45   C125  1.281717 A    
C69   N1    1.441299 S    
C70   C74   1.415267 A    
C1    C41   1.446620 S    
N23   O85   1.302272 A    
C37   C41   1.391522 A    
N8    O63   1.300210 A    
C56   C60   1.397222 A    
C115  H39   1.111576 S    
O43   Cu9   1.972777 S    
C75   C79   1.400530 A    
C81   C86   1.207904 T    
C66   H22   1.113281 S    
C111  C115  1.490422 S    
C21   C29   1.444604 S    
O21   C9    1.290515 A    
O28   C16   1.297884 A    
C84   C87   1.208126 T    
C96   C100  1.403647 A    
O30   C14   1.299492 A    
O38   Cu9   1.976020 S    
C38   C66   1.493676 S    
C83   C88   1.207778 T    
C12   C96   1.445720 S    
C45   C49   1.405942 A    
C89   C93   1.379983 A    
O46   Cu11  1.972204 S    
C52   C56   1.421656 A    
H26   C77   1.083994 S    
C69   C73   1.413803 A    
N4    O55   1.301599 A    
C64   H16   1.112208 S    
C72   C76   1.415293 A    
C50   N18   1.431876 S    
O6    C2    1.291973 A    
C74   C82   1.446670 S    
N1    O50   1.300995 A    
O26   C14   1.298105 A    
C30   C33   1.208764 T    
C31   C36   1.208757 T    
C21   C25   1.402141 A    
N2    O51   1.301598 A    
C23   C27   1.402140 A    
O13   C5    1.298815 A    
O47   C127  1.284990 A    
C40   C60   1.383329 A    
Cu3   O27   1.940510 S    
C100  H32   1.083740 S    
N14   O75   1.302034 A    
Cu4   O20   1.971427 S    
Cu5   O21   1.974826 S    
C114  H38   1.111373 S    
H25   C78   1.084060 S    
O12   Cu4   1.940898 S    
N19   H46   1.045636 S    
C28   H8    1.083397 S    
C73   C81   1.446612 S    
H1    C18   1.083398 S    
O7    C3    1.292140 A    
H3    C20   1.083399 S    
H4    C19   1.083402 S    
O41   Cu11  1.972777 S    
N22   O83   1.302312 A    
N18   H44   1.045221 S    
N20   H47   1.042312 S    
C53   C125  1.453228 S    
C61   H17   1.111696 S    
C97   C101  1.417175 A    
C63   H19   1.111760 S    
Cu2   O18   1.971427 S    
O16   C8    1.299140 A    
O14   Cu6   1.940156 S    
O36   Cu12  1.973369 S    
O42   Cu12  1.972177 S    
N13   O73   1.302033 A    
C115  C119  1.546568 S    
C24   C28   1.402162 A    
O11   C7    1.298769 A    
O12   C8    1.299373 A    
O1    Cu1   1.974924 S    
N3    O54   1.300859 A    
O9    Cu1   1.940350 S    
O34   C122  1.282274 A    
C51   N19   1.436425 S    
O4    Cu4   1.973808 S    
O46   C126  1.281848 A    
O5    Cu5   1.972663 S    
C49   C53   1.412977 A    
C19   C23   1.402161 A    
O18   C10   1.296627 A    
O7    Cu7   1.972663 S    
O8    Cu8   1.971547 S    
C40   C44   1.390720 A    
N9    O66   1.301676 A    
C109  C113  1.492026 S    
N12   O72   1.301753 A    
O24   C12   1.293323 A    
C112  C116  1.495081 S    
C106  C121  1.439734 S    
N5    O58   1.301735 A    
C108  C123  1.453408 S    
C95   C99   1.412264 A    
O37   C121  1.275863 A    
N10   O67   1.301016 A    
C72   N4    1.441758 S    
Cu9   Cu10  2.644282 S    
C90   C110  1.348926 A    
C68   N24   1.462685 S    
C62   C66   1.523589 S    
C5    C33   1.439783 S    
N17   H42   1.045355 S    
C91   C95   1.383419 A    
N11   O69   1.301024 A    
O2    C2    1.296357 A    
O48   C128  1.285441 A    
O31   C15   1.298846 A    
C54   C58   1.396949 A    
N15   O78   1.301320 A    
C115  H35   1.111692 S    
C68   H24   1.113316 S    
C113  H33   1.111694 S    
O43   C127  1.280651 A    
N7    O61   1.299756 A    
O22   C10   1.290656 A    
C57   C61   1.495335 S    
C8    C36   1.439767 S    
C27   H7    1.083397 S    
C54   C126  1.453597 S    
N21   O82   1.300420 A    
C98   H30   1.083069 S    
Cu7   O23   1.974826 S    
O48   Cu9   1.972204 S    
C50   C54   1.413552 A    
Cu8   O24   1.973713 S    
C89   C117  1.494744 S    
H28   C79   1.084023 S    
C90   C94   1.379763 A    
C62   H14   1.111332 S    
C101  N5    1.445059 S    
C116  H36   1.111898 S    
H27   C80   1.084063 S    
C64   H20   1.111742 S    
C59   C63   1.495783 S    
C91   C111  1.350002 A    
C92   C112  1.379367 A    
