data_mof_unit_57708.cif
_audit_creation_date              2012-12-11T17:36:24-0500
_audit_creation_method            fapswitch 2.2
_symmetry_space_group_name_H-M    P1
_symmetry_Int_Tables_number       1
_space_group_crystal_system       triclinic
_cell_length_a                    25.746613
_cell_length_b                    6.904451
_cell_length_c                    21.703425
_cell_angle_alpha                 89.999779
_cell_angle_beta                  96.356023
_cell_angle_gamma                 89.999745
_cell_volume                      3834.42074082

loop_
_atom_site_label
_atom_site_type_symbol
_atom_type_description
_atom_site_fract_x
_atom_site_fract_y
_atom_site_fract_z
_atom_type_partial_charge
O1    O     O_R   0.208650 0.594520 0.175450 -0.534427
O2    O     O_R   0.791350 0.405480 0.824550 -0.535031
O3    O     O_R   0.291350 0.094520 0.324550 -0.534427
O4    O     O_R   0.708650 0.905480 0.675450 -0.535032
O5    O     O_R   0.192980 0.260780 0.300160 -0.540806
O6    O     O_R   0.807020 0.739220 0.699840 -0.540082
O7    O     O_R   0.307020 0.760780 0.199840 -0.540807
O8    O     O_R   0.692980 0.239220 0.800160 -0.540080
C1    C     C_R   0.178743 0.432866 0.318356 0.685826
C2    C     C_R   0.821209 0.567144 0.681579 0.687126
C3    C     C_R   0.321256 0.932866 0.181644 0.685829
C4    C     C_R   0.678791 0.067144 0.818421 0.687131
O9    O     O_R   0.202550 0.264660 0.174420 -0.536421
O10   O     O_R   0.797450 0.735340 0.825580 -0.536789
O11   O     O_R   0.297450 0.764660 0.325580 -0.536421
O12   O     O_R   0.702550 0.235340 0.674420 -0.536788
O13   O     O_R   0.300990 0.096480 0.197920 -0.539051
O14   O     O_R   0.699010 0.903520 0.802080 -0.539117
O15   O     O_R   0.199010 0.596480 0.302080 -0.539051
O16   O     O_R   0.800990 0.403520 0.697920 -0.539119
C5    C     C_R   0.190904 0.433001 0.151007 0.698192
C6    C     C_R   0.809255 0.566456 0.848837 0.699740
C7    C     C_R   0.309096 0.933000 0.348993 0.698191
C8    C     C_R   0.690745 0.066457 0.651163 0.699745
O17   O     O_3   0.282290 0.427760 0.257860 -0.363687
O18   O     O_3   0.717710 0.572240 0.742140 -0.363461
O19   O     O_3   0.217710 0.927760 0.242140 -0.363688
O20   O     O_3   0.782290 0.072240 0.757860 -0.363464
V1    V     V_3+5 0.244010 0.152080 0.248540 1.421453
V2    V     V_3+5 0.755990 0.847920 0.751460 1.427953
V3    V     V_3+5 0.255990 0.652080 0.251460 1.421453
V4    V     V_3+5 0.744010 0.347920 0.748540 1.427959
C9    C     C_R   0.657491 0.057468 0.591272 -0.047694
C10   C     C_R   0.343121 0.933535 0.408467 -0.048417
C11   C     C_R   0.842510 0.557457 0.908727 -0.047688
C12   C     C_R   0.156880 0.433546 0.091533 -0.048409
C13   C     C_R   0.649148 0.085153 0.479623 -0.148559
C14   C     C_R   0.356627 0.820259 0.514422 -0.147226
C15   C     C_R   0.850847 0.585027 0.020379 -0.148553
C16   C     C_R   0.143382 0.320361 0.985568 -0.147224
C17   C     C_R   0.679451 0.097687 0.536744 -0.162026
C18   C     C_R   0.323454 0.856805 0.460660 -0.155519
C19   C     C_R   0.820545 0.597595 0.963258 -0.162024
C20   C     C_R   0.176552 0.356878 0.039334 -0.155527
C21   C     C_R   0.604382 0.005958 0.588102 -0.228538
C22   C     C_R   0.396888 0.974732 0.410913 -0.232011
C23   C     C_R   0.895621 0.505990 0.911895 -0.228549
C24   C     C_R   0.103110 0.474706 0.089089 -0.232010
C25   C     C_R   0.573513 0.978497 0.530061 0.078649
C26   C     C_R   0.432499 0.919105 0.463058 0.080073
C27   C     C_R   0.926489 0.478486 0.969934 0.078652
C28   C     C_R   0.067504 0.419109 0.036937 0.080073
C29   C     C_R   0.596552 0.027348 0.475845 0.102402
C30   C     C_R   0.410753 0.848778 0.515927 0.104076
C31   C     C_R   0.903446 0.527260 0.024153 0.102403
C32   C     C_R   0.089255 0.348850 0.984062 0.104075
C33   C     C_R   0.520072 0.913256 0.524043 -0.031497
C34   C     C_R   0.488534 0.934321 0.465330 -0.032942
C35   C     C_R   0.979932 0.413273 0.975947 -0.031500
C36   C     C_R   0.011468 0.434293 0.034664 -0.032943
C37   C     C_R   0.514955 0.959345 0.411419 -0.017590
C38   C     C_R   0.497275 0.819531 0.573080 -0.015444
C39   C     C_R   0.985044 0.459243 0.088576 -0.017591
C40   C     C_R   0.002735 0.319615 0.926902 -0.015443
C41   C     C_R   0.567782 0.011886 0.417793 -0.178929
C42   C     C_R   0.443063 0.796325 0.569050 -0.173300
C43   C     C_R   0.932215 0.511754 0.082204 -0.178925
C44   C     C_R   0.056948 0.296435 0.930933 -0.173304
H1    H     H_    0.587449 0.034626 0.376680 0.165623
H2    H     H_    0.425799 0.727989 0.606941 0.165592
H3    H     H_    0.912546 0.534436 0.123319 0.165624
H4    H     H_    0.074216 0.228149 0.893036 0.165593
H5    H     H_    0.409886 0.047448 0.371402 0.113931
H6    H     H_    0.587705 0.994379 0.631431 0.114751
H7    H     H_    0.090109 0.547376 0.128605 0.113924
H8    H     H_    0.912300 0.494470 0.868565 0.114746
H9    H     H_    0.282322 0.821674 0.459352 0.104950
H10   H     H_    0.720184 0.139043 0.538435 0.105950
H11   H     H_    0.217686 0.321777 0.040641 0.104947
H12   H     H_    0.779809 0.638913 0.961569 0.105946
H13   H     H_    0.667099 0.119151 0.438057 0.119615
H14   H     H_    0.340075 0.762004 0.554322 0.118701
H15   H     H_    0.832893 0.618962 0.061947 0.119614
H16   H     H_    0.159937 0.262157 0.945663 0.118701
C45   C     C_R   0.427723 0.793702 0.079877 -0.116598
C46   C     C_R   0.573006 0.206425 0.921131 -0.122001
C47   C     C_R   0.072277 0.293703 0.420123 -0.116593
C48   C     C_R   0.926994 0.706425 0.578870 -0.121999
H17   H     H_    0.446022 0.663192 0.064916 0.106568
H18   H     H_    0.555036 0.337010 0.936551 0.108106
H19   H     H_    0.053977 0.163193 0.435083 0.106568
H20   H     H_    0.944964 0.837009 0.563449 0.108106
C49   C     C_R   0.388409 0.778747 0.119756 -0.153966
C50   C     C_R   0.612195 0.221389 0.881085 -0.155942
C51   C     C_R   0.111591 0.278748 0.380244 -0.153955
C52   C     C_R   0.887805 0.721388 0.618915 -0.155945
H21   H     H_    0.377298 0.636404 0.134596 0.118257
H22   H     H_    0.623564 0.363816 0.866606 0.121700
H23   H     H_    0.122701 0.136405 0.365403 0.118256
H24   H     H_    0.876435 0.863816 0.633394 0.121699
C53   C     C_R   0.363718 0.945811 0.139918 -0.053603
C54   C     C_R   0.636444 0.054215 0.860307 -0.057751
C55   C     C_R   0.136282 0.445811 0.360082 -0.053603
C56   C     C_R   0.863556 0.554215 0.639693 -0.057750
C57   C     C_R   0.379721 0.127763 0.119135 -0.152579
C58   C     C_R   0.620150 0.872158 0.880682 -0.150369
C59   C     C_R   0.120280 0.627763 0.380866 -0.152589
C60   C     C_R   0.879850 0.372158 0.619318 -0.150363
H25   H     H_    0.361824 0.259950 0.133354 0.120330
H26   H     H_    0.637706 0.739886 0.865988 0.122769
H27   H     H_    0.138177 0.759949 0.366648 0.120331
H28   H     H_    0.862295 0.239886 0.634013 0.122768
C61   C     C_R   0.418912 0.142217 0.079391 -0.122459
C62   C     C_R   0.581080 0.857697 0.920590 -0.123638
C63   C     C_R   0.081088 0.642217 0.420610 -0.122464
C64   C     C_R   0.918920 0.357697 0.579410 -0.123631
H29   H     H_    0.430224 0.283938 0.064108 0.105195
H30   H     H_    0.569518 0.715888 0.935521 0.106480
H31   H     H_    0.069777 0.783937 0.435894 0.105197
H32   H     H_    0.930483 0.215887 0.564480 0.106479
C65   C     C_R   0.443122 0.975589 0.059381 0.130810
C66   C     C_R   0.557291 0.024423 0.941184 0.127217
C67   C     C_R   0.056878 0.475589 0.440619 0.130810
C68   C     C_R   0.942709 0.524422 0.558817 0.127217
C69   C     C_1   0.483437 0.992318 0.017737 -0.047534
C70   C     C_1   0.517026 0.007664 0.982893 -0.047505
C71   C     C_1   0.016563 0.492318 0.482263 -0.047532
C72   C     C_1   0.982974 0.507663 0.517108 -0.047503
C73   C     C_2   0.492034 0.896842 0.348721 0.362190
H33   H     H_    0.461227 0.788885 0.343708 0.052920
O21   O     O_2   0.507907 0.962297 0.301978 -0.521438
C74   C     C_2   0.528928 0.711646 0.623310 0.362194
H34   H     H_    0.567960 0.662150 0.616852 0.057029
O22   O     O_2   0.511488 0.673602 0.671996 -0.522429
C75   C     C_2   0.007966 0.396688 0.151269 0.362192
H35   H     H_    0.038778 0.288748 0.156273 0.052921
O23   O     O_2   0.992088 0.462079 0.198017 -0.521436
C76   C     C_2   0.971088 0.211767 0.876659 0.362192
H36   H     H_    0.932057 0.162239 0.883110 0.057025
O24   O     O_2   0.988531 0.173789 0.827970 -0.522427

loop_
_geom_bond_atom_site_label_1
_geom_bond_atom_site_label_2
_ccdc_geom_bond_type
O17   V3    S    
C48   C52   A    
O1    C5    A    
C47   H19   S    
O19   V1    S    
C9    C21   A    
C16   H16   S    
O3    C7    A    
C10   C18   A    
C48   C68   A    
C11   C23   A    
C25   C33   A    
C75   H35   S    
C5    C12   S    
C40   C76   S    
O7    C3    A    
C6    C11   S    
O5    C1    A    
C26   C30   A    
C58   C62   A    
C36   C39   A    
C40   C44   A    
C57   C61   A    
C23   H8    S    
C14   C18   A    
C58   H26   S    
O4    C8    A    
C51   H23   S    
C44   H4    S    
C50   H22   S    
O1    V3    S    
O13   V1    S    
C31   C43   A    
O2    V4    S    
O3    V1    S    
C46   C50   A    
C65   C69   S    
C45   C49   A    
C1    O15   A    
C15   C31   A    
C48   H20   S    
C2    O16   A    
C74   H34   S    
C16   C32   A    
C47   C51   A    
O2    C6    A    
C45   C65   A    
C10   C22   A    
C11   C19   A    
C16   C20   A    
C43   H3    S    
C37   C73   S    
C68   C72   S    
C13   C29   A    
C34   C37   A    
O11   C7    A    
O15   V3    S    
C35   C36   A    
O12   C8    A    
C14   H14   S    
C53   C57   A    
C24   H7    S    
C13   H13   S    
O10   V2    S    
C51   C55   A    
O5    V1    S    
O17   V1    S    
C39   C43   A    
C63   C67   A    
C38   C42   A    
O19   V3    S    
O8    V4    S    
C38   C74   S    
O20   V4    S    
O7    V3    S    
C46   H18   S    
C49   C53   A    
C17   H10   S    
C45   H17   S    
O18   V4    S    
C15   C19   A    
C33   C38   A    
C19   H12   S    
C32   C44   A    
C64   H32   S    
C21   H6    S    
C26   C34   A    
C66   C70   S    
C4    C54   S    
C37   C41   A    
C67   C71   S    
C14   C30   A    
C21   C25   A    
O8    C4    A    
C7    C10   S    
C35   C40   A    
O9    C5    A    
C3    C53   S    
C59   C63   A    
C62   H30   S    
C76   O24   D    
C61   H29   S    
C74   O22   D    
O6    V2    S    
O18   V2    S    
C63   H31   S    
C52   C56   A    
C69   C70   T    
C12   C20   A    
C27   C35   A    
C71   C72   T    
C49   H21   S    
C56   C60   A    
C29   C41   A    
C73   H33   S    
O16   V4    S    
O9    V1    S    
C75   O23   D    
C57   H25   S    
C3    O13   A    
C64   C68   A    
C59   H27   S    
C20   H11   S    
O6    C2    A    
C23   C27   A    
O11   V3    S    
C30   C42   A    
O12   V4    S    
C22   C26   A    
C8    C9    S    
C9    C17   A    
O10   C6    A    
C2    C56   S    
C15   H15   S    
C47   C67   A    
C60   C64   A    
C33   C34   A    
C42   H2    S    
C41   H1    S    
C52   H24   S    
O20   V2    S    
C1    C55   S    
C12   C24   A    
C27   C31   A    
C13   C17   A    
C46   C66   A    
C25   C29   A    
C76   H36   S    
O14   V2    S    
C62   C66   A    
C60   H28   S    
C24   C28   A    
C61   C65   A    
C50   C54   A    
C18   H9    S    
C28   C36   A    
C54   C58   A    
C4    O14   A    
C55   C59   A    
C22   H5    S    
O4    V2    S    
C28   C32   A    
C39   C75   S    
C73   O21   D    
