data_mof_unit_38750.cif
_audit_creation_date              2013-03-05T16:46:59-0500
_audit_creation_method            fapswitch 2.2
_symmetry_space_group_name_H-M    P1
_symmetry_Int_Tables_number       1
_space_group_crystal_system       triclinic
_cell_length_a                    14.960226
_cell_length_b                    9.127651
_cell_length_c                    8.107005
_cell_angle_alpha                 90.000482
_cell_angle_beta                  90.000689
_cell_angle_gamma                 90.022227
_cell_volume                      1107.02540805

loop_
_atom_site_label
_atom_site_type_symbol
_atom_site_description
_atom_site_fract_x
_atom_site_fract_y
_atom_site_fract_z
_atom_type_partial_charge
O1    O     O_R   0.500000 0.285350 0.636850 -0.609965
O2    O     O_R   0.500000 0.714650 0.363150 -0.610048
O3    O     O_R   0.500000 0.714650 0.636850 -0.610040
O4    O     O_R   0.500000 0.285350 0.363150 -0.610154
C1    C     C_R   0.499996 0.217656 0.499999 0.982594
C2    C     C_R   0.500008 0.782343 0.500000 0.982684
O5    O     O_R   0.367850 0.500000 0.636890 -0.602000
O6    O     O_R   0.632150 0.500000 0.363110 -0.602118
O7    O     O_R   0.632150 0.500000 0.636890 -0.602131
O8    O     O_R   0.367850 0.500000 0.363110 -0.602293
C3    C     C_R   0.326826 0.499925 0.499999 1.007211
C4    C     C_R   0.673174 0.500077 0.500002 1.007104
Zn1   Zn    Zn3+2 0.500000 0.500000 0.682780 1.096137
Zn2   Zn    Zn3+2 0.500000 0.500000 0.317220 1.095999
N1    N     N_1   0.500000 0.500000 0.073640 -0.004282
N2    N     N_1   0.500000 0.500000 0.926360 -0.004261
C5    C     C_R   0.813089 0.633875 0.495896 0.354731
C6    C     C_R   0.186874 0.366248 0.496417 0.354709
C7    C     C_R   0.813034 0.366363 0.504217 0.354784
C8    C     C_R   0.187013 0.633828 0.503754 0.354888
C9    C     C_R   0.768229 0.500111 0.500015 -0.260862
C10   C     C_R   0.231768 0.500002 0.499998 -0.261044
C11   C     C_R   0.906365 0.365930 0.494054 -0.089404
C12   C     C_R   0.093657 0.634339 0.493565 -0.089395
C13   C     C_R   0.906429 0.634336 0.506130 -0.089353
C14   C     C_R   0.093543 0.365904 0.506498 -0.089312
C15   C     C_R   0.953096 0.500141 0.500052 -0.099581
C16   C     C_R   0.046908 0.500135 0.499988 -0.099620
C17   C     C_R   0.954468 0.235230 0.481511 0.423499
C18   C     C_R   0.045507 0.765042 0.480999 0.422551
C19   C     C_R   0.954603 0.765018 0.518836 0.423238
C20   C     C_R   0.045342 0.235270 0.519544 0.423660
C21   C     C_1   0.500000 0.064775 0.499999 -0.046929
C22   C     C_1   0.500005 0.935225 0.500001 -0.046889
Cl1   Cl    Cl    0.915097 0.101660 0.342072 -0.363343
Cl2   Cl    Cl    0.085226 0.899878 0.343403 -0.362950
Cl3   Cl    Cl    0.915170 0.898656 0.657953 -0.363168
Cl4   Cl    Cl    0.084510 0.102302 0.659780 -0.363046
Cl5   Cl    Cl    0.751037 0.796731 0.459016 -0.450470
Cl6   Cl    Cl    0.248891 0.203153 0.460550 -0.450119
Cl7   Cl    Cl    0.750931 0.203472 0.541110 -0.450454
Cl8   Cl    Cl    0.249274 0.796602 0.540613 -0.450558

loop_
_geom_bond_atom_site_label_1
_geom_bond_atom_site_label_2
_geom_bond_distance
_ccdc_geom_bond_type
O3    Zn1   1.994322 S    
C13   C19   1.397201 A    
C8    Cl8   1.778542 S    
C14   C20   1.397234 A    
C11   C15   1.411082 A    
C13   C15   1.410974 A    
C17   Cl1   1.763698 S    
C3    C10   1.422093 S    
C14   C16   1.411153 A    
C6    C14   1.398644 A    
C18   Cl2   1.763966 S    
O6    C4    1.268175 A    
O3    C2    1.269901 A    
C5    C13   1.398851 A    
C21   C22   1.182495 T    
C7    Cl7   1.778261 S    
C6    C10   1.393474 A    
O5    C3    1.268168 A    
O2    C2    1.269897 A    
O1    C1    1.269898 A    
C11   C17   1.397170 A    
C7    C9    1.393361 A    
C8    C10   1.393539 A    
C17   C20   1.394014 A    
C20   Cl4   1.763366 S    
O4    Zn2   1.994323 S    
C18   C19   1.394113 A    
O2    Zn2   1.994316 S    
O7    C4    1.268159 A    
C12   C18   1.397569 A    
O1    Zn1   1.994316 S    
O8    C3    1.268166 A    
N1    N2    1.193999 T    
C2    C22   1.395445 S    
O5    Zn1   2.011689 S    
O7    Zn1   2.011697 S    
C5    Cl5   1.778163 S    
Zn1   N2    1.974704 S    
O8    Zn2   2.011698 S    
C8    C12   1.399084 A    
C7    C11   1.398690 A    
C6    Cl6   1.778360 S    
O6    Zn2   2.011688 S    
Zn2   N1    1.974704 S    
C4    C9    1.422047 S    
C5    C9    1.393418 A    
C12   C16   1.411285 A    
C19   Cl3   1.763075 S    
O4    C1    1.269901 A    
C15   C16   1.403440 A    
C1    C21   1.395445 S    
