data_mof_unit_43065.cif
_audit_creation_date              2012-12-10T16:49:25-0500
_audit_creation_method            fapswitch 2.2
_symmetry_space_group_name_H-M    P1
_symmetry_Int_Tables_number       1
_space_group_crystal_system       triclinic
_cell_length_a                    7.819707
_cell_length_b                    8.556378
_cell_length_c                    12.812352
_cell_angle_alpha                 90.131823
_cell_angle_beta                  88.26106
_cell_angle_gamma                 94.014117
_cell_volume                      854.756749969

loop_
_atom_site_label
_atom_site_type_symbol
_atom_type_description
_atom_site_fract_x
_atom_site_fract_y
_atom_site_fract_z
_atom_type_partial_charge
C1    C     C_R   0.454522 0.205435 0.497551 0.984747
C2    C     C_R   0.651253 0.361767 0.140820 -0.015947
C3    C     C_R   0.546959 0.429579 0.868443 -0.279607
C4    C     C_R   0.453040 0.570420 0.131557 -0.279607
C5    C     C_R   0.550366 0.445102 0.975119 0.181730
C6    C     C_R   0.449633 0.554896 0.024881 0.181730
C7    C     C_2   0.430998 0.041460 0.496092 -0.289158
C8    C     C_2   0.569002 0.958540 0.503908 -0.289167
C9    C     C_2   0.747893 0.246868 0.197399 0.406687
C10   C     C_2   0.252106 0.753131 0.802602 0.406688
C11   C     C_2   0.014455 0.698408 0.458046 0.699923
C12   C     C_R   0.545477 0.794565 0.502449 0.984745
C13   C     C_2   0.985549 0.301594 0.541958 0.699925
C14   C     C_R   0.467416 0.510122 0.699234 0.934185
C15   C     C_R   0.532584 0.489878 0.300766 0.934184
C16   C     C_R   0.550586 0.474150 0.189725 -0.067986
C17   C     C_R   0.449413 0.525850 0.810275 -0.067983
C18   C     C_R   0.347279 0.648431 0.967549 -0.292727
C19   C     C_R   0.652720 0.351568 0.032451 -0.292727
C20   C     C_R   0.348745 0.638232 0.859179 -0.015946
H1    H     H_    0.377096 0.656575 0.169991 0.178170
H2    H     H_    0.018143 0.230500 0.474956 0.029953
H3    H     H_    0.622903 0.343424 0.830008 0.178168
H4    H     H_    0.271491 0.733537 0.007064 0.145328
H5    H     H_    0.728507 0.266461 0.992936 0.145328
H6    H     H_    0.300907 0.989616 0.488669 0.180022
H7    H     H_    0.699093 0.010384 0.511331 0.180014
H8    H     H_    0.858085 0.198256 0.159187 0.070954
H9    H     H_    0.141914 0.801743 0.840813 0.070954
H10   H     H_    0.981845 0.769494 0.525049 0.029958
N1    N     N_2   0.054030 0.541640 0.471970 -0.185876
N2    N     N_2   0.945970 0.458360 0.528030 -0.185881
O1    O     O_R   0.609680 0.261530 0.506880 -0.603342
O2    O     O_2   0.298978 0.801902 0.716282 -0.579228
O3    O     O_2   0.027846 0.757433 0.371369 -0.612252
O4    O     O_2   0.972186 0.242581 0.628640 -0.612249
O5    O     O_R   0.390320 0.738470 0.493120 -0.603332
O6    O     O_R   0.323330 0.288220 0.488910 -0.667268
O7    O     O_R   0.676670 0.711780 0.511090 -0.667276
O8    O     O_R   0.619510 0.488830 0.661140 -0.624182
O9    O     O_R   0.380490 0.511170 0.338860 -0.624177
O10   O     O_R   0.333160 0.515520 0.643180 -0.592620
O11   O     O_R   0.666840 0.484480 0.356820 -0.592628
O12   O     O_2   0.701019 0.198096 0.283718 -0.579227
Zn1   Zn    Zn3+2 0.691200 0.482180 0.511990 0.998494
Zn2   Zn    Zn3+2 0.308800 0.517820 0.488010 0.998507

loop_
_geom_bond_atom_site_label_1
_geom_bond_atom_site_label_2
_ccdc_geom_bond_type
C4    C16   A    
O9    Zn2   S    
O7    Zn1   S    
C5    C19   A    
O1    Zn1   S    
N2    Zn1   S    
C13   N2    S    
C3    H3    S    
N1    N2    D    
C14   C17   S    
C14   O10   A    
C8    C12   S    
C12   O7    A    
C11   O3    D    
C2    C19   A    
C11   N1    S    
C7    C8    D    
C10   O2    D    
C4    H1    S    
O11   Zn1   S    
C10   H9    S    
C5    C6    A    
C7    H6    S    
C1    O6    A    
C11   H10   S    
C18   H4    S    
C13   H2    S    
C3    C17   A    
C18   C20   A    
O8    Zn1   S    
C6    C18   A    
O6    Zn2   S    
C1    O1    A    
C19   H5    S    
C15   O11   A    
C15   C16   S    
C17   C20   A    
C2    C16   A    
C15   O9    A    
C13   O4    D    
C4    C6    A    
O10   Zn2   S    
C12   O5    A    
C8    H7    S    
C9    O12   D    
O5    Zn2   S    
C1    C7    S    
C2    C9    S    
C14   O8    A    
C9    H8    S    
C10   C20   S    
C3    C5    A    
N1    Zn2   S    
