data_mof_unit_8440.cif
_audit_creation_date              2012-12-10T16:53:32-0500
_audit_creation_method            fapswitch 2.2
_symmetry_space_group_name_H-M    P1
_symmetry_Int_Tables_number       1
_space_group_crystal_system       triclinic
_cell_length_a                    7.837482
_cell_length_b                    8.570302
_cell_length_c                    13.534818
_cell_angle_alpha                 91.95626
_cell_angle_beta                  79.607679
_cell_angle_gamma                 93.627732
_cell_volume                      892.18355556

loop_
_atom_site_label
_atom_site_type_symbol
_atom_type_description
_atom_site_fract_x
_atom_site_fract_y
_atom_site_fract_z
_atom_type_partial_charge
C1    C     C_R   0.545948 0.794470 0.497477 0.956231
C2    C     C_1   0.570790 0.556732 0.123083 -0.033359
C3    C     C_2   0.570022 0.958050 0.495963 -0.386227
C4    C     C_2   0.429982 0.041921 0.504020 -0.387222
C5    C     C_R   0.262171 0.613420 0.047721 0.159984
C6    C     C_R   0.195697 0.762181 0.051919 -0.127098
C7    C     C_R   0.046635 0.795160 0.120964 -0.152859
C8    C     C_R   0.963760 0.680021 0.186237 -0.078278
C9    C     C_R   0.026456 0.530034 0.180387 -0.117816
C10   C     C_R   0.175135 0.496359 0.111019 -0.168653
C11   C     C_R   0.750550 0.622735 0.956436 0.170282
C12   C     C_R   0.454055 0.205523 0.502514 0.960307
C13   C     C_R   0.794466 0.775702 0.922843 -0.144737
C14   C     C_R   0.948732 0.808909 0.855853 -0.175537
C15   C     C_R   0.058567 0.689354 0.821203 -0.097090
C16   C     C_R   0.015327 0.536477 0.854474 -0.105025
C17   C     C_R   0.862306 0.503272 0.922908 -0.146565
C18   C     C_R   0.472288 0.505726 0.687178 0.888168
C19   C     C_R   0.528579 0.499712 0.312821 0.884707
C20   C     C_1   0.551644 0.527147 0.209586 -0.201082
C21   C     C_1   0.457145 0.533160 0.791096 -0.209244
C22   C     C_2   0.579752 0.588486 0.020211 -0.035534
C23   C     C_2   0.431975 0.588180 0.983427 -0.040392
C24   C     C_1   0.440761 0.561071 0.878756 -0.039788
H1    H     H_    0.702350 0.008910 0.488207 0.180250
H2    H     H_    0.708110 0.868614 0.947825 0.118724
H3    H     H_    0.982322 0.926916 0.830042 0.130153
H4    H     H_    0.176906 0.716442 0.768719 0.151251
H5    H     H_    0.099400 0.443252 0.827040 0.142021
H6    H     H_    0.828650 0.384537 0.947445 0.118837
H7    H     H_    0.297656 0.991049 0.511779 0.180438
H8    H     H_    0.023794 0.379643 0.425596 0.184676
H9    H     H_    0.976239 0.620367 0.574426 0.194697
H10   H     H_    0.262010 0.853625 0.003546 0.118125
H11   H     H_    0.997056 0.910680 0.125007 0.125446
H12   H     H_    0.851423 0.707917 0.241422 0.146174
H13   H     H_    0.962001 0.440420 0.230547 0.148166
H14   H     H_    0.225377 0.381178 0.108686 0.123121
N1    N     N_2   0.954190 0.457600 0.473930 -0.176618
N2    N     N_2   0.045810 0.542400 0.526070 -0.171041
O1    O     O_R   0.388300 0.738660 0.506400 -0.611151
O2    O     O_R   0.611700 0.261340 0.493600 -0.610153
O3    O     O_R   0.679920 0.711490 0.489690 -0.630328
O4    O     O_R   0.320080 0.288510 0.510310 -0.627389
O5    O     O_R   0.333200 0.515510 0.649910 -0.630215
O6    O     O_R   0.666800 0.484490 0.350090 -0.633891
O7    O     O_R   0.624820 0.488340 0.633200 -0.602048
O8    O     O_R   0.375180 0.511660 0.366800 -0.605004
Zn1   Zn    Zn3+2 0.305280 0.518140 0.511160 0.933228
Zn2   Zn    Zn3+2 0.694720 0.481860 0.488840 0.929357

loop_
_geom_bond_atom_site_label_1
_geom_bond_atom_site_label_2
_ccdc_geom_bond_type
O4    Zn1   S    
C2    C22   S    
C23   C24   S    
O3    Zn2   S    
C6    C7    A    
C14   H3    S    
C4    C12   S    
C18   C21   S    
C9    C10   A    
O6    Zn2   S    
C11   C22   S    
C19   C20   S    
C5    C23   S    
O5    Zn1   S    
C10   H14   S    
C18   O7    A    
N1    Zn2   S    
C9    H13   S    
C19   O6    A    
C5    C10   A    
C12   O4    A    
C13   C14   A    
C17   H6    S    
C11   C13   A    
C15   H4    S    
C16   C17   A    
O2    Zn2   S    
O1    Zn1   S    
O8    Zn1   S    
O7    Zn2   S    
C5    C6    A    
C13   H2    S    
C21   C24   T    
C4    H7    S    
C2    C20   T    
C15   C16   A    
H9    N2    S    
C18   O5    A    
C6    H10   S    
C7    C8    A    
C3    H1    S    
C8    H12   S    
H8    N1    S    
C1    O1    A    
N1    N2    D    
C22   C23   D    
C11   C17   A    
C12   O2    A    
C19   O8    A    
C16   H5    S    
C14   C15   A    
C7    H11   S    
C1    O3    A    
C3    C4    D    
N2    Zn1   S    
C8    C9    A    
C1    C3    S    
