data_mof_unit_59286.cif
_audit_creation_date              2013-03-05T15:52:46-0500
_audit_creation_method            fapswitch 2.2
_symmetry_space_group_name_H-M    P1
_symmetry_Int_Tables_number       1
_space_group_crystal_system       triclinic
_cell_length_a                    6.999218
_cell_length_b                    15.095547
_cell_length_c                    21.342882
_cell_angle_alpha                 73.898837
_cell_angle_beta                  89.108943
_cell_angle_gamma                 89.968548
_cell_volume                      2166.29007715

loop_
_atom_site_label
_atom_site_type_symbol
_atom_site_description
_atom_site_fract_x
_atom_site_fract_y
_atom_site_fract_z
_atom_type_partial_charge
O1    O     O_R   0.648150 0.130050 0.214300 -0.597505
O2    O     O_R   0.351850 0.869950 0.785700 -0.588996
O3    O     O_R   0.320490 0.006660 0.340150 -0.565494
O4    O     O_R   0.679510 0.993340 0.659850 -0.554335
O5    O     O_R   0.146100 0.869940 0.285700 -0.588544
O6    O     O_R   0.853900 0.130060 0.714300 -0.605126
C1    C     C_R   0.487012 0.001986 0.366819 1.118304
C2    C     C_R   0.513154 0.995386 0.633653 1.101851
O7    O     O_R   0.318690 0.137980 0.218120 -0.595460
O8    O     O_R   0.681310 0.862020 0.781880 -0.592355
O9    O     O_R   0.144280 0.002190 0.162800 -0.601438
O10   O     O_R   0.855720 0.997810 0.837200 -0.613027
C3    C     C_R   0.486901 0.174554 0.204151 0.988895
C4    C     C_R   0.513561 0.826167 0.797141 1.039649
O11   O     O_R   0.649960 0.997790 0.337200 -0.588482
O12   O     O_R   0.350040 0.002210 0.662800 -0.580558
O13   O     O_3   0.479300 0.955290 0.231990 -0.297536
O14   O     O_3   0.520700 0.044710 0.768010 -0.334399
V1    V     V_3+5 0.206040 0.008290 0.253340 1.265294
V2    V     V_3+5 0.793960 0.991710 0.746660 1.260295
O15   O     O_R   0.814320 0.993320 0.159850 -0.602501
O16   O     O_R   0.185680 0.006680 0.840150 -0.615484
C5    C     C_R   0.984385 0.997145 0.133444 1.028182
C6    C     C_R   0.015165 0.007777 0.865560 1.019375
O17   O     O_R   0.816120 0.862000 0.281880 -0.598264
O18   O     O_R   0.183880 0.138000 0.718120 -0.603209
C7    C     C_R   0.983690 0.825426 0.296085 0.951604
C8    C     C_R   0.015933 0.175212 0.705651 0.965648
V3    V     V_3+5 0.705540 0.991700 0.246660 1.229268
V4    V     V_3+5 0.294460 0.008300 0.753340 1.213480
O19   O     O_3   0.982150 0.044700 0.268010 -0.252924
O20   O     O_3   0.017850 0.955300 0.731990 -0.237223
C9    C     C_R   0.987301 0.724948 0.323225 -0.124997
C10   C     C_R   0.017148 0.276601 0.680353 -0.139348
C11   C     C_R   0.929074 0.574376 0.309677 -0.047292
C12   C     C_R   0.162109 0.418967 0.685939 -0.060907
C13   C     C_R   0.948648 0.668950 0.283049 -0.186745
C14   C     C_R   0.115405 0.327345 0.715047 -0.182180
C15   C     C_R   0.011880 0.685234 0.390192 -0.072642
C16   C     C_R   0.960552 0.320004 0.616443 -0.111349
C17   C     C_R   0.012060 0.587979 0.417692 0.134840
C18   C     C_R   0.030946 0.409298 0.582126 0.133791
C19   C     C_R   0.952708 0.533296 0.377158 -0.037076
C20   C     C_R   0.124891 0.460435 0.619441 -0.041813
C21   C     C_R   0.060045 0.544237 0.484420 -0.141314
C22   C     C_R   0.013418 0.448842 0.512591 -0.153005
C23   C     C_R   0.961268 0.395703 0.469544 0.238008
C24   C     C_R   0.164426 0.590727 0.522737 0.270087
C25   C     C_R   0.922549 0.438297 0.403618 0.221862
C26   C     C_R   0.192189 0.549851 0.589435 0.213460
H1    H     H_    0.866947 0.281124 0.594560 0.158046
H2    H     H_    0.019506 0.731898 0.420220 0.161027
H3    H     H_    0.160922 0.295026 0.764439 0.116276
H4    H     H_    0.927712 0.698825 0.231258 0.122417
H5    H     H_    0.896785 0.533796 0.276585 0.154144
H6    H     H_    0.238340 0.455051 0.715189 0.152254
C27   C     C_3   0.885317 0.940912 0.987448 -0.518810
C28   C     C_3   0.112218 0.074299 0.010404 -0.571904
C29   C     C_3   0.061859 0.924960 0.032120 0.595698
C30   C     C_3   0.935969 0.090105 0.964702 0.531718
H7    H     H_    0.792468 0.892214 0.971510 0.202380
H8    H     H_    0.202319 0.124385 0.025556 0.188601
C31   C     C_3   0.994543 0.001092 0.062416 -0.426503
C32   C     C_3   0.004117 0.012189 0.935288 -0.470431
C33   C     C_3   0.820331 0.018951 0.017172 0.603096
C34   C     C_3   0.177978 0.996834 0.980587 0.631981
C35   C     C_3   0.646796 0.048648 0.466462 -0.097579
C36   C     C_3   0.356891 0.945356 0.534298 -0.095490
C37   C     C_3   0.491208 0.082950 0.507417 -0.177179
C38   C     C_3   0.512141 0.911452 0.493190 -0.187530
H9    H     H_    0.478973 0.153818 0.512734 0.222456
H10   H     H_    0.530943 0.841473 0.486960 0.235677
H11   H     H_    0.759363 0.092204 0.435972 0.255210
H12   H     H_    0.241458 0.902288 0.563412 0.253786
C39   C     C_3   0.512293 0.993364 0.563666 -0.381188
C40   C     C_3   0.490414 0.001029 0.437210 -0.402619
C41   C     C_3   0.664856 0.959705 0.522869 0.448900
C42   C     C_3   0.338770 0.034189 0.478039 0.449202
C43   C     C_R   0.489858 0.275281 0.179710 -0.284283
C44   C     C_R   0.513881 0.726480 0.824399 -0.300560
C45   C     C_R   0.410275 0.423914 0.194398 -0.229118
C46   C     C_R   0.626998 0.578814 0.817445 -0.236904
C47   C     C_R   0.437049 0.329394 0.221305 0.384845
C48   C     C_R   0.592925 0.671303 0.787199 0.371548
C49   C     C_R   0.511519 0.316185 0.112286 -0.252048
C50   C     C_R   0.479221 0.689615 0.891782 -0.233582
C51   C     C_R   0.476726 0.411253 0.084311 0.169855
C52   C     C_R   0.522253 0.596557 0.923685 0.159850
C53   C     C_R   0.434976 0.464905 0.127228 0.072379
C54   C     C_R   0.585013 0.541051 0.883799 0.078493
C55   C     C_R   0.492093 0.455513 0.015771 -0.148255
C56   C     C_R   0.498776 0.554626 0.992776 -0.150770
C57   C     C_R   0.486043 0.606458 0.039537 0.606936
C58   C     C_R   0.500676 0.404572 0.968971 0.633970
C59   C     C_R   0.430896 0.560136 0.104238 -0.407741
C60   C     C_R   0.586252 0.446382 0.908178 -0.412224
H13   H     H_    0.398003 0.597935 0.139236 0.149154
H14   H     H_    0.627401 0.405712 0.875698 0.155516
H15   H     H_    0.416273 0.734741 0.917554 0.177860
H16   H     H_    0.558867 0.272822 0.082808 0.149609
H17   H     H_    0.376662 0.466449 0.226505 0.177621
H18   H     H_    0.678440 0.535065 0.788191 0.169328
N1    N     N_R   0.842251 0.385068 0.364030 0.256663
O21   O     O_R   0.929131 0.312738 0.356036 -0.247954
O22   O     O_R   0.677298 0.407953 0.337249 -0.372399
N2    N     N_R   0.301593 0.598278 0.625859 0.255686
O23   O     O_R   0.482580 0.614036 0.612758 -0.309112
O24   O     O_R   0.218265 0.630683 0.669723 -0.319736
N3    N     N_R   0.843701 0.912488 0.543663 0.256300
O25   O     O_R   0.944432 0.883724 0.501545 -0.392705
O26   O     O_R   0.885357 0.884241 0.605111 -0.312272
N4    N     N_R   0.156367 0.077038 0.458040 0.256195
O27   O     O_R   0.039897 0.087362 0.503398 -0.359765
O28   O     O_R   0.131582 0.125284 0.398050 -0.298115
N5    N     N_R   0.637940 0.707974 0.718784 0.263514
O29   O     O_R   0.531131 0.770984 0.681549 -0.359554
O30   O     O_R   0.777322 0.673148 0.692324 -0.291821
N6    N     N_R   0.414449 0.290060 0.290746 0.270015
O31   O     O_R   0.517113 0.220022 0.321421 -0.374028
O32   O     O_R   0.311495 0.332006 0.324931 -0.297473
O33   O     O_3   0.532211 0.700429 0.021022 -0.659117
C61   C     C_3   0.590907 0.733696 0.073668 -0.182514
H19   H     H_    0.704376 0.689835 0.102652 0.125314
H20   H     H_    0.468168 0.742070 0.104943 0.178508
H21   H     H_    0.648982 0.803673 0.054669 0.197639
O34   O     O_3   0.413255 0.318091 0.982270 -0.657301
C62   C     C_3   0.344974 0.299238 0.925037 -0.353540
H22   H     H_    0.462776 0.279088 0.896503 0.158800
H23   H     H_    0.261531 0.357797 0.894438 0.171857
H24   H     H_    0.249951 0.239268 0.938474 0.193517
N7    N     N_R   0.975970 0.297504 0.489000 0.261149
O35   O     O_R   0.827670 0.246581 0.486749 -0.354267
O36   O     O_R   0.138802 0.259073 0.508865 -0.353777
N8    N     N_R   0.264806 0.675059 0.493508 0.234486
O37   O     O_R   0.234529 0.746628 0.514849 -0.347207
O38   O     O_R   0.396547 0.678377 0.449191 -0.405544
O39   O     O_3   0.128791 0.839307 0.070536 -0.622862
C63   C     C_3   0.117387 0.774047 0.034643 -0.204449
H25   H     H_    0.208683 0.794673 0.989850 0.179946
H26   H     H_    0.968396 0.762544 0.021873 0.132403
H27   H     H_    0.166354 0.706760 0.065643 0.172266
O40   O     O_3   0.872297 0.173939 0.922428 -0.639245
C64   C     C_3   0.873112 0.245544 0.953072 -0.327742
H28   H     H_    0.967346 0.235117 0.995832 0.153660
H29   H     H_    0.727910 0.255883 0.969268 0.192379
H30   H     H_    0.917821 0.310281 0.916669 0.182291
O41   O     O_3   0.631390 0.021211 0.040977 -0.581707
C65   C     C_3   0.598455 0.100164 0.062832 -0.101457
H31   H     H_    0.516668 0.151712 0.026881 0.138023
H32   H     H_    0.729598 0.133931 0.074158 0.068190
H33   H     H_    0.507239 0.079723 0.107374 0.173163
O42   O     O_3   0.367098 0.984744 0.960569 -0.596704
C66   C     C_3   0.435886 0.066937 0.915550 0.028047
H34   H     H_    0.517245 0.109801 0.939228 0.147052
H35   H     H_    0.324437 0.113117 0.887527 0.061321
H36   H     H_    0.536503 0.047765 0.881332 0.176498

loop_
_geom_bond_atom_site_label_1
_geom_bond_atom_site_label_2
_geom_bond_distance
_ccdc_geom_bond_type
C28   H8    1.102915 S    
C64   H30   1.108237 S    
V4    O20   2.197132 S    
C3    C43   1.464338 S    
O34   C62   1.418669 S    
C51   C55   1.432113 A    
O13   V3    1.737652 S    
O41   C65   1.412778 S    
C35   C41   1.541439 S    
C65   H33   1.106890 S    
O4    C2    1.296121 A    
V1    O19   1.713193 S    
C31   C33   1.543958 S    
C23   C25   1.405889 A    
C45   H17   1.084478 S    
C21   C22   1.433840 A    
C7    C9    1.466234 S    
C36   C39   1.541162 S    
O9    V1    2.013497 S    
C9    C15   1.401439 A    
C10   C16   1.402715 A    
C47   N6    1.441825 S    
C24   N8    1.431868 S    
C11   C13   1.388416 A    
C40   C42   1.532655 S    
C24   C26   1.402209 A    
O3    C1    1.298339 A    
N3    O26   1.299367 A    
C29   C34   1.535796 S    
C50   C52   1.415291 A    
C27   C29   1.550105 S    
N2    O23   1.300722 A    
C29   O39   1.409523 S    
C36   H12   1.105639 S    
N5    O29   1.301379 A    
C18   C22   1.445018 A    
C27   H7    1.106598 S    
C37   H9    1.109770 S    
O7    C3    1.295511 A    
N6    O31   1.301007 A    
C44   C50   1.407910 A    
C30   O40   1.411651 S    
O5    C7    1.305080 A    
O7    V1    2.046086 S    
O6    C8    1.307435 A    
C52   C56   1.441157 A    
O8    V2    2.046086 S    
N5    O30   1.301543 A    
C60   H14   1.081698 S    
O3    V1    2.023840 S    
O14   V4    1.737651 S    
C4    C44   1.455144 S    
C66   H35   1.111218 S    
C11   C19   1.413539 A    
C44   C48   1.408137 A    
C45   C53   1.402963 A    
C5    C31   1.501080 S    
C15   H2    1.077627 S    
C8    C10   1.474990 S    
C2    O12   1.309326 A    
C38   C41   1.533681 S    
O17   V3    2.048787 S    
C17   C19   1.417766 A    
C37   C42   1.533299 S    
C18   C20   1.421395 A    
N4    O28   1.299755 A    
N4    O27   1.298088 A    
C45   C47   1.396189 A    
C28   C34   1.545098 S    
O11   V3    1.992238 S    
C58   O34   1.396128 S    
C36   C42   1.538669 S    
C49   C51   1.415699 A    
C11   H5    1.081800 S    
C65   H31   1.097247 S    
C15   C17   1.421949 A    
O8    C4    1.291732 A    
C55   C56   1.440015 A    
C19   C25   1.402655 A    
N8    O38   1.301550 A    
C1    O11   1.305408 A    
O15   V3    1.985974 S    
C2    C39   1.502587 S    
C9    C13   1.390167 A    
C6    C32   1.508807 S    
C23   N7    1.428345 S    
C35   C37   1.561703 S    
C32   C34   1.543137 S    
C53   C59   1.384677 A    
C58   C60   1.400925 A    
C62   H23   1.113602 S    
C34   O42   1.411883 S    
C12   H6    1.081868 S    
O10   V2    2.013497 S    
O1    V3    2.051268 S    
C46   H18   1.084930 S    
N1    O22   1.299844 A    
C66   H36   1.101852 S    
C41   N3    1.453540 S    
C50   H15   1.077345 S    
C39   C41   1.540272 S    
O33   C61   1.418106 S    
C1    C40   1.498972 S    
C63   H26   1.107793 S    
C35   H11   1.106270 S    
C13   H4    1.084045 S    
C65   H32   1.111996 S    
C52   C54   1.415395 A    
C30   C33   1.538982 S    
O18   V4    2.048787 S    
C48   N5    1.440616 S    
C46   C48   1.388309 A    
O15   C5    1.303450 A    
C38   C40   1.545443 S    
O16   C6    1.305222 A    
C12   C20   1.411575 A    
C33   O41   1.413082 S    
O12   V4    1.992238 S    
C61   H20   1.108325 S    
C62   H22   1.109107 S    
C43   C49   1.405530 A    
C27   C32   1.547978 S    
V2    O20   1.713194 S    
C21   C24   1.425669 A    
C20   C26   1.402058 A    
C28   C31   1.556926 S    
C64   H29   1.093405 S    
C22   C23   1.428389 A    
C57   O33   1.399444 S    
O16   V4    1.985969 S    
C10   C14   1.392492 A    
O18   C8    1.301633 A    
C27   C33   1.549869 S    
C16   C18   1.427604 A    
N7    O36   1.301191 A    
C63   H27   1.104917 S    
C25   N1    1.437790 S    
C42   N4    1.446855 S    
C59   H13   1.080482 S    
C54   C60   1.378674 A    
N8    O37   1.299717 A    
O5    V1    2.051001 S    
O17   C7    1.299934 A    
C16   H1    1.074150 S    
O6    V2    2.051001 S    
O39   C63   1.408646 S    
O10   C6    1.306199 A    
C29   C31   1.537207 S    
C46   C54   1.398682 A    
O2    V4    2.051269 S    
C30   C32   1.550703 S    
C61   H21   1.096931 S    
C51   C53   1.408285 A    
C61   H19   1.113255 S    
C62   H24   1.093086 S    
V3    O19   2.197133 S    
C49   H16   1.075086 S    
N3    O25   1.300041 A    
C12   C14   1.386837 A    
C43   C47   1.408423 A    
C57   C59   1.411727 A    
C14   H3    1.084340 S    
N2    O24   1.301009 A    
O9    C5    1.303527 A    
C56   C57   1.430548 A    
O13   V1    2.163152 S    
C37   C39   1.548110 S    
O14   V2    2.163151 S    
N7    O35   1.301364 A    
O2    C4    1.302222 A    
N6    O32   1.300731 A    
C63   H25   1.111462 S    
O4    V2    2.023843 S    
O1    C3    1.303106 A    
O42   C66   1.421089 S    
C36   C38   1.559257 S    
N1    O21   1.300162 A    
C26   N2    1.435085 S    
C17   C21   1.438779 A    
O40   C64   1.410107 S    
C38   H10   1.108198 S    
C35   C40   1.541291 S    
C66   H34   1.090445 S    
C28   C30   1.561460 S    
C64   H28   1.109792 S    
C55   C58   1.420131 A    
