data_mof_unit_44116.cif
_audit_creation_date              2012-12-11T15:06:47-0500
_audit_creation_method            fapswitch 2.2
_symmetry_space_group_name_H-M    P1
_symmetry_Int_Tables_number       1
_space_group_crystal_system       monoclinic
_cell_length_a                    19.833609
_cell_length_b                    11.28283
_cell_length_c                    18.699455
_cell_angle_alpha                 90.0
_cell_angle_beta                  89.101003
_cell_angle_gamma                 90.0
_cell_volume                      4184.03471521

loop_
_atom_site_label
_atom_site_type_symbol
_atom_type_description
_atom_site_fract_x
_atom_site_fract_y
_atom_site_fract_z
_atom_type_partial_charge
C1    C     C_R   0.762355 0.522009 0.638644 0.563589
C2    C     C_R   0.237644 0.522009 0.361356 0.563589
C3    C     C_R   0.262356 0.022009 0.638644 0.563589
C4    C     C_R   0.737644 0.022009 0.361356 0.563589
C5    C     C_3   0.808882 0.131328 0.449491 -0.066839
C6    C     C_3   0.191118 0.131328 0.550509 -0.066839
C7    C     C_3   0.308881 0.631328 0.449491 -0.066839
C8    C     C_3   0.691118 0.631328 0.550509 -0.066839
C9    C     C_3   0.745691 0.055681 0.437566 0.040045
C10   C     C_3   0.254309 0.055681 0.562434 0.040045
C11   C     C_3   0.245690 0.555681 0.437566 0.040045
C12   C     C_3   0.754309 0.555681 0.562434 0.040045
C13   C     C_3   0.758535 0.088353 0.575487 0.041264
C14   C     C_3   0.241465 0.088353 0.424513 0.041264
C15   C     C_3   0.258535 0.588353 0.575487 0.041264
C16   C     C_3   0.741465 0.588353 0.424513 0.041264
C17   C     C_3   0.750871 0.956164 0.563455 -0.271922
C18   C     C_3   0.249129 0.956164 0.436545 -0.271922
C19   C     C_3   0.250871 0.456164 0.563455 -0.271922
C20   C     C_3   0.749129 0.456164 0.436545 -0.271922
C21   C     C_3   0.820759 0.130559 0.530583 -0.229939
C22   C     C_3   0.179241 0.130559 0.469417 -0.229939
C23   C     C_3   0.320759 0.630560 0.530583 -0.229939
C24   C     C_3   0.679241 0.630560 0.469417 -0.229939
C25   C     C_3   0.011553 0.209840 0.460968 -0.226059
C26   C     C_3   0.988447 0.209840 0.539032 -0.226059
C27   C     C_3   0.511553 0.709840 0.460968 -0.226059
C28   C     C_3   0.488447 0.709840 0.539032 -0.226059
C29   C     C_3   0.063898 0.410859 0.473506 -0.237227
C30   C     C_3   0.936102 0.410859 0.526494 -0.237227
C31   C     C_3   0.563898 0.910859 0.473506 -0.237227
C32   C     C_3   0.436102 0.910859 0.526494 -0.237227
C33   C     C_3   0.941898 0.389824 0.445620 -0.258580
C34   C     C_3   0.058102 0.389824 0.554380 -0.258580
C35   C     C_3   0.441898 0.889824 0.445620 -0.258580
C36   C     C_3   0.558102 0.889824 0.554380 -0.258580
C37   C     C_3   0.011590 0.336121 0.431183 0.049261
C38   C     C_3   0.988410 0.336121 0.568817 0.049261
C39   C     C_3   0.511590 0.836121 0.431183 0.049261
C40   C     C_3   0.488410 0.836121 0.568817 0.049261
C41   C     C_3   0.817801 0.023053 0.045641 -0.226140
C42   C     C_3   0.182199 0.023053 0.954359 -0.226140
C43   C     C_3   0.317801 0.523054 0.045641 -0.226140
C44   C     C_3   0.682199 0.523053 0.954359 -0.226140
C45   C     C_R   0.773732 0.119573 0.650414 0.540326
C46   C     C_R   0.226268 0.119573 0.349586 0.540326
C47   C     C_R   0.273732 0.619573 0.650414 0.540326
C48   C     C_R   0.726268 0.619573 0.349586 0.540326
C49   C     C_3   0.818728 0.025167 0.965417 -0.236146
C50   C     C_3   0.181272 0.025166 0.034583 -0.236147
C51   C     C_3   0.318728 0.525167 0.965417 -0.236146
C52   C     C_3   0.681272 0.525167 0.034583 -0.236146
C53   C     C_3   0.687609 0.032040 0.035759 -0.217674
C54   C     C_3   0.312391 0.032042 0.964241 -0.217675
C55   C     C_3   0.187609 0.532040 0.035759 -0.217675
C56   C     C_3   0.812391 0.532041 0.964241 -0.217674
C57   C     C_3   0.753124 0.207713 0.061947 -0.257791
C58   C     C_3   0.246875 0.207713 0.938053 -0.257791
C59   C     C_3   0.253124 0.707713 0.061947 -0.257792
C60   C     C_3   0.746875 0.707713 0.938053 -0.257791
C61   C     C_3   0.750372 0.075250 0.076471 0.065254
C62   C     C_3   0.249628 0.075250 0.923529 0.065254
C63   C     C_3   0.250372 0.575250 0.076471 0.065254
C64   C     C_3   0.749628 0.575250 0.923529 0.065254
C65   C     C_3   0.760951 0.105422 0.936714 0.064387
C66   C     C_3   0.239049 0.105422 0.063286 0.064387
C67   C     C_3   0.260951 0.605422 0.936714 0.064387
C68   C     C_3   0.739049 0.605422 0.063286 0.064387
C69   C     C_3   0.695620 0.038698 0.953097 -0.257271
C70   C     C_3   0.304380 0.038699 0.046903 -0.257271
C71   C     C_3   0.195620 0.538697 0.953097 -0.257271
C72   C     C_3   0.804380 0.538698 0.046903 -0.257270
C73   C     C_3   0.756314 0.224114 0.979231 -0.225894
C74   C     C_3   0.243685 0.224114 0.020768 -0.225894
C75   C     C_3   0.256314 0.724114 0.979231 -0.225894
C76   C     C_3   0.743685 0.724114 0.020768 -0.225894
C77   C     C_3   0.005733 0.479938 0.039956 -0.242640
C78   C     C_3   0.994266 0.479937 0.960044 -0.242640
C79   C     C_3   0.505733 0.979937 0.039956 -0.242640
C80   C     C_3   0.494266 0.979937 0.960044 -0.242640
C81   C     C_3   0.073813 0.296560 0.008092 -0.300006
C82   C     C_3   0.926186 0.296560 0.991908 -0.300006
C83   C     C_3   0.573813 0.796560 0.008092 -0.300006
C84   C     C_3   0.426186 0.796560 0.991908 -0.300005
C85   C     C_3   0.960801 0.273239 0.063941 -0.089870
C86   C     C_3   0.039199 0.273239 0.936059 -0.089870
C87   C     C_3   0.460801 0.773239 0.063941 -0.089871
C88   C     C_3   0.539198 0.773239 0.936059 -0.089870
C89   C     C_R   0.968709 0.342717 0.644829 0.574054
C90   C     C_R   0.031291 0.342717 0.355171 0.574054
C91   C     C_R   0.468709 0.842717 0.644829 0.574054
C92   C     C_R   0.531291 0.842717 0.355171 0.574054
C93   C     C_3   0.024518 0.352060 0.065047 0.033705
C94   C     C_3   0.975482 0.352060 0.934953 0.033705
C95   C     C_3   0.524518 0.852060 0.065047 0.033705
C96   C     C_3   0.475481 0.852060 0.934953 0.033705
C97   C     C_R   0.759100 0.537654 0.847104 0.564597
C98   C     C_R   0.240900 0.537654 0.152896 0.564598
C99   C     C_R   0.259100 0.037654 0.847104 0.564597
C100  C     C_R   0.740900 0.037654 0.152896 0.564597
C101  C     C_R   0.774119 0.132389 0.858858 0.528555
C102  C     C_R   0.225880 0.132389 0.141142 0.528555
C103  C     C_R   0.274120 0.632389 0.858858 0.528555
C104  C     C_R   0.725880 0.632389 0.141142 0.528555
C105  C     C_R   0.946050 0.356318 0.861604 0.543605
C106  C     C_R   0.053949 0.356318 0.138396 0.543605
C107  C     C_R   0.446050 0.856318 0.861604 0.543604
C108  C     C_R   0.553949 0.856318 0.138396 0.543605
C109  C     C_3   0.686402 0.131331 0.467216 -0.257547
C110  C     C_3   0.313597 0.131331 0.532784 -0.257547
C111  C     C_3   0.186402 0.631331 0.467216 -0.257547
C112  C     C_3   0.813597 0.631331 0.532784 -0.257547
C113  C     C_3   0.691714 0.144266 0.548632 -0.231057
C114  C     C_3   0.308286 0.144266 0.451368 -0.231057
C115  C     C_3   0.191714 0.644266 0.548632 -0.231057
C116  C     C_3   0.808286 0.644266 0.451368 -0.231057
C117  C     C_3   0.753355 0.937719 0.481973 -0.238091
C118  C     C_3   0.246645 0.937719 0.518027 -0.238091
C119  C     C_3   0.253354 0.437719 0.481973 -0.238091
C120  C     C_3   0.746645 0.437719 0.518027 -0.238091
Cr1   Cr    Cr6+3 0.885690 0.492860 0.745310 1.006476
Cr2   Cr    Cr6+3 0.114310 0.492860 0.254690 1.006476
Cr3   Cr    Cr6+3 0.385690 0.992860 0.745310 1.006476
Cr4   Cr    Cr6+3 0.614310 0.992860 0.254690 1.006476
Cr5   Cr    Cr6+3 0.729880 0.332270 0.748190 1.034765
Cr6   Cr    Cr6+3 0.270120 0.332270 0.251810 1.034765
Cr7   Cr    Cr6+3 0.229880 0.832270 0.748190 1.034765
Cr8   Cr    Cr6+3 0.770120 0.832270 0.251810 1.034765
Cr9   Cr    Cr6+3 0.888120 0.178590 0.753010 1.026536
Cr10  Cr    Cr6+3 0.111880 0.178590 0.246990 1.026536
Cr11  Cr    Cr6+3 0.388120 0.678590 0.753010 1.026536
Cr12  Cr    Cr6+3 0.611880 0.678590 0.246990 1.026536
H1    H     H_    0.638108 0.094847 0.452895 0.140462
H2    H     H_    0.361892 0.094847 0.547105 0.140463
H3    H     H_    0.138108 0.594847 0.452895 0.140462
H4    H     H_    0.861892 0.594847 0.547105 0.140463
H5    H     H_    0.860456 0.063941 0.541978 0.168253
H6    H     H_    0.139544 0.063941 0.458022 0.168253
H7    H     H_    0.360456 0.563941 0.541978 0.168253
H8    H     H_    0.639544 0.563941 0.458022 0.168253
H9    H     H_    0.804156 0.903911 0.470860 0.179956
H10   H     H_    0.195844 0.903911 0.529140 0.179956
H11   H     H_    0.304156 0.403911 0.470860 0.179956
H12   H     H_    0.695844 0.403911 0.529140 0.179956
H13   H     H_    0.792298 0.907047 0.589637 0.131852
H14   H     H_    0.207701 0.907047 0.410363 0.131852
H15   H     H_    0.292298 0.407047 0.589637 0.131852
H16   H     H_    0.707702 0.407047 0.410363 0.131852
H17   H     H_    0.060985 0.175984 0.458352 0.127127
H18   H     H_    0.939015 0.175984 0.541648 0.127127
H19   H     H_    0.560985 0.675984 0.458352 0.127127
H20   H     H_    0.439015 0.675984 0.541648 0.127127
H21   H     H_    0.984018 0.148498 0.427888 0.189955
H22   H     H_    0.015982 0.148498 0.572112 0.189955
H23   H     H_    0.484018 0.648498 0.427888 0.189955
H24   H     H_    0.515982 0.648498 0.572112 0.189955
H25   H     H_    0.615289 0.895110 0.453687 0.112115
H26   H     H_    0.384711 0.895110 0.546313 0.112115
H27   H     H_    0.115289 0.395110 0.453687 0.112115
H28   H     H_    0.884711 0.395110 0.546313 0.112115
H29   H     H_    0.598305 0.829454 0.572198 0.152792
H30   H     H_    0.401695 0.829454 0.427802 0.152792
H31   H     H_    0.098304 0.329454 0.572198 0.152792
H32   H     H_    0.901695 0.329454 0.427802 0.152792
H33   H     H_    0.936415 0.474856 0.416555 0.129991
H34   H     H_    0.063585 0.474856 0.583445 0.129991
H35   H     H_    0.436415 0.974856 0.416555 0.129991
H36   H     H_    0.563585 0.974856 0.583445 0.129991
H37   H     H_    0.949494 0.504945 0.535635 0.141943
H38   H     H_    0.050506 0.504945 0.464365 0.141943
H39   H     H_    0.449494 0.004945 0.535635 0.141943
H40   H     H_    0.550506 0.004945 0.464365 0.141943
H41   H     H_    0.829250 0.932098 0.062502 0.136091
H42   H     H_    0.170751 0.932097 0.937498 0.136091
H43   H     H_    0.329250 0.432099 0.062502 0.136091
H44   H     H_    0.670750 0.432098 0.937498 0.136091
H45   H     H_    0.686220 0.220025 0.441988 0.112906
H46   H     H_    0.313780 0.220025 0.558012 0.112907
H47   H     H_    0.186220 0.720025 0.441988 0.112907
H48   H     H_    0.813780 0.720025 0.558012 0.112907
H49   H     H_    0.860929 0.075586 0.065635 0.157967
H50   H     H_    0.139071 0.075584 0.934365 0.157967
H51   H     H_    0.360929 0.575587 0.065635 0.157967
H52   H     H_    0.639071 0.575586 0.934365 0.157967
H53   H     H_    0.870284 0.048172 0.947236 0.136142
H54   H     H_    0.129716 0.048172 0.052764 0.136142
H55   H     H_    0.370284 0.548172 0.947236 0.136142
H56   H     H_    0.629716 0.548172 0.052764 0.136142
H57   H     H_    0.812276 0.934145 0.944894 0.117579
H58   H     H_    0.187724 0.934145 0.055107 0.117579
H59   H     H_    0.312277 0.434146 0.944894 0.117579
H60   H     H_    0.687724 0.434145 0.055106 0.117579
H61   H     H_    0.674594 0.946190 0.057456 0.098452
H62   H     H_    0.325407 0.946192 0.942544 0.098452
H63   H     H_    0.174594 0.446190 0.057456 0.098452
H64   H     H_    0.825407 0.446191 0.942544 0.098452
H65   H     H_    0.697718 0.949040 0.929401 0.098450
H66   H     H_    0.302282 0.949041 0.070599 0.098450
H67   H     H_    0.197719 0.449040 0.929401 0.098451
H68   H     H_    0.802282 0.449041 0.070599 0.098450
H69   H     H_    0.707802 0.251112 0.085593 0.110994
H70   H     H_    0.292197 0.251113 0.914406 0.110993
H71   H     H_    0.207802 0.751112 0.085594 0.110994
H72   H     H_    0.792198 0.751112 0.914406 0.110993
H73   H     H_    0.797093 0.248061 0.087261 0.141763
H74   H     H_    0.202906 0.248060 0.912739 0.141764
H75   H     H_    0.297093 0.748061 0.087261 0.141763
H76   H     H_    0.702906 0.748061 0.912739 0.141764
H77   H     H_    0.798823 0.277535 0.963535 0.102229
H78   H     H_    0.201176 0.277534 0.036465 0.102229
H79   H     H_    0.298822 0.777537 0.963534 0.102229
H80   H     H_    0.701176 0.777534 0.036465 0.102229
H81   H     H_    0.709971 0.269228 0.963101 0.126439
H82   H     H_    0.290029 0.269229 0.036899 0.126439
H83   H     H_    0.209970 0.769226 0.963102 0.126438
H84   H     H_    0.790029 0.769229 0.036899 0.126439
H85   H     H_    0.645262 0.090881 0.050959 0.123909
H86   H     H_    0.354738 0.090883 0.949041 0.123909
H87   H     H_    0.145262 0.590881 0.050958 0.123909
H88   H     H_    0.854738 0.590882 0.949041 0.123909
H89   H     H_    0.686632 0.236503 0.564554 0.157640
H90   H     H_    0.313368 0.236503 0.435446 0.157640
H91   H     H_    0.186632 0.736503 0.564554 0.157640
H92   H     H_    0.813368 0.736503 0.435446 0.157640
H93   H     H_    0.652028 0.085923 0.929639 0.110089
H94   H     H_    0.347971 0.085924 0.070361 0.110090
H95   H     H_    0.152029 0.585922 0.929639 0.110089
H96   H     H_    0.847971 0.585923 0.070361 0.110089
H97   H     H_    0.044226 0.546399 0.052208 0.125646
H98   H     H_    0.955774 0.546399 0.947793 0.125646
H99   H     H_    0.544226 0.046399 0.052207 0.125646
H100  H     H_    0.455773 0.046399 0.947793 0.125646
H101  H     H_    0.959310 0.510838 0.068124 0.123789
H102  H     H_    0.040689 0.510838 0.931876 0.123788
H103  H     H_    0.459310 0.010838 0.068124 0.123789
H104  H     H_    0.540689 0.010838 0.931876 0.123789
H105  H     H_    0.613097 0.858614 0.994619 0.102404
H106  H     H_    0.386902 0.858614 0.005381 0.102404
H107  H     H_    0.113097 0.358615 0.994619 0.102404
H108  H     H_    0.886903 0.358614 0.005381 0.102404
H109  H     H_    0.976200 0.178146 0.065405 0.146356
H110  H     H_    0.023800 0.178147 0.934595 0.146356
H111  H     H_    0.476200 0.678146 0.065405 0.146356
H112  H     H_    0.523799 0.678146 0.934595 0.146356
H113  H     H_    0.904928 0.214733 0.971244 0.109011
H114  H     H_    0.095072 0.214733 0.028756 0.109010
H115  H     H_    0.404928 0.714733 0.971244 0.109011
H116  H     H_    0.595071 0.714733 0.028756 0.109011
H117  H     H_    0.647918 0.101125 0.575160 0.121262
H118  H     H_    0.352082 0.101125 0.424840 0.121262
H119  H     H_    0.147918 0.601125 0.575160 0.121262
H120  H     H_    0.852082 0.601125 0.424840 0.121262
H121  H     H_    0.718448 0.869490 0.465753 0.094703
H122  H     H_    0.281552 0.869489 0.534246 0.094703
H123  H     H_    0.218448 0.369490 0.465753 0.094703
H124  H     H_    0.781552 0.369490 0.534246 0.094703
H125  H     H_    0.702737 0.923447 0.587086 0.122220
H126  H     H_    0.297263 0.923447 0.412914 0.122220
H127  H     H_    0.202737 0.423447 0.587086 0.122220
H128  H     H_    0.797263 0.423447 0.412914 0.122220
H129  H     H_    0.798781 0.223505 0.432475 0.095585
H130  H     H_    0.201219 0.223505 0.567525 0.095585
H131  H     H_    0.298781 0.723505 0.432475 0.095585
H132  H     H_    0.701219 0.723505 0.567525 0.095585
H133  H     H_    0.837272 0.218023 0.548742 0.083323
H134  H     H_    0.162728 0.218023 0.451258 0.083323
H135  H     H_    0.337272 0.718023 0.548742 0.083323
H136  H     H_    0.662728 0.718023 0.451258 0.083323
O1    O     O_R   0.957210 0.449410 0.665480 -0.525726
O2    O     O_R   0.042790 0.449410 0.334520 -0.525726
O3    O     O_R   0.457210 0.949410 0.665480 -0.525726
O4    O     O_R   0.542790 0.949410 0.334520 -0.525726
O5    O     O_R   0.736260 0.212010 0.826560 -0.513209
O6    O     O_R   0.263740 0.212010 0.173440 -0.513209
O7    O     O_R   0.236260 0.712010 0.826560 -0.513209
O8    O     O_R   0.763740 0.712010 0.173440 -0.513209
O9    O     O_R   0.832520 0.095300 0.836000 -0.535604
O10   O     O_R   0.167480 0.095300 0.164000 -0.535604
O11   O     O_R   0.332520 0.595300 0.836000 -0.535604
O12   O     O_R   0.667480 0.595300 0.164000 -0.535604
O13   O     O_R   0.946380 0.253940 0.826940 -0.474388
O14   O     O_R   0.053620 0.253940 0.173060 -0.474387
O15   O     O_R   0.446380 0.753940 0.826940 -0.474388
O16   O     O_R   0.553620 0.753940 0.173060 -0.474388
O17   O     O_3   0.834560 0.334570 0.748840 -0.306036
O18   O     O_3   0.165440 0.334570 0.251160 -0.306036
O19   O     O_3   0.334560 0.834570 0.748840 -0.306036
O20   O     O_3   0.665440 0.834570 0.251160 -0.306036
O21   O     O_R   0.820730 0.541240 0.668250 -0.521781
O22   O     O_R   0.179270 0.541240 0.331750 -0.521782
O23   O     O_R   0.320730 0.041240 0.668250 -0.521781
O24   O     O_R   0.679270 0.041240 0.331750 -0.521782
O25   O     O_R   0.714240 0.455060 0.663710 -0.470093
O26   O     O_R   0.285760 0.455060 0.336290 -0.470093
O27   O     O_R   0.214240 0.955060 0.663710 -0.470093
O28   O     O_R   0.785760 0.955060 0.336290 -0.470093
O29   O     O_R   0.736780 0.204870 0.675910 -0.514541
O30   O     O_R   0.263220 0.204870 0.324090 -0.514541
O31   O     O_R   0.236780 0.704870 0.675910 -0.514541
O32   O     O_R   0.763220 0.704870 0.324090 -0.514541
O33   O     O_R   0.833070 0.087590 0.673490 -0.524051
O34   O     O_R   0.166930 0.087590 0.326510 -0.524052
O35   O     O_R   0.333070 0.587590 0.673490 -0.524051
O36   O     O_R   0.666930 0.587590 0.326510 -0.524052
O37   O     O_R   0.946890 0.246800 0.676300 -0.501829
O38   O     O_R   0.053110 0.246800 0.323700 -0.501829
O39   O     O_R   0.446890 0.746800 0.676300 -0.501829
O40   O     O_R   0.553110 0.746800 0.323700 -0.501829
O41   O     O_R   0.956650 0.457120 0.827980 -0.525782
O42   O     O_R   0.043350 0.457120 0.172020 -0.525782
O43   O     O_R   0.456650 0.957120 0.827980 -0.525782
O44   O     O_R   0.543350 0.957120 0.172020 -0.525782
O45   O     O_R   0.820220 0.548390 0.818890 -0.524728
O46   O     O_R   0.179780 0.548390 0.181110 -0.524728
O47   O     O_R   0.320220 0.048390 0.818890 -0.524728
O48   O     O_R   0.679780 0.048390 0.181110 -0.524728
O49   O     O_R   0.713680 0.462770 0.826210 -0.503667
O50   O     O_R   0.286320 0.462770 0.173790 -0.503667
O51   O     O_R   0.213680 0.962770 0.826210 -0.503667
O52   O     O_R   0.786320 0.962770 0.173790 -0.503667
C121  C     C_2   0.585400 0.794984 0.871933 0.218418
H137  H     H_    0.606484 0.882101 0.861976 0.106725
O53   O     O_2   0.597935 0.715206 0.829650 -0.490981
C122  C     C_2   0.414600 0.794984 0.128068 0.218417
H138  H     H_    0.393515 0.882101 0.138024 0.106725
O54   O     O_2   0.402065 0.715206 0.170350 -0.490980
C123  C     C_2   0.085400 0.294984 0.871932 0.218417
H139  H     H_    0.106484 0.382101 0.861976 0.106725
O55   O     O_2   0.097934 0.215206 0.829650 -0.490981
C124  C     C_2   0.914600 0.294984 0.128068 0.218418
H140  H     H_    0.893515 0.382101 0.138024 0.106725
O56   O     O_2   0.902066 0.215205 0.170350 -0.490981
C125  C     C_2   0.869419 0.091445 0.405499 0.534701
O57   O     O_2   0.900011 0.000776 0.420613 -0.548508
O58   O     O_R   0.886602 0.154037 0.343197 -0.680763
H141  H     H_    0.925319 0.116194 0.315497 0.366728
C126  C     C_2   0.130581 0.091445 0.594501 0.534701
O59   O     O_2   0.099989 0.000776 0.579387 -0.548509
O60   O     O_R   0.113398 0.154038 0.656803 -0.680763
H142  H     H_    0.074681 0.116194 0.684503 0.366727
C127  C     C_2   0.369419 0.591445 0.405499 0.534701
O61   O     O_2   0.400011 0.500776 0.420613 -0.548509
O62   O     O_R   0.386602 0.654038 0.343197 -0.680763
H143  H     H_    0.425319 0.616194 0.315497 0.366728
C128  C     C_2   0.630581 0.591445 0.594501 0.534701
O63   O     O_2   0.599989 0.500776 0.579387 -0.548509
O64   O     O_R   0.613398 0.654038 0.656803 -0.680763
H144  H     H_    0.574681 0.616194 0.684503 0.366727

loop_
_geom_bond_atom_site_label_1
_geom_bond_atom_site_label_2
_ccdc_geom_bond_type
C97   O45   A    
C83   H105  S    
C82   C94   S    
C119  H11   S    
C10   C110  S    
C120  H12   S    
C41   C61   S    
C53   C69   S    
C104  O12   A    
C126  O59   D    
C43   C63   S    
Cr5   O5    S    
C125  O57   D    
C44   C64   S    
C84   H115  S    
C16   C20   S    
C80   H100  S    
C63   C98   S    
C19   H127  S    
C35   C39   S    
C31   H40   S    
C110  H46   S    
C36   H36   S    
C30   C38   S    
Cr9   O37   S    
C122  H138  S    
C56   C72   S    
C105  O13   A    
C21   H5    S    
C8    H132  S    
C18   C118  S    
C81   C86   S    
C108  O16   A    
C83   C88   S    
C74   H82   S    
C111  H47   S    
C90   O2    A    
C41   C49   S    
C54   H86   S    
Cr5   O17   S    
Cr2   O46   S    
C124  H140  S    
C109  H1    S    
Cr7   O19   S    
Cr8   O20   S    
C18   H14   S    
C26   C38   S    
Cr10  O38   S    
C14   C114  S    
C60   C76   S    
C24   H8    S    
C111  H3    S    
C119  H123  S    
C43   H51   S    
C30   H37   S    
C88   H112  S    
C22   H134  S    
C54   C70   S    
C68   C72   S    
C75   H79   S    
C97   O49   A    
C13   C21   S    
C98   O46   A    
C102  O6    A    
C99   O51   A    
C113  H89   S    
C31   H25   S    
C64   C97   S    
C36   H29   S    
C15   C115  S    
C20   C120  S    
Cr7   O27   S    
C101  O9    A    
Cr8   O28   S    
C59   C63   S    
C46   O30   A    
Cr7   O7    S    
Cr4   O24   S    
C57   C61   S    
C82   C85   S    
C77   H97   S    
C60   C64   S    
Cr9   O17   S    
C13   C45   S    
C66   C70   S    
C78   C94   S    
C23   H135  S    
C95   C108  S    
C62   C99   S    
C5    C21   S    
C58   H70   S    
C121  H137  S    
C108  O44   A    
C28   C40   S    
C31   C36   S    
C48   O32   A    
C88   C121  S    
C55   C71   S    
C60   H76   S    
Cr6   O26   S    
C91   O39   A    
C54   H62   S    
C80   H104  S    
Cr2   O22   S    
C65   C101  S    
Cr10  O18   S    
C43   C51   S    
Cr11  O15   S    
C67   C103  S    
C3    O23   A    
C37   C90   S    
Cr11  O35   S    
C115  H119  S    
C66   C74   S    
C113  H117  S    
C25   H17   S    
C57   C73   S    
C105  O41   A    
C53   C61   S    
C60   H72   S    
C107  O43   A    
C56   H88   S    
C87   C95   S    
Cr5   O49   S    
C56   C64   S    
C7    H131  S    
C45   O33   A    
C104  O8    A    
C78   H102  S    
C112  H48   S    
C76   H80   S    
Cr6   O6    S    
C83   C95   S    
C70   H66   S    
C7    C127  S    
C1    C12   S    
C43   H43   S    
C85   C124  S    
C112  H4    S    
C2    C11   S    
C77   H101  S    
C127  O62   S    
C53   H85   S    
Cr12  O12   S    
C42   H42   S    
C123  O55   D    
C1    O21   A    
C55   H87   S    
C25   C26   S    
O58   H141  S    
C106  O14   A    
C5    C9    S    
C59   H71   S    
C93   C106  S    
C8    C12   S    
C6    H130  S    
C51   C67   S    
C42   C50   S    
C70   H94   S    
Cr6   O18   S    
Cr3   O47   S    
C110  H2    S    
C61   C100  S    
C67   C75   S    
C17   H125  S    
C50   H54   S    
Cr1   O1    S    
C112  C116  S    
C51   H59   S    
C58   C74   S    
Cr3   O3    S    
Cr11  O39   S    
Cr4   O4    S    
C81   H114  S    
C33   H33   S    
C44   H44   S    
C68   C76   S    
C13   C17   S    
C98   O50   A    
C2    O22   A    
C99   O47   A    
C3    O27   A    
C7    C23   S    
C8    C24   S    
C40   C91   S    
Cr7   O31   S    
C49   H53   S    
C122  O54   D    
C57   H69   S    
Cr3   O43   S    
C52   H56   S    
C4    C9    S    
Cr10  O34   S    
C86   H110  S    
C58   C62   S    
C5    H129  S    
C88   C96   S    
C94   C105  S    
C53   H61   S    
C12   C112  S    
C73   H81   S    
C14   C46   S    
C77   C78   S    
C42   H50   S    
C15   C19   S    
Cr9   O33   S    
C124  O56   D    
C115  H91   S    
C92   O4    A    
C58   H74   S    
C59   H75   S    
C6    C22   S    
C66   C102  S    
C41   H41   S    
C126  O60   S    
C56   H64   S    
Cr7   O51   S    
Cr8   O52   S    
Cr8   O32   S    
C15   C47   S    
C128  O64   S    
Cr3   O23   S    
Cr11  O11   S    
C82   H113  S    
C17   C117  S    
C42   C62   S    
C19   C119  S    
C24   H136  S    
C27   H23   S    
C41   H49   S    
C2    O26   A    
Cr12  O40   S    
C16   C116  S    
C100  O48   A    
C87   C122  S    
C125  O58   S    
C9    C109  S    
C25   H21   S    
C26   H18   S    
O64   H144  S    
C106  O42   A    
C54   C62   S    
C48   O36   A    
C11   C111  S    
C29   C34   S    
C33   C37   S    
C81   H107  S    
C45   O29   A    
C116  H92   S    
C47   O31   A    
C4    O24   A    
C79   C95   S    
C89   O37   A    
Cr5   O29   S    
C76   H84   S    
O60   H142  S    
C85   H109  S    
Cr1   O17   S    
C114  H90   S    
Cr3   O19   S    
Cr4   O20   S    
Cr12  O16   S    
C32   H39   S    
C39   C92   S    
C73   H77   S    
C27   H19   S    
C84   H106  S    
C68   C104  S    
C69   H93   S    
C17   H13   S    
C6    C10   S    
C71   H67   S    
C1    O25   A    
C78   H98   S    
C92   O40   A    
C22   H6    S    
C123  H139  S    
C107  O15   A    
C14   C22   S    
C65   C69   S    
C77   C93   S    
Cr4   O44   S    
C67   C71   S    
C50   H58   S    
C19   H15   S    
C18   H126  S    
C51   H55   S    
Cr2   O2    S    
C103  O7    A    
C109  H45   S    
Cr12  O36   S    
C29   C37   S    
C6    C126  S    
C34   H34   S    
Cr1   O45   S    
C30   H28   S    
C55   H63   S    
O62   H143  S    
C9    C117  S    
C14   C18   S    
C117  H9    S    
C84   C87   S    
C103  O11   A    
C86   C123  S    
C11   C119  S    
C16   C48   S    
C29   H27   S    
C127  O61   D    
C7    C11   S    
C38   C89   S    
C49   C65   S    
C74   H78   S    
C89   O1    A    
C23   H7    S    
C79   H103  S    
C91   O3    A    
C84   C96   S    
C49   H57   S    
C5    C125  S    
C114  H118  S    
C57   H73   S    
Cr2   O42   S    
C65   C73   S    
C52   H60   S    
Cr4   O48   S    
Cr8   O8    S    
C118  H122  S    
C25   C37   S    
C12   C120  S    
C27   C39   S    
C121  O53   D    
C82   H108  S    
C83   H116  S    
C35   H35   S    
Cr9   O9    S    
C29   H38   S    
C80   C96   S    
C86   C94   S    
C44   H52   S    
C52   C68   S    
C109  C113  S    
C15   C23   S    
C16   C24   S    
C69   H65   S    
C101  O5    A    
C85   C93   S    
C102  O10   A    
C32   H26   S    
C35   H30   S    
C117  H121  S    
C120  H124  S    
C32   C35   S    
C36   C40   S    
C33   H32   S    
C34   H31   S    
Cr6   O50   S    
C8    C128  S    
C116  H120  S    
C55   C63   S    
Cr10  O10   S    
C46   O34   A    
C10   C118  S    
C72   H68   S    
C81   C93   S    
C87   H111  S    
C79   H99   S    
C20   H16   S    
Cr9   O13   S    
C50   C66   S    
C100  O52   A    
C20   H128  S    
Cr1   O41   S    
C28   H20   S    
C26   H22   S    
C59   C75   S    
C110  C114  S    
C30   C33   S    
C34   C38   S    
C71   H95   S    
C96   C107  S    
C47   O35   A    
C4    O28   A    
C118  H10   S    
Cr5   O25   S    
C90   O38   A    
Cr6   O30   S    
C21   H133  S    
C72   H96   S    
Cr1   O21   S    
Cr2   O18   S    
Cr10  O14   S    
C3    C10   S    
Cr11  O19   S    
C44   C52   S    
Cr12  O20   S    
C75   H83   S    
C31   C39   S    
C32   C40   S    
C79   C80   S    
C27   C28   S    
C28   H24   S    
C111  C115  S    
C128  O63   D    
C13   C113  S    
