data_mof_unit_11746.cif
_audit_creation_date              2012-12-10T17:32:12-0500
_audit_creation_method            fapswitch 2.2
_symmetry_space_group_name_H-M    P1
_symmetry_Int_Tables_number       1
_space_group_crystal_system       triclinic
_cell_length_a                    12.407063
_cell_length_b                    13.212986
_cell_length_c                    15.024481
_cell_angle_alpha                 75.860176
_cell_angle_beta                  101.579516
_cell_angle_gamma                 116.813612
_cell_volume                      2119.90549843

loop_
_atom_site_label
_atom_site_type_symbol
_atom_type_description
_atom_site_fract_x
_atom_site_fract_y
_atom_site_fract_z
_atom_type_partial_charge
C1    C     C_R   0.855044 0.286168 0.508458 0.880267
C2    C     C_R   0.000157 0.596931 0.072865 -0.195461
C3    C     C_R   0.000181 0.309534 0.089180 0.316686
C4    C     C_R   0.996653 0.306991 0.995844 0.399451
C5    C     C_R   0.995628 0.401883 0.927090 -0.129463
C6    C     C_R   0.999894 0.500318 0.953103 -0.142365
C7    C     C_R   0.002853 0.598004 0.885404 -0.168601
C8    C     C_R   0.004436 0.693912 0.912947 0.349418
C9    C     C_R   0.001957 0.692139 0.005615 0.642687
C10   C     C_R   0.990417 0.401753 0.832805 0.608356
C11   C     C_R   0.999115 0.499366 0.767421 -0.309552
C12   C     C_R   0.999454 0.499097 0.670894 0.923221
C13   C     C_R   0.004605 0.596456 0.792522 0.602853
C14   C     C_R   0.271844 0.037584 0.414828 0.693916
C15   C     C_R   0.227647 0.839393 0.489215 -0.330312
C16   C     C_R   0.805087 0.084155 0.587144 0.275586
C17   C     C_R   0.721771 0.004124 0.648311 0.290368
C18   C     C_R   0.601334 0.989160 0.630664 0.643342
C19   C     C_R   0.559221 0.035118 0.543035 -0.095988
C20   C     C_R   0.645852 0.129400 0.489262 -0.217796
C21   C     C_R   0.434444 0.993113 0.508155 -0.066306
C22   C     C_R   0.395913 0.068010 0.439447 -0.321137
C23   C     C_R   0.145233 0.714370 0.492072 0.941483
C24   C     C_R   0.481947 0.166399 0.390420 0.664004
C25   C     C_R   0.604364 0.188386 0.408018 0.341404
C26   C     C_R   0.351149 0.875310 0.528378 0.425190
C27   C     C_R   0.187366 0.925256 0.441843 0.283661
C28   C     C_R   0.771038 0.162334 0.519755 -0.176815
C29   C     C_R   0.336227 0.311432 0.639958 0.298228
C30   C     C_R   0.752522 0.633932 0.366161 0.813144
C31   C     C_R   0.644399 0.639612 0.324020 0.258701
C32   C     C_R   0.539443 0.576351 0.368510 -0.208760
C33   C     C_R   0.542817 0.515762 0.459610 0.015227
C34   C     C_R   0.000786 0.501575 0.329074 0.903735
C35   C     C_R   0.651178 0.500418 0.493709 0.103491
C36   C     C_R   0.440593 0.461503 0.514308 -0.111809
C37   C     C_R   0.440950 0.374045 0.592043 -0.151288
C38   C     C_R   0.547385 0.354775 0.620369 0.385850
C39   C     C_R   0.648362 0.417647 0.572118 -0.163517
C40   C     C_R   0.340801 0.493695 0.498298 0.499237
C41   C     C_R   0.244800 0.349950 0.623251 0.454850
C42   C     C_R   0.998452 0.595854 0.166088 0.703071
C43   C     C_R   0.000843 0.502335 0.232526 -0.202828
C44   C     C_R   0.003659 0.408922 0.207635 -0.170138
C45   C     C_R   0.001415 0.405691 0.114851 0.010177
C46   C     C_R   0.000502 0.500922 0.046824 -0.059203
Cu1   Cu    Cu3+1 0.098270 0.475420 0.521130 1.135561
Cu2   Cu    Cu3+1 0.901730 0.524580 0.478870 1.112884
H1    H     H_    0.005035 0.338228 0.261748 0.225546
H2    H     H_    0.455389 0.569106 0.327552 0.247399
H3    H     H_    0.723478 0.396766 0.597749 0.211498
N1    N     N_R   0.246280 0.438190 0.553160 -0.280317
N2    N     N_R   0.754320 0.561190 0.447410 -0.288387
O1    O     O_R   0.972510 0.318130 0.526570 -0.525874
O2    O     O_R   0.806530 0.359650 0.490890 -0.614653
O3    O     O_R   0.082980 0.479210 0.647590 -0.521950
O4    O     O_R   0.917000 0.520730 0.611900 -0.589762
O5    O     O_R   0.193470 0.640350 0.509110 -0.505420
O6    O     O_R   0.027490 0.681870 0.473430 -0.501477
O7    O     O_R   0.083000 0.479270 0.388100 -0.570605
O8    O     O_R   0.917020 0.520790 0.352410 -0.490000
F1    F     F_    0.998280 0.686581 0.193445 -0.514909
F2    F     F_    0.446241 0.231902 0.316883 -0.532416
F3    F     F_    0.232395 0.115402 0.360298 -0.510243
Cl1   Cl    Cl    0.406372 0.770956 0.588710 -0.432447
Cl2   Cl    Cl    0.946895 0.081703 0.592063 -0.329904
F4    F     F_    0.526867 0.931960 0.698896 -0.524191
Cl3   Cl    Cl    0.766924 0.924502 0.748232 -0.228292
Cl4   Cl    Cl    0.697963 0.277876 0.319544 -0.490919
Cl5   Cl    Cl    0.130761 0.285368 0.698217 -0.298857
Cl6   Cl    Cl    0.573071 0.266383 0.723754 -0.434064
Cl7   Cl    Cl    0.305376 0.175547 0.712477 -0.280461
Cl8   Cl    Cl    0.343992 0.616211 0.416935 -0.520311
F5    F     F_    0.853088 0.691885 0.320772 -0.514858
Cl9   Cl    Cl    0.637786 0.719403 0.212487 -0.310607
Cl10  Cl    Cl    0.002668 0.190124 0.173707 -0.322156
Cl11  Cl    Cl    0.998896 0.184520 0.968883 -0.205269
F6    F     F_    0.969568 0.305659 0.801984 -0.557036
F7    F     F_    0.012740 0.688457 0.724979 -0.575319
Cl12  Cl    Cl    0.008374 0.819631 0.835157 -0.204433
F8    F     F_    0.002169 0.785039 0.029577 -0.476947
Cl13  Cl    Cl    0.033404 0.897896 0.407740 -0.287072

loop_
_geom_bond_atom_site_label_1
_geom_bond_atom_site_label_2
_ccdc_geom_bond_type
C44   H1    S    
C16   C28   A    
Cu2   O2    S    
C39   H3    S    
C21   C26   A    
C13   F7    S    
C35   N2    A    
C19   C20   A    
C1    O1    A    
C10   F6    S    
Cu2   O4    S    
C45   C46   A    
C2    C46   A    
C23   O6    A    
C5    C6    A    
C36   C37   A    
C19   C21   A    
C30   C31   A    
C30   F5    S    
C20   C25   A    
C33   C36   A    
C40   Cl8   S    
C18   C19   A    
Cu1   O7    S    
C31   Cl9   S    
Cu1   Cu2   S    
C16   C17   A    
C1    C28   S    
C14   C27   A    
C42   F1    S    
C41   N1    A    
C29   Cl7   S    
C15   C23   S    
C21   C22   A    
C34   O7    A    
Cu2   N2    S    
C30   N2    A    
C36   C40   A    
C24   C25   A    
C8    C9    A    
C15   C26   A    
C20   C28   A    
C18   F4    S    
C40   N1    A    
C3    C45   A    
C34   O8    A    
C35   C39   A    
C43   C44   A    
C37   C38   A    
C15   C27   A    
C31   C32   A    
C7    C13   A    
C14   F3    S    
C17   C18   A    
C12   O3    A    
C3    Cl10  S    
C32   H2    S    
C6    C7    A    
Cu1   O1    S    
C12   O4    A    
C24   F2    S    
C22   C24   A    
C16   Cl2   S    
C42   C43   A    
C3    C4    A    
C44   C45   A    
Cu2   O6    S    
C38   Cl6   S    
C17   Cl3   S    
C6    C46   A    
C29   C41   A    
C26   Cl1   S    
C27   Cl13  S    
C34   C43   S    
C4    C5    A    
C11   C12   S    
Cu1   N1    S    
C32   C33   A    
C14   C22   A    
C1    O2    A    
C5    C10   A    
Cu1   O5    S    
C11   C13   A    
Cu2   O8    S    
C38   C39   A    
C2    C42   A    
C33   C35   A    
C23   O5    A    
C7    C8    A    
C10   C11   A    
C4    Cl11  S    
C25   Cl4   S    
C29   C37   A    
C8    Cl12  S    
Cu1   O3    S    
C2    C9    A    
C9    F8    S    
C41   Cl5   S    
