data_mof_unit_33528.cif
_audit_creation_date              2012-12-11T14:58:24-0500
_audit_creation_method            fapswitch 2.2
_symmetry_space_group_name_H-M    P1
_symmetry_Int_Tables_number       1
_space_group_crystal_system       triclinic
_cell_length_a                    10.953926
_cell_length_b                    10.89349
_cell_length_c                    18.826059
_cell_angle_alpha                 90.063636
_cell_angle_beta                  90.573962
_cell_angle_gamma                 59.773995
_cell_volume                      1940.91732262

loop_
_atom_site_label
_atom_site_type_symbol
_atom_type_description
_atom_site_fract_x
_atom_site_fract_y
_atom_site_fract_z
_atom_type_partial_charge
C1    C     C_R   0.360026 0.769086 0.396093 0.537578
C2    C     C_R   0.613425 0.130583 0.165162 0.051537
C3    C     C_R   0.354181 0.330221 0.163991 -0.005644
C4    C     C_R   0.481867 0.243309 0.274158 -0.149181
C5    C     C_R   0.481614 0.238881 0.200778 -0.031343
C6    C     C_R   0.039484 0.689484 0.289142 -0.100484
C7    C     C_R   0.926327 0.795621 0.326950 -0.110862
C8    C     C_R   0.681159 0.987382 0.187105 -0.103891
C9    C     C_R   0.796156 0.883173 0.149488 -0.124351
C10   C     C_R   0.235715 0.431959 0.201703 -0.155218
C11   C     C_R   0.236143 0.436678 0.275697 -0.041653
C12   C     C_R   0.385513 0.353970 0.387793 0.532591
C13   C     C_R   0.878778 0.761058 0.388040 -0.113700
C14   C     C_R   0.942798 0.619875 0.410698 -0.095115
C15   C     C_R   0.052724 0.512506 0.371643 -0.053790
C16   C     C_R   0.106391 0.546924 0.312045 0.045894
C17   C     C_R   0.361643 0.339603 0.312458 -0.003001
C18   C     C_R   0.861955 0.227548 0.296580 -0.144664
C19   C     C_R   0.883420 0.215303 0.224019 -0.132292
C20   C     C_R   0.861412 0.333935 0.183982 0.025016
C21   C     C_R   0.814254 0.465066 0.216362 -0.138506
C22   C     C_R   0.794328 0.476805 0.288445 -0.123411
C23   C     C_R   0.774377 0.381054 0.401986 0.541237
C24   C     C_R   0.819424 0.357899 0.329113 0.030312
C25   C     C_R   0.341757 0.710823 0.273307 -0.121632
C26   C     C_R   0.338348 0.734073 0.200982 -0.144997
C27   C     C_R   0.356476 0.844132 0.176056 0.033086
C28   C     C_R   0.386448 0.925412 0.223631 -0.132592
C29   C     C_R   0.389148 0.902134 0.296554 -0.153763
C30   C     C_R   0.359515 0.799200 0.321251 0.038187
C31   C     C_R   0.370666 0.202066 0.693372 -0.140181
C32   C     C_R   0.356263 0.188380 0.765098 -0.120863
C33   C     C_R   0.297798 0.308655 0.809278 0.035137
C34   C     C_R   0.345575 0.767361 0.605214 0.545765
C35   C     C_R   0.244646 0.443961 0.780866 -0.154712
C36   C     C_R   0.257047 0.458066 0.708640 -0.134901
C37   C     C_R   0.324581 0.336515 0.665348 0.030512
C38   C     C_R   0.899078 0.403243 0.705069 -0.105644
C39   C     C_R   0.906587 0.411176 0.778275 -0.005069
C40   C     C_R   0.909515 0.298663 0.819766 0.025970
C41   C     C_R   0.885547 0.197236 0.786140 -0.149217
C42   C     C_R   0.849326 0.211603 0.714241 -0.141021
C43   C     C_R   0.850677 0.319314 0.674458 0.009527
C44   C     C_R   0.198527 0.841866 0.712157 -0.141548
C45   C     C_R   0.369580 0.350774 0.595755 0.544607
C46   C     C_R   0.188770 0.852477 0.785197 -0.141065
C47   C     C_R   0.301999 0.840624 0.825821 0.032835
C48   C     C_R   0.427990 0.811040 0.792729 -0.143823
C49   C     C_R   0.438491 0.798580 0.719501 -0.140511
C50   C     C_R   0.323926 0.813507 0.678753 0.028943
C51   C     C_R   0.911967 0.314821 0.112185 0.555452
C52   C     C_R   0.328540 0.294716 0.092544 0.541368
C53   C     C_R   0.309261 0.897603 0.104869 0.546529
C54   C     C_R   0.943898 0.284241 0.896294 0.567618
C55   C     C_R   0.293026 0.286239 0.884272 0.538040
C56   C     C_R   0.771751 0.371442 0.607944 0.546966
C57   C     C_R   0.275786 0.893098 0.898148 0.537572
C58   C     C_R   0.844618 0.920405 0.089613 -0.108771
C59   C     C_R   0.778784 0.062107 0.067621 -0.084129
C60   C     C_R   0.666134 0.167513 0.106117 -0.062298
Cr1   Cr    Cr6+3 0.601770 0.606860 0.505860 0.993674
Cr2   Cr    Cr6+3 0.291380 0.601660 0.495070 1.018033
Cr3   Cr    Cr6+3 0.606880 0.291510 0.499120 1.008319
Cr4   Cr    Cr6+3 0.062440 0.063090 0.008210 0.981339
Cr5   Cr    Cr6+3 0.062880 0.375170 0.998920 0.987734
Cr6   Cr    Cr6+3 0.374700 0.061720 0.992470 1.015428
H1    H     H_    0.580751 0.172962 0.301293 0.140866
H2    H     H_    0.792844 0.843727 0.418016 0.104069
H3    H     H_    0.908104 0.593854 0.459030 0.131394
H4    H     H_    0.100273 0.403450 0.389739 0.098725
H5    H     H_    0.877775 0.136299 0.327053 0.119604
H6    H     H_    0.921741 0.112125 0.199892 0.151212
H7    H     H_    0.796577 0.557627 0.186414 0.129921
H8    H     H_    0.755195 0.580791 0.311765 0.153664
H9    H     H_    0.328646 0.624749 0.292272 0.142688
H10   H     H_    0.314740 0.671148 0.164792 0.113391
H11   H     H_    0.396681 0.013589 0.204702 0.137184
H12   H     H_    0.846144 0.773108 0.166046 0.109231
H13   H     H_    0.408152 0.967477 0.333295 0.110867
H14   H     H_    0.422942 0.107939 0.660586 0.120043
H15   H     H_    0.394488 0.082961 0.786520 0.140000
H16   H     H_    0.198810 0.537020 0.814524 0.113872
H17   H     H_    0.222327 0.563185 0.687628 0.141434
H18   H     H_    0.909979 0.477546 0.671668 0.132378
H19   H     H_    0.885085 0.112991 0.816350 0.126615
H20   H     H_    0.814499 0.143399 0.690832 0.128525
H21   H     H_    0.109145 0.851545 0.682148 0.126632
H22   H     H_    0.877126 0.905102 0.309557 0.104900
H23   H     H_    0.090094 0.876483 0.809413 0.121867
H24   H     H_    0.516322 0.802838 0.823150 0.121044
H25   H     H_    0.537195 0.773795 0.695022 0.128720
H26   H     H_    0.932432 0.839358 0.059927 0.106613
H27   H     H_    0.814429 0.090134 0.020322 0.150625
H28   H     H_    0.616158 0.276895 0.088241 0.101631
H29   H     H_    0.076940 0.719442 0.243022 0.103594
H30   H     H_    0.642998 0.955547 0.232272 0.099502
H31   H     H_    0.137919 0.502398 0.173740 0.137321
O1    O     O_R   0.748800 0.497470 0.428000 -0.542561
O2    O     O_R   0.300070 0.471040 0.567100 -0.512242
O3    O     O_R   0.491670 0.258900 0.574910 -0.517603
O4    O     O_R   0.718780 0.304180 0.577850 -0.498989
O5    O     O_3   0.500010 0.500010 0.500020 -0.241596
O6    O     O_R   0.186690 0.923650 0.086970 -0.521103
O7    O     O_R   0.957250 0.194250 0.084630 -0.511861
O8    O     O_R   0.934970 0.407490 0.085330 -0.520638
O9    O     O_R   0.203780 0.365190 0.067090 -0.508026
O10   O     O_R   0.417600 0.174890 0.067840 -0.502023
O11   O     O_R   0.375320 0.946260 0.070860 -0.496437
O12   O     O_R   0.476420 0.724060 0.429470 -0.504115
O13   O     O_R   0.160600 0.919630 0.926660 -0.539731
O14   O     O_R   0.933060 0.190520 0.936020 -0.519242
O15   O     O_R   0.908880 0.403460 0.925020 -0.540930
O16   O     O_R   0.179600 0.361450 0.918490 -0.537895
O17   O     O_R   0.391510 0.170860 0.907530 -0.522012
O18   O     O_R   0.351130 0.942530 0.922260 -0.512129
O19   O     O_3   0.166667 0.166667 0.999870 -0.259207
O20   O     O_R   0.264580 0.744340 0.416750 -0.509056
O21   O     O_R   0.309380 0.472470 0.418200 -0.494967
O22   O     O_R   0.501710 0.260430 0.414300 -0.534269
O23   O     O_R   0.728090 0.305600 0.428960 -0.505434
O24   O     O_R   0.738760 0.495930 0.588610 -0.535814
O25   O     O_R   0.467110 0.722640 0.578360 -0.505692
O26   O     O_R   0.254530 0.742800 0.577360 -0.529186
C61   C     C_3   0.892203 0.547834 0.810461 -0.234392
C62   C     C_3   0.870680 0.667414 0.759008 -0.336080
C63   C     C_3   0.848856 0.798499 0.799445 -0.462652
H32   H     H_    0.750743 0.843551 0.831195 0.156323
H33   H     H_    0.940152 0.770451 0.835493 0.147270
H34   H     H_    0.839058 0.880665 0.761219 0.140148
H35   H     H_    0.964438 0.630810 0.724767 0.162661
H36   H     H_    0.776199 0.699055 0.724826 0.162173
H37   H     H_    0.797201 0.595480 0.844673 0.175009
H38   H     H_    0.986196 0.521137 0.843294 0.191197

loop_
_geom_bond_atom_site_label_1
_geom_bond_atom_site_label_2
_ccdc_geom_bond_type
C33   C55   S    
Cr4   O6    S    
C63   H32   S    
Cr4   O19   S    
C41   C42   A    
Cr1   O1    S    
C8    H30   S    
Cr6   O10   S    
Cr3   O4    S    
Cr1   O12   S    
C31   H14   S    
C57   O18   A    
C46   H23   S    
C32   H15   S    
C28   C29   A    
C26   C27   A    
Cr3   O3    S    
Cr6   O19   S    
C61   H38   S    
C18   C24   A    
C36   C37   A    
C56   O4    A    
C18   C19   A    
C20   C51   S    
C38   C39   A    
C33   C35   A    
C2    C60   A    
C36   H17   S    
C15   C16   A    
C21   H7    S    
C18   H5    S    
C61   H37   S    
Cr1   O24   S    
C9    C58   A    
C7    H22   S    
Cr2   O20   S    
C1    O12   A    
C62   H35   S    
C31   C32   A    
C52   O10   A    
C8    C9    A    
C12   C17   S    
C26   H10   S    
C23   C24   S    
C42   H20   S    
C44   H21   S    
C52   O9    A    
C59   C60   A    
C34   O25   A    
C48   H24   S    
C21   C22   A    
C19   H6    S    
C49   H25   S    
Cr3   O5    S    
Cr5   O8    S    
Cr2   O26   S    
C35   H16   S    
C44   C46   A    
C34   C50   S    
Cr6   O18   S    
C45   O2    A    
C23   O23   A    
Cr4   O14   S    
C55   O16   A    
C63   H34   S    
C51   O7    A    
C39   C61   S    
C31   C37   A    
Cr1   O25   S    
C25   H9    S    
C35   C36   A    
C10   H31   S    
Cr5   O15   S    
C29   C30   A    
C47   C57   S    
C12   O22   A    
Cr3   O22   S    
C11   C16   S    
C62   H36   S    
Cr4   O13   S    
C47   C48   A    
C29   H13   S    
C51   O8    A    
C54   O15   A    
C1    O20   A    
C28   H11   S    
C12   O21   A    
C4    C17   A    
C40   C41   A    
C49   C50   A    
C40   C54   S    
C62   C63   S    
C14   H3    S    
C22   C24   A    
C58   C59   A    
C2    C5    S    
C42   C43   A    
C22   H8    S    
C37   C45   S    
Cr5   O9    S    
C39   C40   A    
C44   C50   A    
C25   C30   A    
Cr4   O7    S    
C15   H4    S    
C46   C47   A    
C11   C17   A    
C63   H33   S    
Cr6   O17   S    
C38   H18   S    
Cr5   O16   S    
C2    C8    A    
Cr6   O11   S    
C4    C5    A    
C3    C5    A    
C45   O3    A    
C4    H1    S    
C3    C52   S    
C27   C53   S    
C57   O13   A    
C6    C7    A    
C55   O17   A    
C41   H19   S    
C56   O24   A    
C19   C20   A    
Cr1   O5    S    
C25   C26   A    
C38   C43   A    
C3    C10   A    
C32   C33   A    
Cr3   O23   S    
C53   O11   A    
C53   O6    A    
C48   C49   A    
C1    C30   S    
Cr5   O19   S    
C54   O14   A    
C9    H12   S    
Cr2   O21   S    
C10   C11   A    
C6    C16   A    
Cr2   O2    S    
C43   C56   S    
C7    C13   A    
C23   O1    A    
C20   C21   A    
C6    H29   S    
C27   C28   A    
C34   O26   A    
C14   C15   A    
C59   H27   S    
C13   C14   A    
C58   H26   S    
C61   C62   S    
Cr2   O5    S    
C13   H2    S    
C60   H28   S    
