data_mof_unit_57606.cif
_audit_creation_date              2012-12-10T17:53:08-0500
_audit_creation_method            fapswitch 2.2
_symmetry_space_group_name_H-M    P1
_symmetry_Int_Tables_number       1
_space_group_crystal_system       triclinic
_cell_length_a                    14.699151
_cell_length_b                    14.562904
_cell_length_c                    27.713203
_cell_angle_alpha                 76.154388
_cell_angle_beta                  103.140709
_cell_angle_gamma                 114.81498
_cell_volume                      5173.65919721

loop_
_atom_site_label
_atom_site_type_symbol
_atom_type_description
_atom_site_fract_x
_atom_site_fract_y
_atom_site_fract_z
_atom_type_partial_charge
C1    C     C_R   0.880540 0.311715 0.507061 0.873892
C2    C     C_R   0.119971 0.688395 0.491406 0.840134
C3    C     C_R   0.926646 0.443440 0.894584 -0.168277
C4    C     C_R   0.951035 0.460871 0.098630 -0.164834
C5    C     C_R   0.927252 0.356336 0.880651 -0.184354
C6    C     C_R   0.945905 0.545846 0.112292 -0.173783
C7    C     C_R   0.913857 0.266092 0.916541 0.451782
C8    C     C_R   0.915192 0.616355 0.074935 0.445121
C9    C     C_R   0.933632 0.532144 0.858206 -0.088515
C10   C     C_R   0.972997 0.385364 0.136319 -0.098529
C11   C     C_R   0.988920 0.484840 0.645435 -0.238889
C12   C     C_R   0.993248 0.489729 0.353918 -0.251701
C13   C     C_R   0.938424 0.365802 0.033555 0.013369
C14   C     C_R   0.920380 0.529680 0.959179 0.013446
C15   C     C_R   0.914094 0.528092 0.009791 -0.096354
C16   C     C_R   0.919102 0.355870 0.981962 -0.100444
C17   C     C_R   0.934574 0.451605 0.047273 0.052428
C18   C     C_R   0.921328 0.442713 0.945217 0.052812
C19   C     C_R   0.969860 0.297063 0.071471 -0.224349
C20   C     C_R   0.931812 0.618133 0.922823 -0.230112
C21   C     C_R   0.987851 0.306118 0.121978 0.426880
C22   C     C_R   0.932923 0.618650 0.872808 0.416593
C23   C     C_R   0.998642 0.498297 0.592458 0.936407
C24   C     C_R   0.998266 0.497109 0.407280 0.850974
C25   C     C_R   0.901234 0.263674 0.965545 0.264806
C26   C     C_R   0.890348 0.601442 0.024670 0.260411
C27   C     C_R   0.813705 0.202743 0.509962 -0.195661
C28   C     C_R   0.188869 0.797010 0.483304 -0.207312
C29   C     C_R   0.783836 0.022500 0.539300 0.490013
C30   C     C_R   0.220444 0.973572 0.443510 0.491095
C31   C     C_R   0.848723 0.126566 0.536344 -0.397801
C32   C     C_R   0.153865 0.870688 0.453320 -0.397171
C33   C     C_R   0.712918 0.174821 0.486795 0.417920
C34   C     C_R   0.292179 0.825538 0.502859 0.498421
C35   C     C_R   0.642100 0.074475 0.499544 -0.161638
C36   C     C_R   0.362534 0.922981 0.484413 -0.137844
C37   C     C_R   0.679449 0.995670 0.519710 -0.031414
C38   C     C_R   0.325288 0.001021 0.461354 -0.084173
C39   C     C_R   0.535973 0.050454 0.490106 -0.146267
C40   C     C_R   0.468723 0.946664 0.491153 -0.042390
C41   C     C_R   0.508840 0.869770 0.498974 0.313761
C42   C     C_R   0.494206 0.126516 0.481965 0.340562
C43   C     C_R   0.613534 0.893282 0.516079 0.319006
C44   C     C_R   0.392537 0.104262 0.460363 0.410203
C45   C     C_R   0.940049 0.361954 0.830886 0.595044
C46   C     C_R   0.967707 0.555419 0.163497 0.604558
C47   C     C_R   0.705334 0.659178 0.411439 0.386564
C48   C     C_R   0.294860 0.348340 0.593588 0.288749
C49   C     C_R   0.794376 0.641819 0.429937 0.479063
C50   C     C_R   0.204899 0.365487 0.573266 0.471476
C51   C     C_R   0.712987 0.505922 0.491884 0.013292
C52   C     C_R   0.284958 0.487776 0.506834 0.052926
C53   C     C_R   0.626119 0.532114 0.480383 -0.117254
C54   C     C_R   0.370109 0.459273 0.519472 -0.120978
C55   C     C_R   0.619743 0.603784 0.436330 -0.152400
C56   C     C_R   0.376793 0.391884 0.565277 -0.175400
C57   C     C_R   0.544559 0.487879 0.510016 -0.102168
C58   C     C_R   0.450923 0.500490 0.489687 -0.027314
C59   C     C_R   0.440585 0.552983 0.439972 0.301126
C60   C     C_R   0.553116 0.432357 0.559461 0.292456
C61   C     C_R   0.527399 0.616193 0.417086 0.344246
C62   C     C_R   0.466819 0.373598 0.583089 0.483173
C63   C     C_R   0.946888 0.533285 0.809215 0.573026
C64   C     C_R   0.977157 0.390837 0.186948 0.549672
C65   C     C_R   0.059439 0.528808 0.729083 0.368407
C66   C     C_R   0.066941 0.468563 0.288435 0.359935
C67   C     C_R   0.065335 0.548523 0.677462 0.318029
C68   C     C_R   0.064368 0.462723 0.339591 0.326647
C69   C     C_R   0.900950 0.408836 0.663645 0.341000
C70   C     C_R   0.915891 0.507767 0.316852 0.329175
C71   C     C_R   0.890814 0.396590 0.714212 -0.245103
C72   C     C_R   0.911683 0.499705 0.266973 -0.272432
C73   C     C_R   0.968934 0.455937 0.747001 0.128624
C74   C     C_R   0.987185 0.482823 0.251952 0.133064
Cu1   Cu    Cu3+1 0.081740 0.475690 0.513040 1.009888
Cu2   Cu    Cu3+1 0.918260 0.524310 0.486960 0.991112
H1    H     H_    0.074376 0.848501 0.438060 0.215843
H2    H     H_    0.927153 0.147822 0.553578 0.196808
H3    H     H_    0.282237 0.550605 0.477509 0.233133
H4    H     H_    0.715494 0.441253 0.520066 0.228840
H5    H     H_    0.821522 0.341671 0.728152 0.177050
H6    H     H_    0.849690 0.508515 0.239109 0.181721
H7    H     H_    0.987155 0.238622 0.062284 0.200571
H8    H     H_    0.941291 0.689395 0.932676 0.205439
N1    N     N_R   0.951441 0.449888 0.796967 -0.452121
N2    N     N_R   0.979456 0.477092 0.199711 -0.447979
N3    N     N_R   0.795430 0.560780 0.467350 -0.257640
N4    N     N_R   0.204570 0.439220 0.532650 -0.238277
O1    O     O_R   0.977900 0.338120 0.517190 -0.559889
O2    O     O_R   0.022100 0.661880 0.482810 -0.596712
O3    O     O_R   0.839850 0.379180 0.495160 -0.536566
O4    O     O_R   0.160150 0.620820 0.504840 -0.533507
O5    O     O_R   0.069030 0.479490 0.580750 -0.526184
O6    O     O_R   0.930970 0.520510 0.419250 -0.560961
O7    O     O_R   0.930970 0.520550 0.558720 -0.577300
O8    O     O_R   0.069030 0.479450 0.441280 -0.562772
O9    O     O_2   0.943032 0.281254 0.816461 -0.509271
O10   O     O_2   0.976883 0.642112 0.177226 -0.516136
O11   O     O_2   0.975643 0.309710 0.223065 -0.509004
O12   O     O_2   0.957738 0.617705 0.774034 -0.515224
O13   O     O_3   0.825601 0.348711 0.631216 -0.703483
H9    H     H_    0.769048 0.299987 0.649775 0.332756
O14   O     O_3   0.844221 0.532046 0.329835 -0.731495
H10   H     H_    0.795736 0.541362 0.299599 0.313998
O15   O     O_3   0.322238 0.756663 0.539941 -0.566359
C75   C     C_3   0.357507 0.794536 0.585891 0.037037
H11   H     H_    0.297282 0.807763 0.597598 0.143092
H12   H     H_    0.425271 0.867432 0.582998 0.145085
C76   C     C_3   0.387587 0.715796 0.625899 -0.289612
H13   H     H_    0.320330 0.642853 0.630936 0.254826
H14   H     H_    0.445463 0.699980 0.613305 0.216428
C77   C     C_3   0.431351 0.754744 0.676015 -0.860245
H15   H     H_    0.498583 0.827831 0.671604 0.251885
H16   H     H_    0.455212 0.697414 0.703869 0.261498
H17   H     H_    0.373704 0.767259 0.690491 0.270521
O16   O     O_3   0.684123 0.245574 0.450837 -0.557082
C78   C     C_3   0.692595 0.234389 0.403084 0.073237
H18   H     H_    0.650548 0.153453 0.396619 0.132665
H19   H     H_    0.773854 0.259212 0.399442 0.120528
C79   C     C_3   0.647137 0.301748 0.363116 -0.286701
H20   H     H_    0.566126 0.277487 0.366694 0.223808
H21   H     H_    0.687593 0.382765 0.369157 0.252763
C80   C     C_3   0.654705 0.293800 0.310369 -0.900716
H22   H     H_    0.734831 0.315373 0.306229 0.266220
H23   H     H_    0.624566 0.346473 0.282299 0.256032
H24   H     H_    0.609743 0.214232 0.302807 0.256491
O17   O     O_3   0.820416 0.947128 0.562788 -0.651027
H25   H     H_    0.894397 0.979321 0.573666 0.312926
O18   O     O_3   0.184858 0.046848 0.415184 -0.672383
H26   H     H_    0.110657 0.014137 0.405106 0.322927
O19   O     O_3   0.445905 0.774260 0.486893 -0.738043
H27   H     H_    0.463103 0.721598 0.512690 0.329515
O20   O     O_3   0.546056 0.218644 0.499704 -0.718311
H28   H     H_    0.595459 0.209092 0.529381 0.334830
O21   O     O_3   0.519459 0.684619 0.373461 -0.599580
C81   C     C_3   0.509381 0.767988 0.386157 0.108323
H29   H     H_    0.569850 0.800250 0.417099 0.159321
H30   H     H_    0.433553 0.743067 0.397482 0.197380
C82   C     C_3   0.519454 0.853433 0.340851 -0.332561
H31   H     H_    0.595923 0.881438 0.329844 0.236629
H32   H     H_    0.461666 0.823287 0.308763 0.224601
C83   C     C_3   0.505321 0.943027 0.353126 -0.891515
H33   H     H_    0.428283 0.917797 0.362953 0.272737
H34   H     H_    0.514950 0.005043 0.320024 0.254018
H35   H     H_    0.562433 0.973923 0.385227 0.247135
O22   O     O_3   0.475722 0.310324 0.628543 -0.564521
C84   C     C_3   0.486825 0.222806 0.621183 0.123204
H36   H     H_    0.509323 0.183946 0.658795 0.166608
H37   H     H_    0.548944 0.243404 0.599064 0.163977
C85   C     C_3   0.387163 0.147097 0.596941 -0.339763
H38   H     H_    0.324095 0.133607 0.616926 0.259913
H39   H     H_    0.369871 0.179858 0.557062 0.233320
C86   C     C_3   0.393698 0.044445 0.598927 -0.968368
H40   H     H_    0.461427 0.055815 0.583277 0.257533
H41   H     H_    0.325105 0.995797 0.576473 0.251311
H42   H     H_    0.398232 0.004088 0.638307 0.260832
O23   O     O_3   0.117538 0.312107 0.594925 -0.705888
H43   H     H_    0.122601 0.250244 0.617839 0.317945
O24   O     O_3   0.879457 0.710677 0.409416 -0.728932
H44   H     H_    0.919319 0.673560 0.406249 0.374751
O25   O     O_3   0.704030 0.733000 0.369395 -0.552394
C87   C     C_3   0.695092 0.692143 0.326253 0.123128
H45   H     H_    0.628876 0.617470 0.324868 0.137865
H46   H     H_    0.765094 0.680590 0.325967 0.176436
C88   C     C_3   0.680028 0.767129 0.279188 -0.322354
H47   H     H_    0.607094 0.774719 0.277134 0.231723
H48   H     H_    0.742482 0.843683 0.281140 0.237513
C89   C     C_3   0.678508 0.730315 0.231749 -0.896682
H49   H     H_    0.751604 0.724183 0.232335 0.266282
H50   H     H_    0.666793 0.785955 0.198239 0.267859
H51   H     H_    0.615807 0.654326 0.228735 0.257315
O26   O     O_3   0.302080 0.288318 0.640365 -0.595127
C90   C     C_3   0.304540 0.338880 0.678860 0.067573
H52   H     H_    0.282668 0.279614 0.712461 0.173232
H53   H     H_    0.248741 0.375991 0.669374 0.151294
C91   C     C_3   0.410962 0.418027 0.693014 -0.315337
H54   H     H_    0.465627 0.379713 0.705168 0.266749
H55   H     H_    0.434809 0.478279 0.659960 0.212648
C92   C     C_3   0.413288 0.468912 0.735676 -0.914802
H56   H     H_    0.358833 0.507511 0.724583 0.272317
H57   H     H_    0.490551 0.527078 0.744534 0.264474
H58   H     H_    0.393369 0.410871 0.769884 0.263699
O27   O     O_3   0.345226 0.537456 0.413098 -0.714113
H59   H     H_    0.350038 0.565099 0.377038 0.376932
O28   O     O_3   0.645109 0.440310 0.588246 -0.721085
H60   H     H_    0.693054 0.512479 0.580982 0.337840
O29   O     O_3   0.901222 0.175832 0.902606 -0.532858
C93   C     C_3   0.991280 0.157642 0.920133 0.115701
H61   H     H_    0.009870 0.150958 0.961784 0.149425
H62   H     H_    0.055810 0.221036 0.902780 0.139583
C94   C     C_3   0.976761 0.057083 0.905540 -0.284932
H63   H     H_    0.914328 0.993016 0.923833 0.234935
H64   H     H_    0.955479 0.061323 0.864160 0.253336
C95   C     C_3   0.073099 0.035170 0.921452 -0.922654
H65   H     H_    0.135726 0.096733 0.902322 0.265168
H66   H     H_    0.059329 0.961032 0.910887 0.278213
H67   H     H_    0.095890 0.030108 0.962736 0.248503
O30   O     O_3   0.891584 0.688515 0.088493 -0.542162
C96   C     C_3   0.963182 0.787716 0.073765 0.117922
H68   H     H_    0.959273 0.806549 0.032164 0.170979
H69   H     H_    0.041441 0.793791 0.090968 0.132170
C97   C     C_3   0.939759 0.865785 0.091758 -0.286397
H70   H     H_    0.860050 0.856801 0.077011 0.240801
H71   H     H_    0.948531 0.851181 0.133475 0.245313
C98   C     C_3   0.009827 0.975540 0.074054 -0.895048
H72   H     H_    0.090209 0.986475 0.087894 0.254970
H73   H     H_    0.992277 0.029870 0.088797 0.284984
H74   H     H_    0.998488 0.993000 0.032411 0.257182
O31   O     O_3   0.137648 0.439231 0.375339 -0.539095
C99   C     C_3   0.116473 0.332814 0.382340 0.172901
H75   H     H_    0.190004 0.323389 0.393447 0.208537
H76   H     H_    0.079462 0.298126 0.347536 0.162459
C100  C     C_3   0.051809 0.274010 0.424628 -0.398772
H77   H     H_    0.090848 0.307071 0.459470 0.264678
H78   H     H_    0.977123 0.281004 0.413974 0.191145
C101  C     C_3   0.034582 0.160725 0.435541 -0.874190
H79   H     H_    0.998233 0.125360 0.401108 0.266658
H80   H     H_    0.984214 0.120204 0.464850 0.259039
H81   H     H_    0.107867 0.151791 0.449661 0.295917
O32   O     O_3   0.145635 0.631117 0.658005 -0.602292
C102  C     C_3   0.134391 0.723761 0.657268 0.089731
H82   H     H_    0.211157 0.784801 0.662505 0.159629
H83   H     H_    0.096583 0.721332 0.688469 0.197306
C103  C     C_3   0.076840 0.754233 0.606838 -0.399870
H84   H     H_    0.113341 0.754733 0.575898 0.217716
H85   H     H_    0.997481 0.697344 0.602819 0.232333
C104  C     C_3   0.075754 0.860217 0.602527 -0.859150
H86   H     H_    0.037154 0.860947 0.632467 0.272080
H87   H     H_    0.034245 0.880019 0.565420 0.271326
H88   H     H_    0.154248 0.919008 0.605800 0.248776
O33   O     O_3   0.148685 0.460313 0.275918 -0.695155
H89   H     H_    0.152625 0.487176 0.239772 0.328134
O34   O     O_3   0.141684 0.585019 0.760233 -0.698871
H90   H     H_    0.133564 0.553546 0.795657 0.331141
O35   O     O_3   0.024743 0.238968 0.155641 -0.691932
H91   H     H_    0.078830 0.278498 0.180135 0.353771
O36   O     O_3   0.934976 0.706152 0.839570 -0.683662
H92   H     H_    0.876707 0.684407 0.812720 0.352492
O37   O     O_3   0.863821 0.168410 0.994733 -0.720416
H93   H     H_    0.822724 0.171764 0.017609 0.337739
O38   O     O_3   0.833323 0.652219 0.992578 -0.724537
H94   H     H_    0.788873 0.608620 0.967151 0.336309
O39   O     O_3   0.654245 0.819372 0.526262 -0.666959
H95   H     H_    0.614927 0.766444 0.504654 0.306472
O40   O     O_3   0.355168 0.181043 0.444797 -0.674068
H96   H     H_    0.412170 0.248855 0.441707 0.356245

loop_
_geom_bond_atom_site_label_1
_geom_bond_atom_site_label_2
_ccdc_geom_bond_type
C66   C68   A    
C40   C41   A    
C88   H47   S    
C8    C26   A    
C14   C18   A    
C8    O30   S    
O37   H93   S    
C101  H81   S    
O27   H59   S    
C103  H84   S    
C77   H16   S    
O25   C87   S    
C57   C58   A    
C26   O38   S    
C41   O19   S    
C80   H22   S    
C47   C49   A    
C90   H52   S    
C27   C33   A    
C12   C68   A    
C61   O21   S    
O23   H43   S    
C97   H71   S    
C93   C94   S    
C65   O34   S    
C67   O32   S    
C84   H37   S    
C101  H80   S    
O22   C84   S    
C102  C103  S    
C24   O8    A    
Cu2   O7    S    
C35   C39   A    
C82   C83   S    
C9    C22   A    
C80   H23   S    
C95   H67   S    
C75   H11   S    
C25   O37   S    
O39   H95   S    
C66   C74   A    
C55   C61   A    
C65   C73   A    
O16   C78   S    
C30   C38   A    
C3    C18   A    
C60   C62   A    
O38   H94   S    
C83   H33   S    
C11   C23   S    
C2    O2    A    
C104  H86   S    
C49   N3    A    
C51   H4    S    
C77   H15   S    
C12   C70   A    
C76   H14   S    
Cu2   O6    S    
C32   H1    S    
C48   O26   S    
C64   O11   S    
C84   H36   S    
C93   H62   S    
C79   H21   S    
C65   C67   A    
C97   C98   S    
C96   C97   S    
O35   H91   S    
O30   C96   S    
C86   H41   S    
C52   H3    S    
O21   C81   S    
O34   H90   S    
C79   C80   S    
C50   N4    A    
C3    C5    A    
C92   H58   S    
C100  H78   S    
C95   H65   S    
C46   O10   S    
C28   C34   A    
C96   H68   S    
C1    O3    A    
C9    C63   A    
O40   H96   S    
C63   N1    A    
C41   C43   A    
C83   H35   S    
C88   H48   S    
C42   C44   A    
C81   C82   S    
C19   H7    S    
C68   O31   S    
C64   N2    A    
O32   C102  S    
C52   C54   A    
Cu1   O8    S    
C39   C42   A    
C87   H46   S    
C53   C55   A    
C50   O23   S    
C91   H55   S    
C54   C56   A    
C59   C61   A    
C69   C71   A    
C97   H70   S    
C13   C19   A    
C27   C31   A    
C94   H63   S    
O13   H9    S    
C14   C20   A    
C36   C40   A    
C84   C85   S    
C101  H79   S    
C72   C74   A    
C76   C77   S    
C51   N3    A    
C39   C40   A    
C71   C73   A    
C53   C57   A    
C70   O14   S    
C15   C26   A    
C6    C8    A    
C60   O28   S    
C43   O39   S    
C58   C59   A    
C98   H72   S    
C5    C45   A    
C66   O33   S    
C85   C86   S    
C20   H8    S    
C23   O5    A    
C93   H61   S    
C51   C53   A    
C37   C43   A    
C45   N1    A    
Cu1   Cu2   S    
C94   H64   S    
C38   C44   A    
C63   O12   S    
C3    C9    A    
C24   O6    A    
C102  H82   S    
C5    C7    A    
O24   H44   S    
C28   C32   A    
C29   C31   A    
O31   C99   S    
C79   H20   S    
C74   N2    S    
C86   H42   S    
C2    O4    A    
Cu2   N3    S    
C73   N1    S    
C56   C62   A    
C90   H53   S    
C44   O40   S    
C4    C17   A    
Cu1   O4    S    
C81   H30   S    
C89   H49   S    
C104  H87   S    
C20   C22   A    
C7    O29   S    
C88   C89   S    
C99   H76   S    
C42   O20   S    
O20   H28   S    
C85   H39   S    
C78   C79   S    
C4    C6    A    
C91   C92   S    
C11   C67   A    
C4    C10   A    
O19   H27   S    
C99   C100  S    
C103  C104  S    
C95   H66   S    
O33   H89   S    
C83   H34   S    
O26   C90   S    
Cu1   O5    S    
C31   H2    S    
C47   C55   A    
C87   H45   S    
C54   C58   A    
C98   H74   S    
C35   C37   A    
C16   C25   A    
C48   C56   A    
C100  C101  S    
C91   H54   S    
C33   O16   S    
C1    O1    A    
C6    C46   A    
C19   C21   A    
C14   C15   A    
C87   C88   S    
C10   C64   A    
C81   H29   S    
C80   H24   S    
C103  H85   S    
C10   C21   A    
C90   C91   S    
C82   H31   S    
C11   C69   A    
C15   C17   A    
C69   O13   S    
C30   O18   S    
O15   C75   S    
C12   C24   S    
O18   H26   S    
C7    C25   A    
C13   C17   A    
C89   H50   S    
C22   O36   S    
C78   H19   S    
C92   H57   S    
C29   O17   S    
C94   C95   S    
O29   C93   S    
C102  H83   S    
C45   O9    S    
C78   H18   S    
C36   C38   A    
C30   C32   A    
C82   H32   S    
O28   H60   S    
C21   O35   S    
C75   H12   S    
C100  H77   S    
O36   H92   S    
C34   O15   S    
C48   C50   A    
C33   C35   A    
C23   O7    A    
C34   C36   A    
C52   N4    A    
C96   H69   S    
Cu1   O1    S    
Cu2   O3    S    
C92   H56   S    
C47   O25   S    
Cu1   N4    S    
C57   C60   A    
C104  H88   S    
C70   C72   A    
C16   C18   A    
C99   H75   S    
C62   O22   S    
C13   C16   A    
C29   C37   A    
O14   H10   S    
C1    C27   S    
C59   O27   S    
C49   O24   S    
C2    C28   S    
C89   H51   S    
C71   H5    S    
C86   H40   S    
C76   H13   S    
C98   H73   S    
C77   H17   S    
C72   H6    S    
O17   H25   S    
Cu2   O2    S    
C85   H38   S    
C46   N2    A    
C75   C76   S    
