data_mof_unit_18914.cif
_audit_creation_date              2012-12-10T18:14:43-0500
_audit_creation_method            fapswitch 2.2
_symmetry_space_group_name_H-M    P1
_symmetry_Int_Tables_number       1
_space_group_crystal_system       triclinic
_cell_length_a                    10.759459
_cell_length_b                    9.404822
_cell_length_c                    27.801232
_cell_angle_alpha                 89.946294
_cell_angle_beta                  90.189688
_cell_angle_gamma                 90.101859
_cell_volume                      2813.20773234

loop_
_atom_site_label
_atom_site_type_symbol
_atom_type_description
_atom_site_fract_x
_atom_site_fract_y
_atom_site_fract_z
_atom_type_partial_charge
C1    C     C_R   0.259790 0.499530 0.499771 0.893985
C2    C     C_R   0.491185 0.372053 0.278798 -0.109119
C3    C     C_R   0.502760 0.500337 0.253673 0.368470
C4    C     C_R   0.501934 0.500693 0.101988 -0.044402
C5    C     C_R   0.389484 0.490996 0.127590 -0.020438
C6    C     C_R   0.277368 0.481217 0.102404 -0.145966
C7    C     C_R   0.614693 0.510324 0.127677 -0.019960
C8    C     C_R   0.501361 0.500151 0.354515 -0.036006
C9    C     C_R   0.499630 0.499976 0.645536 -0.020728
C10   C     C_R   0.386333 0.502746 0.974447 0.043241
C11   C     C_R   0.615978 0.498747 0.974534 0.043218
C12   C     C_R   0.500305 0.500053 0.407456 0.774463
C13   C     C_R   0.501000 0.500715 0.949231 0.068055
C14   C     C_R   0.274860 0.512570 0.947442 -0.203870
C15   C     C_R   0.275858 0.514716 0.897493 -0.141816
C16   C     C_R   0.387792 0.507525 0.872389 -0.023956
C17   C     C_R   0.500683 0.500633 0.898078 -0.043513
C18   C     C_R   0.613257 0.493645 0.872478 -0.022072
C19   C     C_R   0.610816 0.493164 0.821980 0.536114
C20   C     C_R   0.389605 0.507751 0.821892 0.538944
C21   C     C_R   0.486443 0.628091 0.721156 -0.096906
C22   C     C_R   0.486654 0.628193 0.671001 -0.190278
C23   C     C_R   0.739942 0.500008 0.499438 0.880032
C24   C     C_R   0.512485 0.371870 0.671177 -0.194222
C25   C     C_R   0.512870 0.372221 0.721333 -0.093734
C26   C     C_R   0.499756 0.500226 0.746393 0.358653
C27   C     C_R   0.386696 0.495989 0.025534 0.043574
C28   C     C_R   0.501621 0.500742 0.050836 0.067411
C29   C     C_R   0.616237 0.505525 0.025618 0.043589
C30   C     C_R   0.275722 0.483471 0.052456 -0.204521
C31   C     C_R   0.726500 0.520189 0.102567 -0.146002
C32   C     C_R   0.727121 0.488910 0.947617 -0.204268
C33   C     C_R   0.725505 0.486596 0.897669 -0.142011
C34   C     C_R   0.499793 0.499961 0.592578 0.853595
C35   C     C_R   0.727536 0.518034 0.052619 -0.204598
C36   C     C_3   0.074068 0.553109 0.549592 0.389149
C37   C     C_3   0.072006 0.344528 0.490543 0.416121
C38   C     C_3   0.927521 0.553050 0.549873 0.229160
C39   C     C_3   0.929467 0.344347 0.492412 0.243954
C40   C     C_3   0.072265 0.597303 0.459889 -0.624842
C41   C     C_3   0.122062 0.497870 0.500232 -0.133814
C42   C     C_3   0.877677 0.500109 0.499726 -0.167214
C43   C     C_3   0.929265 0.603867 0.461012 -0.415975
C44   C     C_3   0.621651 0.083885 0.485532 -0.159759
C45   C     C_3   0.621478 0.916515 0.485273 -0.199908
C46   C     C_3   0.474209 0.083553 0.549555 -0.185691
C47   C     C_3   0.474753 0.916045 0.549601 -0.189663
C48   C     C_3   0.404606 0.083652 0.467914 -0.197652
C49   C     C_3   0.404135 0.916114 0.468112 -0.187438
C50   C     C_R   0.391917 0.490600 0.178085 0.533662
C51   C     C_R   0.612862 0.510541 0.178176 0.532752
C52   C     C_R   0.513970 0.628501 0.278845 -0.107903
C53   C     C_R   0.513003 0.628630 0.329001 -0.226909
C54   C     C_R   0.490840 0.371731 0.328951 -0.231141
Cu1   Cu    Cu3+1 0.499860 0.642410 0.500020 0.921165
Cu2   Cu    Cu3+1 0.499860 0.357590 0.500020 0.942605
H1    H     H_    0.481791 0.271172 0.347635 0.146629
H2    H     H_    0.522904 0.727925 0.259480 0.134183
H3    H     H_    0.814351 0.529698 0.121469 0.186606
H4    H     H_    0.817572 0.479868 0.963984 0.135868
H5    H     H_    0.522754 0.271539 0.652566 0.143258
H6    H     H_    0.813258 0.479169 0.878833 0.188611
H7    H     H_    0.523102 0.273106 0.740785 0.136735
H8    H     H_    0.817628 0.529313 0.036317 0.135910
H9    H     H_    0.116899 0.658464 0.555642 0.090061
H10   H     H_    0.105274 0.307433 0.454915 0.088869
H11   H     H_    0.900103 0.470719 0.576614 0.145488
H12   H     H_    0.905358 0.287307 0.526255 0.146544
H13   H     H_    0.482581 0.272720 0.259398 0.134257
H14   H     H_    0.109905 0.706806 0.464397 0.210640
H15   H     H_    0.103695 0.558686 0.424131 0.193381
H16   H     H_    0.899759 0.714226 0.469256 0.214472
H17   H     H_    0.890496 0.584473 0.424753 0.176111
H18   H     H_    0.696524 0.120444 0.510258 0.173103
H19   H     H_    0.696899 0.879012 0.509508 0.175497
H20   H     H_    0.645161 0.124246 0.449050 0.178131
H21   H     H_    0.644274 0.877112 0.448629 0.140724
H22   H     H_    0.545502 0.121372 0.575632 0.134346
H23   H     H_    0.546734 0.878935 0.575510 0.154617
H24   H     H_    0.310843 0.121926 0.478222 0.196349
H25   H     H_    0.310362 0.878336 0.478909 0.150366
H26   H     H_    0.420971 0.122204 0.430660 0.133204
H27   H     H_    0.419354 0.876889 0.430896 0.142544
H28   H     H_    0.382830 0.122746 0.562619 0.195637
H29   H     H_    0.383839 0.875781 0.562928 0.150942
H30   H     H_    0.189743 0.471674 0.121243 0.186513
H31   H     H_    0.476209 0.728436 0.652243 0.143848
H32   H     H_    0.476281 0.727306 0.740467 0.136811
H33   H     H_    0.187873 0.522104 0.878588 0.188549
H34   H     H_    0.184613 0.521705 0.963736 0.135805
H35   H     H_    0.185429 0.472230 0.036095 0.135868
H36   H     H_    0.521625 0.729107 0.347732 0.146985
N1    N     N_R   0.502531 0.500513 0.202173 -0.470267
N2    N     N_R   0.500061 0.500380 0.797894 -0.472283
N3    N     N_3   0.500250 0.143650 0.501060 -0.136627
N4    N     N_3   0.500250 0.856350 0.501060 -0.122785
O1    O     O_R   0.317570 0.620260 0.500030 -0.618472
O2    O     O_R   0.317570 0.379740 0.500030 -0.536428
O3    O     O_R   0.499900 0.620250 0.430280 -0.600846
O4    O     O_R   0.499900 0.379750 0.430280 -0.601923
O5    O     O_R   0.682190 0.620260 0.500010 -0.559199
O6    O     O_R   0.682190 0.379740 0.500010 -0.585146
O7    O     O_R   0.499860 0.620280 0.569750 -0.589338
O8    O     O_R   0.499860 0.379720 0.569750 -0.592854
O9    O     O_2   0.284700 0.481090 0.202959 -0.535670
O10   O     O_2   0.281970 0.514570 0.796933 -0.516147
O11   O     O_2   0.720359 0.519969 0.203138 -0.537084
O12   O     O_2   0.718146 0.486239 0.797105 -0.521810
F1    F     F_    0.117739 0.467006 0.586490 -0.625939
F2    F     F_    0.116948 0.248946 0.524536 -0.646593
O13   O     O_3   0.862890 0.677615 0.565707 -0.575336
C55   C     C_3   0.932478 0.804547 0.567897 -0.267580
H37   H     H_    0.981688 0.827678 0.533761 0.143409
H38   H     H_    0.997086 0.802501 0.599137 0.187591
H39   H     H_    0.867281 0.893881 0.574031 0.179867
O14   O     O_3   0.873959 0.256387 0.456439 -0.593255
C56   C     C_3   0.874406 0.313482 0.409588 -0.300398
H40   H     H_    0.962778 0.366988 0.400033 0.148981
H41   H     H_    0.793027 0.384227 0.404418 0.167210
H42   H     H_    0.862626 0.224466 0.383833 0.185839

loop_
_geom_bond_atom_site_label_1
_geom_bond_atom_site_label_2
_ccdc_geom_bond_type
C10   C27   A    
C43   H17   S    
Cu2   N3    S    
C21   C26   A    
C26   N2    S    
C43   H16   S    
C48   N3    S    
C39   H12   S    
O13   C55   S    
C47   H23   S    
Cu1   Cu2   S    
C55   H38   S    
C23   O5    A    
C52   C53   A    
C24   H5    S    
C23   C42   S    
C40   H14   S    
C47   H29   S    
C28   C29   A    
C40   H15   S    
Cu1   O5    S    
C38   C42   S    
C56   H41   S    
C5    C6    A    
C9    C22   A    
C23   O6    A    
C31   H3    S    
C15   C16   A    
Cu1   O7    S    
O14   C56   S    
C18   C19   A    
C25   H7    S    
C49   H25   S    
C44   H20   S    
C14   H34   S    
C12   O3    A    
C40   C43   S    
C46   N3    S    
C33   H6    S    
C50   O9    S    
C47   N4    S    
C35   H8    S    
Cu2   O2    S    
C2    H13   S    
C16   C20   A    
C19   O12   S    
C21   H32   S    
C21   C22   A    
C27   C30   A    
C36   C41   S    
C4    C7    A    
C55   H37   S    
C4    C28   A    
C39   C42   S    
C20   O10   S    
C7    C31   A    
C24   C25   A    
Cu2   O8    S    
C10   C14   A    
C56   H42   S    
C1    O1    A    
C46   H22   S    
C36   H9    S    
Cu1   N4    S    
C25   C26   A    
C9    C24   A    
C34   O8    A    
C1    O2    A    
C15   H33   S    
C8    C12   S    
C37   H10   S    
Cu1   O1    S    
C53   H36   S    
C17   C18   A    
C3    N1    S    
C22   H31   S    
C44   H18   S    
C37   F2    S    
C19   N2    A    
C52   H2    S    
C51   N1    A    
C46   H28   S    
C1    C41   S    
C40   C41   S    
C6    C30   A    
C11   C32   A    
C2    C54   A    
C9    C34   S    
C31   C35   A    
C5    C50   A    
C42   C43   S    
C32   H4    S    
C8    C54   A    
C36   F1    S    
C44   C45   S    
C20   N2    A    
C46   C47   S    
C48   C49   S    
C30   H35   S    
C10   C13   A    
C8    C53   A    
C3    C52   A    
C50   N1    A    
C29   C35   A    
C34   O7    A    
C6    H30   S    
C13   C17   A    
C45   H19   S    
C32   C33   A    
C49   H27   S    
C36   C38   S    
C2    C3    A    
C7    C51   A    
C37   C39   S    
C44   N3    S    
C56   H40   S    
C11   C13   A    
C48   H24   S    
C16   C17   A    
C48   H26   S    
C49   N4    S    
C37   C41   S    
C18   C33   A    
C12   O4    A    
Cu2   O6    S    
C4    C5    A    
C38   H11   S    
C11   C29   A    
C51   O11   S    
C39   O14   S    
Cu1   O3    S    
C27   C28   A    
Cu2   O4    S    
C14   C15   A    
C45   H21   S    
C38   O13   S    
C45   N4    S    
C55   H39   S    
C54   H1    S    
