data_mof_unit_31762.cif
_audit_creation_date              2012-12-10T17:49:39-0500
_audit_creation_method            fapswitch 2.2
_symmetry_space_group_name_H-M    P1
_symmetry_Int_Tables_number       1
_space_group_crystal_system       triclinic
_cell_length_a                    14.709307
_cell_length_b                    14.716838
_cell_length_c                    15.870877
_cell_angle_alpha                 76.944087
_cell_angle_beta                  102.842946
_cell_angle_gamma                 114.833565
_cell_volume                      3005.64783041

loop_
_atom_site_label
_atom_site_type_symbol
_atom_type_description
_atom_site_fract_x
_atom_site_fract_y
_atom_site_fract_z
_atom_type_partial_charge
C1    C     C_R   0.880329 0.312332 0.513733 0.792551
C2    C     C_R   0.187271 0.795229 0.473202 -0.051008
C3    C     C_R   0.782998 0.030523 0.515779 -0.202166
C4    C     C_R   0.999888 0.500171 0.659684 0.829825
C5    C     C_R   0.849976 0.130302 0.521489 -0.198579
C6    C     C_R   0.708214 0.178959 0.504896 -0.250942
C7    C     C_R   0.638975 0.080026 0.494700 0.089311
C8    C     C_R   0.678072 0.004906 0.502183 0.162878
C9    C     C_R   0.532373 0.053684 0.478273 0.063724
C10   C     C_R   0.466213 0.950116 0.478228 0.064139
C11   C     C_R   0.508379 0.877839 0.484216 -0.223121
C12   C     C_3   0.118390 0.542137 0.063161 0.014950
C13   C     C_R   0.612267 0.905150 0.495455 -0.231070
C14   C     C_R   0.489750 0.127563 0.459908 -0.223942
C15   C     C_R   0.385818 0.100391 0.446901 -0.230531
C16   C     C_R   0.119682 0.687681 0.484893 0.792990
C17   C     C_R   0.320476 0.998917 0.453481 0.164695
C18   C     C_R   0.359908 0.922615 0.470574 0.088220
C19   C     C_R   0.215736 0.972894 0.443697 -0.202125
C20   C     C_R   0.149408 0.871601 0.452876 -0.199178
C21   C     C_R   0.291620 0.821145 0.482250 -0.256933
C22   C     C_R   0.716001 0.669240 0.356332 -0.326029
C23   C     C_3   0.007333 0.502414 0.084030 0.296176
C24   C     C_R   0.797564 0.639667 0.379188 0.077126
C25   C     C_R   0.714047 0.508181 0.487149 0.006517
C26   C     C_R   0.627984 0.534135 0.466756 -0.022668
C27   C     C_R   0.631272 0.617194 0.400040 0.166531
C28   C     C_R   0.000353 0.500088 0.340368 0.829211
C29   C     C_R   0.540161 0.482016 0.510297 0.076437
C30   C     C_R   0.457850 0.515364 0.486847 0.079181
C31   C     C_R   0.465777 0.599026 0.420173 -0.248672
C32   C     C_R   0.550538 0.648367 0.377683 -0.206341
C33   C     C_R   0.531785 0.397697 0.576313 -0.240109
C34   C     C_3   0.957208 0.573665 0.025520 -0.432428
C35   C     C_R   0.447392 0.348795 0.619270 -0.199297
C36   C     C_R   0.367397 0.380975 0.597957 0.165023
C37   C     C_R   0.370572 0.463952 0.531164 -0.023252
C38   C     C_R   0.283501 0.329959 0.642790 -0.323335
C39   C     C_R   0.202595 0.360457 0.620984 0.077031
C40   C     C_3   0.114119 0.534028 0.965684 -0.421368
C41   C     C_R   0.285151 0.490808 0.511819 0.008356
C42   C     C_3   0.941011 0.394632 0.961438 -0.381581
C43   C     C_3   0.944576 0.394378 0.059652 -0.383532
C44   C     C_1   0.001993 0.500988 0.250924 -0.190835
C45   C     C_3   0.959080 0.576464 0.927781 -0.385129
C46   C     C_3   0.003888 0.501905 0.917661 0.305846
C47   C     C_3   0.186420 0.490528 0.126615 -0.391186
C48   C     C_3   0.251836 0.550844 0.200678 -0.863780
C49   C     C_1   0.004637 0.501882 0.175762 -0.086924
C50   C     C_1   0.001588 0.501539 0.825060 -0.101062
C51   C     C_1   0.000205 0.500996 0.749299 -0.182896
C52   C     C_R   0.812655 0.205129 0.515348 -0.051772
Cu1   Cu    Cu3+1 0.081750 0.475690 0.522550 0.934537
Cu2   Cu    Cu3+1 0.918250 0.524310 0.477450 0.935461
H1    H     H_    0.162764 0.608509 0.932420 0.150979
H2    H     H_    0.682848 0.237392 0.505838 0.145352
H3    H     H_    0.144272 0.477949 0.960528 0.162085
H4    H     H_    0.463108 0.799559 0.477689 0.142729
H5    H     H_    0.534404 0.207790 0.452461 0.146599
H6    H     H_    0.185199 0.031009 0.429610 0.132583
H7    H     H_    0.553093 0.712225 0.326902 0.142485
H8    H     H_    0.279822 0.551281 0.460936 0.121821
H9    H     H_    0.137296 0.320497 0.654879 0.124518
H10   H     H_    0.444662 0.284662 0.669782 0.140648
H11   H     H_    0.719410 0.732863 0.305121 0.135508
H12   H     H_    0.154713 0.624522 0.068298 0.154925
H13   H     H_    0.863345 0.680271 0.345967 0.123950
H14   H     H_    0.719259 0.447695 0.538051 0.121870
H15   H     H_    0.861027 0.369668 0.928806 0.165436
H16   H     H_    0.407563 0.628803 0.399047 0.132607
H17   H     H_    0.589347 0.367011 0.596524 0.130727
H18   H     H_    0.280212 0.266400 0.694043 0.135406
H19   H     H_    0.971068 0.339325 0.954117 0.160852
H20   H     H_    0.976628 0.339441 0.099539 0.156031
H21   H     H_    0.865895 0.367255 0.074087 0.166611
H22   H     H_    0.005322 0.654717 0.899094 0.165224
H23   H     H_    0.877437 0.547036 0.036983 0.179154
H24   H     H_    0.880786 0.556242 0.891663 0.171287
H25   H     H_    0.997578 0.651682 0.042489 0.159444
H26   H     H_    0.304166 0.626744 0.173519 0.243322
H27   H     H_    0.204850 0.560391 0.240989 0.261910
H28   H     H_    0.297860 0.510194 0.243798 0.252251
H29   H     H_    0.140470 0.412681 0.155439 0.209862
H30   H     H_    0.239845 0.483747 0.091039 0.205529
H31   H     H_    0.641271 0.847418 0.499408 0.151881
H32   H     H_    0.318165 0.760575 0.501081 0.151481
H33   H     H_    0.068869 0.853167 0.445310 0.152099
H34   H     H_    0.356462 0.159436 0.432847 0.148514
H35   H     H_    0.813210 0.973504 0.520861 0.133365
H36   H     H_    0.930609 0.149012 0.529592 0.153640
N1    N     N_R   0.795410 0.560790 0.443550 -0.175998
N2    N     N_R   0.204590 0.439170 0.556520 -0.176198
O1    O     O_R   0.977910 0.338120 0.529720 -0.590177
O2    O     O_R   0.839850 0.379180 0.491640 -0.589615
O3    O     O_R   0.069060 0.479460 0.639610 -0.576384
O4    O     O_R   0.931000 0.520530 0.601530 -0.577417
O5    O     O_R   0.160150 0.620820 0.508360 -0.590459
O6    O     O_R   0.022090 0.661880 0.470280 -0.590565
O7    O     O_R   0.069000 0.479470 0.398470 -0.578923
O8    O     O_R   0.930940 0.520540 0.360390 -0.575869

loop_
_geom_bond_atom_site_label_1
_geom_bond_atom_site_label_2
_ccdc_geom_bond_type
C44   C49   T    
C8    C13   A    
Cu1   O3    S    
C18   C21   A    
C19   C20   A    
C7    C8    A    
C45   C46   S    
Cu1   O7    S    
C40   C46   S    
C14   H5    S    
C12   C23   S    
C26   C27   A    
C45   H22   S    
C36   C37   A    
C32   H7    S    
C34   H23   S    
C30   C31   A    
C16   O5    A    
C23   C49   S    
C20   H33   S    
C29   C33   A    
C23   C43   S    
C48   H27   S    
C7    C9    A    
C42   C46   S    
C24   H13   S    
C17   C19   A    
C4    O4    A    
C31   H16   S    
C47   C48   S    
C1    O2    A    
C5    C52   A    
C35   H10   S    
C47   H29   S    
C11   H4    S    
C2    C16   S    
C9    C10   A    
Cu2   O4    S    
C5    H36   S    
C28   O8    A    
C43   H20   S    
Cu2   O8    S    
C25   H14   S    
C41   H8    S    
C2    C21   A    
C12   C47   S    
C50   C51   T    
C43   H21   S    
C38   H18   S    
C25   N1    A    
C4    C51   S    
C2    C20   A    
C3    C8    A    
Cu1   O5    S    
C25   C26   A    
Cu1   Cu2   S    
C12   H12   S    
C28   C44   S    
C42   H15   S    
C30   C37   A    
C35   C36   A    
C12   C40   S    
C9    C14   A    
C22   H11   S    
C29   C30   A    
C34   H25   S    
C4    O3    A    
C31   C32   A    
C40   H1    S    
Cu1   N2    S    
C17   C18   A    
C34   C45   S    
C47   H30   S    
C45   H24   S    
C23   C34   S    
C28   O7    A    
C22   C27   A    
C22   C24   A    
C42   C43   S    
C24   N1    A    
C39   N2    A    
C15   C17   A    
C21   H32   S    
C42   H19   S    
C40   H3    S    
C27   C32   A    
C6    H2    S    
C3    C5    A    
C6    C7    A    
C19   H6    S    
C39   H9    S    
C46   C50   S    
C3    H35   S    
C48   H26   S    
C36   C38   A    
Cu2   N1    S    
C11   C13   A    
C16   O6    A    
C38   C39   A    
C10   C18   A    
C33   C35   A    
C48   H28   S    
C37   C41   A    
C1    C52   S    
Cu2   O2    S    
C10   C11   A    
C33   H17   S    
C41   N2    A    
C26   C29   A    
C1    O1    A    
C13   H31   S    
C14   C15   A    
Cu2   O6    S    
C6    C52   A    
Cu1   O1    S    
C15   H34   S    
