data_mof_unit_58570.cif
_audit_creation_date              2012-12-11T15:23:53-0500
_audit_creation_method            fapswitch 2.2
_symmetry_space_group_name_H-M    P1
_symmetry_Int_Tables_number       1
_space_group_crystal_system       triclinic
_cell_length_a                    17.362412
_cell_length_b                    24.431992
_cell_length_c                    14.992567
_cell_angle_alpha                 89.230465
_cell_angle_beta                  125.664318
_cell_angle_gamma                 91.207114
_cell_volume                      5165.86473635

loop_
_atom_site_label
_atom_site_type_symbol
_atom_type_description
_atom_site_fract_x
_atom_site_fract_y
_atom_site_fract_z
_atom_type_partial_charge
C1    C     C_R   0.311022 0.374015 0.908146 -0.083317
C2    C     C_R   0.427469 0.499488 0.630872 0.075055
C3    C     C_2   0.180870 0.920999 0.736392 1.031440
C4    C     C_R   0.065269 0.000759 0.366144 0.095210
C5    C     C_R   0.048937 0.001857 0.724351 0.077358
C6    C     C_R   0.190685 0.499363 0.641632 0.155837
C7    C     C_R   0.823336 0.500328 0.271126 0.132484
C8    C     C_R   0.689355 0.999208 0.643087 0.147185
C9    C     C_R   0.323333 0.000381 0.270616 0.131114
C10   C     C_2   0.976030 0.456659 0.362750 -0.109918
C11   C     C_2   0.073322 0.458695 0.462201 -0.064593
C12   C     C_2   0.476825 0.957142 0.362176 -0.099158
C13   C     C_R   0.663275 0.354625 0.089181 -0.098802
C14   C     C_2   0.574451 0.959940 0.461296 -0.123200
C15   C     C_2   0.924271 0.501930 0.319751 -0.151350
C16   C     C_2   0.105301 0.501486 0.530682 -0.182075
C17   C     C_2   0.424448 0.002243 0.319734 -0.157065
C18   C     C_2   0.602445 0.000882 0.533302 -0.181018
C19   C     C_R   0.175323 0.687511 0.945026 -0.152078
C20   C     C_R   0.720537 0.764114 0.102792 -0.149166
C21   C     C_R   0.677054 0.192237 0.937654 -0.153066
C22   C     C_R   0.214218 0.266156 0.100842 -0.133768
C23   C     C_R   0.635816 0.240341 0.934204 -0.165773
C24   C     C_R   0.810702 0.874751 0.909286 -0.087415
C25   C     C_R   0.258314 0.313447 0.099862 -0.143539
C26   C     C_R   0.130767 0.733439 0.944496 -0.169083
C27   C     C_R   0.762895 0.812439 0.103037 -0.152581
C28   C     C_R   0.693521 0.285302 0.995318 0.044380
C29   C     C_R   0.234264 0.335347 0.999906 0.054360
C30   C     C_R   0.184774 0.780690 0.997498 0.040677
C31   C     C_R   0.735724 0.836405 0.003319 0.073019
C32   C     C_R   0.793121 0.283598 0.059583 -0.081070
C33   C     C_R   0.146748 0.319402 0.902136 -0.073115
C34   C     C_R   0.283351 0.783854 0.049535 -0.093063
C35   C     C_R   0.157614 0.852018 0.090278 -0.099878
C36   C     C_R   0.647726 0.820626 0.905903 -0.088872
C37   C     C_R   0.326902 0.737101 0.051648 -0.224783
C38   C     C_R   0.606722 0.770695 0.905819 -0.217627
C39   C     C_R   0.833043 0.234646 0.064315 -0.224241
C40   C     C_R   0.104120 0.270459 0.903182 -0.220820
C41   C     C_R   0.406188 0.628178 0.090920 -0.129749
C42   C     C_R   0.561457 0.650621 0.909488 -0.114055
C43   C     C_R   0.905043 0.125510 0.092044 -0.133128
C44   C     C_R   0.058654 0.151494 0.909872 -0.129708
C45   C     C_R   0.272974 0.689731 0.000129 0.122366
C46   C     C_R   0.320807 0.644392 0.998699 0.049015
C47   C     C_R   0.648655 0.740098 0.003040 0.122399
C48   C     C_R   0.775194 0.189652 0.003840 0.120317
C49   C     C_R   0.143940 0.241158 0.001633 0.109007
C50   C     C_R   0.407233 0.547835 0.476007 -0.163070
C51   C     C_R   0.444387 0.546075 0.416420 -0.143808
C52   C     C_R   0.053967 0.050775 0.586780 -0.147385
C53   C     C_R   0.056775 0.049970 0.498145 -0.160529
C54   C     C_R   0.473161 0.496031 0.400095 0.066794
C55   C     C_R   0.395122 0.499303 0.516388 0.111412
C56   C     C_R   0.091008 0.004394 0.477313 0.079005
C57   C     C_R   0.623494 0.682424 0.001100 0.054345
C58   C     C_R   0.083614 0.005526 0.656421 0.064903
C59   C     C_R   0.448099 0.446319 0.429002 -0.131313
C60   C     C_R   0.393661 0.449249 0.470537 -0.187491
C61   C     C_R   0.137620 0.962387 0.556822 -0.154149
C62   C     C_R   0.132407 0.962570 0.647797 -0.165241
C63   C     C_R   0.525043 0.452999 0.289325 -0.131992
C64   C     C_R   0.449504 0.453992 0.697037 -0.084178
C65   C     C_R   0.048803 0.954571 0.304348 -0.114481
C66   C     C_R   0.016690 0.954952 0.747374 -0.106321
C67   C     C_R   0.241057 0.544992 0.701851 -0.154541
C68   C     C_R   0.820184 0.142971 0.000480 0.052121
C69   C     C_R   0.767884 0.545781 0.246213 -0.145160
C70   C     C_R   0.740163 0.044943 0.702698 -0.146321
C71   C     C_R   0.267853 0.045798 0.246153 -0.125672
C72   C     C_R   0.521645 0.543956 0.287663 -0.119831
C73   C     C_R   0.447483 0.545026 0.695550 -0.123936
C74   C     C_R   0.049608 0.045543 0.301650 -0.136584
C75   C     C_R   0.022005 0.046540 0.755209 -0.119498
C76   C     C_R   0.241872 0.453711 0.700561 -0.046974
C77   C     C_R   0.767138 0.454208 0.248573 -0.064844
C78   C     C_R   0.741189 0.953627 0.701324 -0.073949
C79   C     C_R   0.120043 0.183390 0.001020 0.064956
C80   C     C_R   0.267025 0.954188 0.247448 -0.042542
C81   C     C_R   0.313885 0.628466 0.906351 -0.111746
C82   C     C_R   0.650509 0.650943 0.092049 -0.140926
C83   C     C_R   0.813605 0.128031 0.907429 -0.109488
C84   C     C_R   0.149161 0.151398 0.092016 -0.140868
C85   C     C_R   0.401319 0.374543 0.090847 -0.136442
C86   C     C_R   0.574423 0.357685 0.904943 -0.106879
C87   C     C_R   0.901026 0.877333 0.092305 -0.130831
C88   C     C_R   0.066636 0.852835 0.906499 -0.096591
C89   C     C_R   0.310406 0.362466 0.998779 0.072527
C90   C     C_R   0.513579 0.497401 0.336733 0.067705
C91   C     C_R   0.648239 0.332280 0.996344 0.099290
C92   C     C_R   0.810359 0.864478 0.000749 0.073656
C93   C     C_R   0.137252 0.826306 0.998083 0.082211
C94   C     C_2   0.857115 0.331845 0.117735 0.978102
C95   C     C_2   0.097759 0.352911 0.800501 0.973546
C96   C     C_2   0.342035 0.834892 0.097361 0.989851
C97   C     C_2   0.596934 0.855293 0.805736 0.985096
C98   C     C_2   0.492100 0.393760 0.437042 1.019440
C99   C     C_2   0.336464 0.402231 0.469249 0.994606
C100  C     C_2   0.196903 0.922739 0.548234 0.988483
H1    H     H_    0.255396 0.366583 0.822982 0.100579
H2    H     H_    0.751127 0.743598 0.180571 0.111959
H3    H     H_    0.633275 0.157387 0.889357 0.131325
H4    H     H_    0.242394 0.246968 0.179315 0.132781
H5    H     H_    0.559164 0.242426 0.885256 0.127795
H6    H     H_    0.318144 0.328347 0.177709 0.182637
H7    H     H_    0.054738 0.732244 0.903838 0.125839
H8    H     H_    0.824242 0.826419 0.181217 0.118645
H9    H     H_    0.402516 0.737954 0.089260 0.165216
H10   H     H_    0.543937 0.755390 0.830006 0.160554
H11   H     H_    0.909525 0.232265 0.110367 0.165870
H12   H     H_    0.706514 0.338312 0.171671 0.081954
H13   H     H_    0.042039 0.254812 0.827170 0.157159
H14   H     H_    0.398942 0.587396 0.500715 0.117812
H15   H     H_    0.455885 0.584839 0.390269 0.116211
H16   H     H_    0.017808 0.084756 0.591872 0.117274
H17   H     H_    0.022533 0.083316 0.440168 0.118844
H18   H     H_    0.436977 0.639937 0.174558 0.102488
H19   H     H_    0.517522 0.663919 0.824877 0.095508
H20   H     H_    0.935201 0.134202 0.177079 0.106685
H21   H     H_    0.012541 0.165265 0.825777 0.092340
H22   H     H_    0.539933 0.411370 0.316821 0.116154
H23   H     H_    0.754539 0.866836 0.824461 0.100607
H24   H     H_    0.437206 0.411453 0.673955 0.095985
H25   H     H_    0.063575 0.912726 0.333099 0.102416
H26   H     H_    0.020609 0.913316 0.727792 0.112118
H27   H     H_    0.227933 0.586825 0.672654 0.099020
H28   H     H_    0.790187 0.588120 0.254493 0.104942
H29   H     H_    0.726226 0.086800 0.673656 0.097116
H30   H     H_    0.290070 0.088168 0.254574 0.104639
H31   H     H_    0.529073 0.585891 0.313157 0.087190
H32   H     H_    0.429732 0.586993 0.668435 0.092202
H33   H     H_    0.069249 0.087608 0.328345 0.098246
H34   H     H_    0.201320 0.837078 0.173820 0.082694
H35   H     H_    0.035528 0.089241 0.749346 0.101707
H36   H     H_    0.229114 0.412080 0.671058 0.082611
H37   H     H_    0.788722 0.412276 0.261705 0.093429
H38   H     H_    0.727616 0.911944 0.671871 0.080064
H39   H     H_    0.288297 0.912196 0.258663 0.085994
H40   H     H_    0.260046 0.639290 0.821934 0.106249
H41   H     H_    0.686320 0.664862 0.175625 0.092248
H42   H     H_    0.759944 0.139568 0.823396 0.103090
H43   H     H_    0.185587 0.165087 0.175827 0.096947
H44   H     H_    0.428249 0.367416 0.174812 0.125600
H45   H     H_    0.957661 0.542122 0.336303 0.125918
H46   H     H_    0.538392 0.346269 0.819804 0.105720
H47   H     H_    0.927645 0.874299 0.177374 0.099953
H48   H     H_    0.027317 0.839123 0.822309 0.095724
H49   H     H_    0.942969 0.416340 0.339391 0.130821
H50   H     H_    0.112476 0.420975 0.487445 0.138152
H51   H     H_    0.444452 0.916647 0.338102 0.132026
H52   H     H_    0.618158 0.924214 0.482574 0.129368
H53   H     H_    0.988559 0.359285 0.238099 0.328905
H54   H     H_    0.006316 0.355202 0.635347 0.325108
H55   H     H_    0.471743 0.868406 0.206005 0.326838
H56   H     H_    0.065700 0.538923 0.509108 0.126507
H57   H     H_    0.500584 0.859573 0.641447 0.327076
H58   H     H_    0.611290 0.349363 0.516752 0.324060
H59   H     H_    0.229405 0.377879 0.477848 0.313658
H60   H     H_    0.289066 0.910690 0.509826 0.323978
H61   H     H_    0.191471 0.841783 0.781229 0.328692
H62   H     H_    0.457910 0.042525 0.337908 0.128850
H63   H     H_    0.558664 0.036194 0.514989 0.138150
H64   H     H_    0.134653 0.650560 0.903856 0.129858
N1    N     N_R   0.395440 0.396300 0.944370 -0.053399
N2    N     N_R   0.474910 0.470990 0.794360 -0.046024
N3    N     N_R   0.025090 0.970990 0.205640 -0.043923
N4    N     N_R   0.974910 0.970990 0.794360 -0.049086
N5    N     N_R   0.320240 0.527820 0.794510 -0.042887
N6    N     N_R   0.679760 0.527820 0.205490 -0.045045
N7    N     N_R   0.820240 0.027820 0.794510 -0.042135
N8    N     N_R   0.179760 0.027820 0.205490 -0.043153
N9    N     N_R   0.524580 0.527810 0.205160 -0.039740
N10   N     N_R   0.475420 0.527810 0.794840 -0.041829
N11   N     N_R   0.024580 0.027810 0.205160 -0.041039
N12   N     N_R   0.604560 0.396300 0.055630 -0.042654
N13   N     N_R   0.975420 0.027810 0.794840 -0.046505
N14   N     N_R   0.320750 0.470990 0.794990 -0.049594
N15   N     N_R   0.679250 0.470990 0.205010 -0.051892
N16   N     N_R   0.820750 0.970990 0.794990 -0.047026
N17   N     N_R   0.179250 0.970990 0.205010 -0.047631
N18   N     N_R   0.393580 0.602500 0.942610 -0.043344
N19   N     N_R   0.606420 0.602500 0.057390 -0.038915
N20   N     N_R   0.893580 0.102500 0.942610 -0.043348
N21   N     N_R   0.106420 0.102500 0.057390 -0.038823
N22   N     N_R   0.451750 0.396300 0.057540 -0.047672
N23   N     N_R   0.895440 0.896300 0.944370 -0.054154
N24   N     N_R   0.548250 0.396300 0.942460 -0.046471
N25   N     N_R   0.951750 0.896300 0.057540 -0.048545
N26   N     N_R   0.048250 0.896300 0.942460 -0.039706
N27   N     N_R   0.104560 0.896300 0.055630 -0.038606
N28   N     N_R   0.449890 0.602500 0.055780 -0.042310
N29   N     N_R   0.550110 0.602500 0.944220 -0.040056
N30   N     N_R   0.949890 0.102500 0.055780 -0.042950
N31   N     N_R   0.050110 0.102500 0.944220 -0.038852
N32   N     N_R   0.525090 0.470990 0.205640 -0.043468
Ni1   Ni    Ni4+2 0.435420 0.434250 0.870220 0.225571
Ni2   Ni    Ni4+2 0.564580 0.434250 0.129780 0.227481
Ni3   Ni    Ni4+2 0.935420 0.934250 0.870220 0.219877
Ni4   Ni    Ni4+2 0.064580 0.934250 0.129780 0.234258
Ni5   Ni    Ni4+2 0.563400 0.564580 0.128670 0.222606
Ni6   Ni    Ni4+2 0.436600 0.564580 0.871330 0.221947
Ni7   Ni    Ni4+2 0.063400 0.064580 0.128670 0.228992
Ni8   Ni    Ni4+2 0.936600 0.064580 0.871330 0.220799
O1    O     O_2   0.829238 0.378398 0.085745 -0.633143
O2    O     O_R   0.588477 0.386729 0.519562 -0.792044
O3    O     O_2   0.352911 0.354973 0.460668 -0.615953
O4    O     O_R   0.262614 0.412687 0.478601 -0.817911
O5    O     O_2   0.196311 0.874275 0.568960 -0.604222
O6    O     O_R   0.252622 0.941220 0.514010 -0.795567
O7    O     O_2   0.240461 0.935705 0.830864 -0.594094
O8    O     O_R   0.155022 0.865686 0.713209 -0.767942
O9    O     O_R   0.951122 0.323719 0.207331 -0.812377
O10   O     O_2   0.109548 0.402633 0.806273 -0.637749
O11   O     O_R   0.035598 0.327962 0.698205 -0.812726
O12   O     O_2   0.307183 0.879835 0.061129 -0.603391
O13   O     O_R   0.438812 0.831246 0.181820 -0.816722
O14   O     O_2   0.610625 0.904872 0.813182 -0.632046
O15   O     O_R   0.530971 0.831613 0.703065 -0.808946
O16   O     O_2   0.445338 0.357150 0.371203 -0.654639

loop_
_geom_bond_atom_site_label_1
_geom_bond_atom_site_label_2
_ccdc_geom_bond_type
C58   C62   A    
C13   N12   A    
C32   C94   S    
C31   C92   S    
C14   H52   S    
C86   N24   A    
N26   N27   A    
N20   Ni8   S    
N4    Ni3   S    
C98   O16   D    
C81   H40   S    
C34   C37   A    
C95   O11   S    
C100  O5    D    
N10   Ni6   S    
C60   C99   S    
H53   O9    S    
C76   H36   S    
H59   O4    S    
C45   C46   S    
C67   N5    A    
C88   N26   A    
C77   N15   A    
C41   C46   A    
C87   H47   S    
C5    C58   S    
C43   N30   A    
C78   N16   A    
C27   H8    S    
C34   C96   S    
C54   C90   S    
C30   C93   S    
C76   N14   A    
C2    C55   S    
C10   H49   S    
C79   C84   A    
C75   H35   S    
C42   H19   S    
C53   C56   A    
C20   H2    S    
C57   C82   A    
C40   C49   A    
C23   H5    S    
C74   H33   S    
C29   C33   A    
C44   H21   S    
H57   O15   S    
C22   H4    S    
C42   C57   A    
C25   C29   A    
N9    Ni5   S    
C11   C16   D    
C32   C39   A    
C100  O6    S    
N7    Ni8   S    
C19   C26   A    
C14   C18   D    
N6    Ni5   S    
C64   N2    A    
C11   H50   S    
N5    Ni6   S    
N8    N17   A    
C69   H28   S    
C43   C68   A    
C94   O9    S    
C22   C25   A    
C12   C17   D    
C16   H56   S    
C35   N27   A    
N3    Ni4   S    
C97   O15   S    
C36   C97   S    
C41   H18   S    
C38   H10   S    
C37   H9    S    
C41   N28   A    
C43   H20   S    
C7    C77   A    
C21   C48   A    
C39   H11   S    
C73   H32   S    
C59   C60   A    
N18   Ni6   S    
C87   C92   A    
C4    C56   S    
C8    C78   A    
C12   H51   S    
C84   N21   A    
C94   O1    D    
N18   N28   A    
C81   N18   A    
N21   N31   A    
C82   H41   S    
C33   C95   S    
C85   H44   S    
C29   C89   S    
C2    C64   A    
N26   Ni3   S    
N12   N24   A    
C54   C59   A    
C52   H16   S    
C3    O7    D    
H61   O8    S    
N2    N10   A    
C33   C40   A    
C30   C34   A    
C27   C31   A    
H58   O2    S    
C28   C32   A    
C3    O8    S    
N27   Ni4   S    
N32   Ni2   S    
C10   C11   S    
N12   Ni2   S    
C15   H45   S    
C85   C89   A    
C5    C66   A    
N31   Ni8   S    
C84   H43   S    
C72   N9    A    
N6    N15   A    
C82   N19   A    
C24   H23   S    
C8    C18   S    
N29   Ni6   S    
C66   H26   S    
N23   Ni3   S    
C50   H14   S    
C9    C80   A    
N19   Ni5   S    
C5    C75   A    
C42   N29   A    
C70   N7    A    
C63   N32   A    
N1    Ni1   S    
C47   C57   S    
C46   C81   A    
C72   C90   A    
C18   H63   S    
C35   C93   A    
C40   H13   S    
C1    N1    A    
N28   Ni5   S    
C50   C55   A    
N9    N32   A    
C50   C51   A    
C88   H48   S    
N13   Ni8   S    
C56   C61   A    
C80   N17   A    
C48   C68   S    
C69   N6    A    
C38   C47   A    
C2    C73   A    
C52   C58   A    
C22   C49   A    
N25   Ni4   S    
C9    C17   S    
C6    C67   A    
C20   C27   A    
N14   Ni1   S    
C12   C14   S    
C26   C30   A    
C21   C23   A    
C67   H27   S    
C24   C92   A    
N8    Ni7   S    
N7    N16   A    
C61   C100  S    
C23   C28   A    
C37   C45   A    
C1    H1    S    
N5    N14   A    
C86   H46   S    
C63   H22   S    
C52   C53   A    
C72   H31   S    
N3    N11   A    
C3    C62   S    
C85   N22   A    
C59   C98   S    
C88   C93   A    
C44   N31   A    
C1    C89   A    
C25   H6    S    
C35   H34   S    
C71   N8    A    
C68   C83   A    
C4    C74   A    
C44   C79   A    
N22   Ni2   S    
C9    C71   A    
C77   H37   S    
H54   O11   S    
C26   H7    S    
C7    C69   A    
C83   H42   S    
C19   C45   A    
C6    C76   A    
N15   Ni2   S    
C66   N4    A    
C13   H12   S    
C80   H39   S    
H60   O6    S    
C65   N3    A    
C8    C70   A    
N1    N22   A    
C96   O12   D    
C87   N25   A    
C99   O4    S    
C10   C15   D    
C51   C54   A    
N21   Ni7   S    
C36   C38   A    
C97   O14   D    
N2    Ni1   S    
N11   Ni7   S    
C74   N11   A    
N16   Ni3   S    
C64   H24   S    
C78   H38   S    
C71   H30   S    
C4    C65   A    
N24   Ni1   S    
N4    N13   A    
N20   N30   A    
N30   Ni7   S    
C63   C90   A    
C7    C15   S    
N19   N29   A    
C83   N20   A    
H55   O13   S    
C28   C91   S    
C53   H17   S    
C19   H64   S    
C70   H29   S    
C61   C62   A    
C75   N13   A    
C51   H15   S    
N23   N25   A    
C20   C47   A    
C17   H62   S    
C6    C16   S    
C21   H3    S    
C49   C79   S    
C73   N10   A    
C86   C91   A    
C99   O3    D    
C95   O10   D    
C31   C36   A    
C98   O2    S    
C24   N23   A    
C55   C60   A    
N17   Ni4   S    
C13   C91   A    
C96   O13   S    
C65   H25   S    
C39   C48   A    
