data_mof_unit_55101.cif
_audit_creation_date              2012-12-11T14:23:18-0500
_audit_creation_method            fapswitch 2.2
_symmetry_space_group_name_H-M    P1
_symmetry_Int_Tables_number       1
_space_group_crystal_system       triclinic
_cell_length_a                    10.992956
_cell_length_b                    11.031497
_cell_length_c                    18.828493
_cell_angle_alpha                 89.869656
_cell_angle_beta                  89.540666
_cell_angle_gamma                 60.276946
_cell_volume                      1982.83043053

loop_
_atom_site_label
_atom_site_type_symbol
_atom_type_description
_atom_site_fract_x
_atom_site_fract_y
_atom_site_fract_z
_atom_type_partial_charge
C1    C     C_R   0.234461 0.645163 0.609416 0.544081
C2    C     C_3   0.699336 0.540370 0.800122 -0.309896
C3    C     C_3   0.699653 0.678185 0.812616 -0.016495
C4    C     C_3   0.669813 0.649818 0.676741 0.068036
C5    C     C_3   0.795021 0.675807 0.686788 -0.265624
C6    C     C_3   0.698521 0.516074 0.720052 0.058728
C7    C     C_R   0.692376 0.147259 0.820378 -0.023046
C8    C     C_R   0.801141 0.150938 0.780398 0.027912
C9    C     C_R   0.798155 0.142273 0.704668 0.033069
C10   C     C_R   0.574047 0.152265 0.711437 -0.159725
C11   C     C_R   0.581016 0.149070 0.783482 -0.178816
C12   C     C_R   0.653128 0.621359 0.601339 0.599375
C13   C     C_R   0.914030 0.160189 0.811386 0.265359
C14   C     C_R   0.029240 0.134944 0.769424 -0.072458
C15   C     C_R   0.030496 0.115440 0.696619 -0.155914
C16   C     C_R   0.916620 0.117577 0.664319 -0.046579
C17   C     C_R   0.676056 0.158964 0.671138 -0.002126
C18   C     C_R   0.176290 0.673053 0.833180 0.040186
C19   C     C_R   0.206851 0.546534 0.799829 0.039784
C20   C     C_R   0.195425 0.543092 0.724672 -0.018763
C21   C     C_R   0.155400 0.779021 0.718740 -0.115319
C22   C     C_R   0.155874 0.785968 0.791594 -0.124872
C23   C     C_R   0.630743 0.223864 0.601181 0.540776
C24   C     C_R   0.248174 0.424030 0.839923 0.255811
C25   C     C_R   0.240637 0.311741 0.809113 0.213402
C26   C     C_R   0.215658 0.313962 0.736460 -0.145759
C27   C     C_R   0.195894 0.426242 0.694373 -0.167517
C28   C     C_R   0.181904 0.658102 0.683518 0.002390
C29   C     C_R   0.657952 0.674430 0.169329 0.029541
C30   C     C_R   0.713257 0.538924 0.196971 0.033862
C31   C     C_R   0.743647 0.518930 0.269863 0.026371
C32   C     C_R   0.614445 0.770416 0.288480 -0.175397
C33   C     C_R   0.617493 0.787995 0.215658 -0.116008
C34   C     C_R   0.283630 0.624035 0.392501 0.558006
C35   C     C_R   0.761519 0.421909 0.151551 -0.072332
C36   C     C_R   0.869815 0.293321 0.172816 -0.109456
C37   C     C_R   0.919615 0.276448 0.241618 -0.116486
C38   C     C_R   0.854455 0.385242 0.290577 -0.082808
C39   C     C_R   0.671355 0.637169 0.316565 0.000905
C40   C     C_R   0.660316 0.141106 0.180463 -0.043175
C41   C     C_R   0.529238 0.193229 0.213910 -0.027581
C42   C     C_R   0.526312 0.170160 0.287081 -0.017356
C43   C     C_R   0.776098 0.094584 0.295363 0.207349
C44   C     C_R   0.782912 0.083748 0.222028 -0.081481
C45   C     C_R   0.644443 0.618585 0.391308 0.530831
C46   C     C_R   0.402672 0.257180 0.175601 -0.072809
C47   C     C_R   0.279476 0.276385 0.206484 -0.133209
C48   C     C_R   0.278590 0.238034 0.276543 -0.084008
C49   C     C_R   0.402095 0.175737 0.315677 0.272115
C50   C     C_R   0.644770 0.150119 0.328279 -0.025447
C51   C     C_R   0.170430 0.654363 0.176672 0.063925
C52   C     C_R   0.260090 0.704253 0.197541 -0.010018
C53   C     C_R   0.272343 0.721476 0.270343 -0.040334
C54   C     C_R   0.165659 0.577886 0.295697 -0.128609
C55   C     C_R   0.118691 0.595530 0.226290 0.183326
C56   C     C_R   0.617730 0.223418 0.396752 0.517698
C57   C     C_R   0.314065 0.762224 0.147602 0.257240
C58   C     C_R   0.320337 0.881866 0.167791 0.241544
C59   C     C_R   0.311783 0.913337 0.239580 -0.115805
C60   C     C_R   0.302343 0.827036 0.290539 -0.132773
C61   C     C_R   0.240987 0.641458 0.318721 -0.001663
C62   C     C_R   0.703732 0.100017 0.895030 0.546294
C63   C     C_R   0.724695 0.689435 0.888220 0.593016
C64   C     C_R   0.118208 0.706787 0.905641 0.632938
C65   C     C_R   0.677191 0.102630 0.105460 0.526562
C66   C     C_R   0.695639 0.690610 0.097215 0.532921
C67   C     C_3   0.558743 0.805006 0.785813 0.138482
C68   C     C_R   0.094565 0.707484 0.111417 0.634452
C69   C     C_3   0.533964 0.780928 0.707097 0.430801
C70   C     C_3   0.823528 0.674332 0.767797 0.051603
Cr1   Cr    Cr6+3 0.392940 0.397950 0.502230 1.041775
Cr2   Cr    Cr6+3 0.398400 0.708500 0.501260 1.060720
Cr3   Cr    Cr6+3 0.708640 0.393530 0.496460 1.031254
Cr4   Cr    Cr6+3 0.937880 0.938320 0.007620 1.073791
Cr5   Cr    Cr6+3 0.625560 0.937220 0.994510 1.073350
Cr6   Cr    Cr6+3 0.938080 0.625010 0.001190 1.092210
H1    H     H_    0.890631 0.595105 0.659056 0.122306
H2    H     H_    0.483235 0.156125 0.687422 0.175322
H3    H     H_    0.500481 0.138011 0.809865 0.209599
H4    H     H_    0.118885 0.130112 0.793696 0.218400
H5    H     H_    0.137312 0.882100 0.815768 0.179652
H6    H     H_    0.008007 0.177792 0.257404 0.159609
H7    H     H_    0.904777 0.364299 0.341448 0.159197
H8    H     H_    0.793987 0.452732 0.824032 0.187013
H9    H     H_    0.608877 0.539717 0.826328 0.079225
O1    O     O_R   0.507340 0.255690 0.581430 -0.514683
O2    O     O_R   0.524510 0.695820 0.424050 -0.523075
O3    O     O_R   0.736370 0.504260 0.414810 -0.538454
O4    O     O_R   0.691220 0.277270 0.422180 -0.496930
O5    O     O_3   0.499990 0.499990 0.499980 -0.288244
O6    O     O_R   0.089570 0.825450 0.930590 -0.503718
O7    O     O_R   0.818700 0.054260 0.929860 -0.456874
O8    O     O_R   0.606310 0.077010 0.915520 -0.524234
O9    O     O_R   0.646730 0.806540 0.917560 -0.461547
O10   O     O_R   0.837290 0.593240 0.915240 -0.522496
O11   O     O_R   0.065320 0.635310 0.931580 -0.448063
O12   O     O_R   0.280360 0.527380 0.578910 -0.511607
O13   O     O_R   0.068470 0.828620 0.091850 -0.513885
O14   O     O_R   0.799150 0.057200 0.079350 -0.528880
O15   O     O_R   0.585220 0.080180 0.076770 -0.500875
O16   O     O_R   0.627170 0.809480 0.067050 -0.492532
O17   O     O_R   0.816200 0.596410 0.076500 -0.494880
O18   O     O_R   0.045770 0.638240 0.081070 -0.452194
O19   O     O_3   0.833840 0.833520 0.001110 -0.282933
O20   O     O_R   0.260600 0.739610 0.584580 -0.482596
O21   O     O_R   0.532370 0.695050 0.573830 -0.430857
O22   O     O_R   0.744850 0.503430 0.576380 -0.481020
O23   O     O_R   0.699080 0.276500 0.571950 -0.493221
O24   O     O_R   0.498860 0.256520 0.419860 -0.489947
O25   O     O_R   0.272490 0.528150 0.429140 -0.501537
O26   O     O_R   0.252110 0.740440 0.423010 -0.522396
H10   H     H_    0.571215 0.898548 0.787707 0.184352
O27   O     O_3   0.825106 0.399782 0.698645 -0.681096
H11   H     H_    0.904858 0.408442 0.716566 0.323298
H12   H     H_    0.920451 0.574719 0.779802 0.180785
O28   O     O_3   0.911797 0.205724 0.879720 -0.683777
H13   H     H_    0.812751 0.268558 0.893633 0.314513
H14   H     H_    0.121440 0.095030 0.665074 0.123004
H15   H     H_    0.923703 0.096460 0.607916 0.130393
H16   H     H_    0.148956 0.864297 0.689057 0.180851
O29   O     O_3   0.440715 0.838877 0.829295 -0.666086
H17   H     H_    0.445339 0.752168 0.846816 0.317597
O30   O     O_3   0.304469 0.413988 0.906626 -0.713354
H18   H     H_    0.364643 0.314605 0.919217 0.341469
O31   O     O_3   0.263846 0.196219 0.847939 -0.713296
H19   H     H_    0.233822 0.225472 0.897703 0.344250
H20   H     H_    0.215613 0.226042 0.711649 0.122882
H21   H     H_    0.173084 0.422748 0.639024 0.157546
H22   H     H_    0.569184 0.860240 0.322842 0.127831
H23   H     H_    0.726916 0.433111 0.097000 0.127772
H24   H     H_    0.584977 0.891586 0.195430 0.175159
H25   H     H_    0.917727 0.207796 0.135304 0.136500
O32   O     O_3   0.417202 0.761675 0.701267 -0.654279
H26   H     H_    0.429344 0.685789 0.733620 0.293299
O33   O     O_3   0.899263 0.046538 0.332551 -0.706700
H27   H     H_    0.881383 0.036319 0.383255 0.333967
H28   H     H_    0.398253 0.290948 0.121225 0.159370
H29   H     H_    0.886094 0.030102 0.197740 0.166701
H30   H     H_    0.185419 0.316791 0.175093 0.181865
H31   H     H_    0.183585 0.247179 0.299128 0.119341
O34   O     O_3   0.399758 0.110243 0.377924 -0.698267
H32   H     H_    0.497392 0.046157 0.392775 0.323811
H33   H     H_    0.132170 0.525209 0.333041 0.133976
O35   O     O_3   0.348033 0.706696 0.079822 -0.707525
H34   H     H_    0.413291 0.733576 0.057826 0.326310
O36   O     O_3   0.015730 0.564916 0.207213 -0.691666
H35   H     H_    0.988421 0.529717 0.249300 0.316614
O37   O     O_3   0.507265 0.899432 0.666974 -0.706045
H36   H     H_    0.414014 0.976473 0.682094 0.344739
O38   O     O_3   0.335012 0.969032 0.120135 -0.705199
H37   H     H_    0.304556 0.956434 0.072712 0.337038
H38   H     H_    0.324981 0.998210 0.256469 0.157259
H39   H     H_    0.309311 0.854185 0.344394 0.195850
O39   O     O_3   0.851707 0.781215 0.787218 -0.713317
H40   H     H_    0.781641 0.869317 0.764801 0.326930
H41   H     H_    0.771317 0.776630 0.661955 0.157546
H42   H     H_    0.615715 0.488751 0.709108 0.163021

loop_
_geom_bond_atom_site_label_1
_geom_bond_atom_site_label_2
_ccdc_geom_bond_type
Cr6   O19   S    
C8    C13   A    
C29   C33   A    
C38   H7    S    
C41   C42   A    
C66   O17   A    
C2    H8    S    
C35   C36   A    
C68   O18   A    
C6    H42   S    
C10   H2    S    
O30   H18   S    
C6    O27   S    
C59   H38   S    
C7    C11   A    
Cr1   O12   S    
C63   O9    A    
C26   C27   A    
C17   C23   S    
C30   C35   A    
C36   C37   A    
C45   O2    A    
C9    C16   A    
Cr3   O5    S    
O27   H11   S    
C21   H16   S    
C36   H25   S    
Cr6   O10   S    
C30   C31   A    
Cr3   O22   S    
C10   C17   A    
C15   C16   A    
Cr1   O25   S    
C63   O10   A    
O28   H13   S    
C2    H9    S    
C18   C19   A    
C32   C39   A    
Cr4   O7    S    
C25   O31   S    
C60   H39   S    
C4    C69   S    
C54   C55   A    
C53   C61   A    
C19   C20   A    
C8    C9    A    
C23   O1    A    
C49   O34   S    
C1    C28   S    
C69   O32   S    
C41   C46   A    
C7    C62   S    
C14   H4    S    
C4    C12   S    
C39   C45   S    
C33   H24   S    
Cr6   O18   S    
C54   H33   S    
Cr2   O26   S    
C59   C60   A    
C70   O39   S    
C21   C22   A    
C34   O26   A    
C66   O16   A    
C2    C6    S    
C67   O29   S    
C32   H22   S    
C53   C60   A    
Cr6   O17   S    
C48   H31   S    
C51   C52   A    
C22   H5    S    
O33   H27   S    
C3    C70   S    
O37   H36   S    
C64   O11   A    
C4    C6    S    
Cr5   O19   S    
C10   C11   A    
C16   H15   S    
C1    O12   A    
O35   H34   S    
C55   O36   S    
C20   C28   A    
C58   C59   A    
C24   O30   S    
C50   C56   S    
C62   O7    A    
C67   C69   S    
Cr4   O6    S    
C37   C38   A    
C43   C44   A    
Cr3   O3    S    
C29   C30   A    
Cr1   O1    S    
Cr2   O5    S    
C27   H21   S    
C47   C48   A    
C45   O3    A    
O39   H40   S    
C24   C25   A    
C43   O33   S    
C35   H23   S    
C65   O14   A    
O29   H17   S    
C11   H3    S    
C42   C50   A    
C46   H28   S    
C9    C17   A    
C40   C41   A    
C54   C61   A    
C21   C28   A    
Cr2   O21   S    
C40   C65   S    
O32   H26   S    
C34   O25   A    
C37   H6    S    
C5    H1    S    
C56   O24   A    
Cr2   O2    S    
C52   C53   A    
Cr5   O8    S    
Cr4   O19   S    
O36   H35   S    
C56   O4    A    
C46   C47   A    
C48   C49   A    
C44   H29   S    
Cr4   O13   S    
C57   O35   S    
C18   C22   A    
C3    C67   S    
C65   O15   A    
C4    C5    S    
Cr3   O23   S    
C5    C70   S    
C26   H20   S    
C12   O22   A    
C15   H14   S    
C43   C50   A    
Cr4   O14   S    
C20   C27   A    
C3    C63   S    
C70   H12   S    
C5    H41   S    
O38   H37   S    
C31   C38   A    
C32   C33   A    
C19   C24   A    
C25   C26   A    
Cr3   O4    S    
O34   H32   S    
Cr6   O11   S    
C12   O21   A    
C18   C64   S    
C57   C58   A    
O31   H19   S    
Cr1   O5    S    
C23   O23   A    
Cr1   O24   S    
Cr5   O15   S    
C31   C39   A    
C2    C3    S    
C51   C55   A    
C51   C68   S    
C34   C61   S    
C68   O13   A    
C13   O28   S    
C7    C8    A    
C52   C57   A    
C42   C49   A    
C29   C66   S    
C67   H10   S    
C40   C44   A    
Cr2   O20   S    
C62   O8    A    
C47   H30   S    
Cr5   O16   S    
C69   O37   S    
C14   C15   A    
C64   O6    A    
C13   C14   A    
C58   O38   S    
Cr5   O9    S    
C1    O20   A    
