data_mof_unit_54552.cif
_audit_creation_date              2012-12-10T18:31:49-0500
_audit_creation_method            fapswitch 2.2
_symmetry_space_group_name_H-M    P1
_symmetry_Int_Tables_number       1
_space_group_crystal_system       triclinic
_cell_length_a                    10.672347
_cell_length_b                    15.047729
_cell_length_c                    15.378601
_cell_angle_alpha                 81.542194
_cell_angle_beta                  91.036614
_cell_angle_gamma                 104.818866
_cell_volume                      2361.11659547

loop_
_atom_site_label
_atom_site_type_symbol
_atom_type_description
_atom_site_fract_x
_atom_site_fract_y
_atom_site_fract_z
_atom_type_partial_charge
C1    C     C_R   0.479605 0.441457 0.662309 0.853585
C2    C     C_3   0.121347 0.496348 0.502554 0.148309
C3    C     C_3   0.095119 0.568591 0.426048 -0.385095
C4    C     C_3   0.086793 0.520456 0.592364 -0.462585
C5    C     C_R   0.482953 0.405422 0.755456 -0.113322
C6    C     C_R   0.548395 0.595230 0.244504 -0.073065
C7    C     C_R   0.566701 0.305295 0.866345 -0.182566
C8    C     C_R   0.526644 0.325228 0.780742 -0.203323
C9    C     C_R   0.467510 0.460413 0.818591 0.162884
C10   C     C_R   0.534717 0.452207 0.898015 0.061917
C11   C     C_R   0.575153 0.369883 0.924501 0.109883
C12   C     C_R   0.742215 0.500143 0.502150 0.834194
C13   C     C_R   0.562283 0.523089 0.951642 0.068066
C14   C     C_R   0.595241 0.501244 0.040091 -0.009824
C15   C     C_R   0.636636 0.418466 0.065863 -0.015501
C16   C     C_R   0.627669 0.354663 0.007322 -0.254111
C17   C     C_R   0.565178 0.616359 0.918254 -0.153340
C18   C     C_R   0.582702 0.683424 0.973746 -0.260871
C19   C     C_R   0.585910 0.657010 0.064298 0.180145
C20   C     C_R   0.585735 0.564175 0.098013 0.092372
C21   C     C_R   0.582491 0.720411 0.121947 -0.202850
C22   C     C_R   0.566288 0.689866 0.212127 -0.183357
C23   C     C_R   0.521537 0.558532 0.337621 0.874834
C24   C     C_R   0.559064 0.533662 0.187351 -0.251278
C25   C     C_R   0.701885 0.845510 0.632976 -0.337583
C26   C     C_R   0.657484 0.753889 0.618901 0.120954
C27   C     C_R   0.518331 0.795599 0.506856 0.052578
C28   C     C_R   0.545283 0.887316 0.528871 -0.072787
C29   C     C_R   0.650975 0.914175 0.584990 0.069771
C30   C     C_R   0.474113 0.953212 0.497035 0.077725
C31   C     C_R   0.526214 0.048541 0.505121 0.031345
C32   C     C_R   0.644357 0.074646 0.548756 -0.273130
C33   C     C_R   0.703462 0.008497 0.592983 0.237031
C34   C     C_R   0.258000 0.498452 0.500613 0.837152
C35   C     C_R   0.348284 0.925873 0.463450 -0.205038
C36   C     C_R   0.284798 0.990730 0.425044 -0.211290
C37   C     C_R   0.338834 0.084840 0.426582 0.178252
C38   C     C_R   0.457010 0.114675 0.470371 0.016527
C39   C     C_R   0.271379 0.149027 0.389612 -0.316410
C40   C     C_R   0.317628 0.241433 0.400446 0.017919
C41   C     C_R   0.496561 0.209194 0.481193 -0.064067
C42   C     C_3   0.893170 0.399067 0.500404 -0.409627
C43   C     C_3   0.035276 0.398886 0.492497 -0.405396
C44   C     C_3   0.949589 0.562901 0.421547 -0.433512
C45   C     C_3   0.947930 0.534623 0.590174 0.037382
C46   C     C_3   0.879941 0.499907 0.504730 0.090171
H1    H     H_    0.842629 0.371086 0.442385 0.202963
H2    H     H_    0.158761 0.583310 0.609132 0.177766
H3    H     H_    0.934305 0.633975 0.415420 0.182520
H4    H     H_    0.148460 0.639923 0.436598 0.197083
H5    H     H_    0.662597 0.292993 0.026272 0.151079
H6    H     H_    0.538196 0.460343 0.212107 0.174897
H7    H     H_    0.562968 0.739470 0.255671 0.173830
H8    H     H_    0.584439 0.754346 0.946354 0.150405
H9    H     H_    0.599928 0.242978 0.884963 0.142353
H10   H     H_    0.535859 0.280460 0.733424 0.164109
H11   H     H_    0.848137 0.350994 0.560075 0.171458
H12   H     H_    0.557451 0.638914 0.848826 0.179423
H13   H     H_    0.587671 0.792518 0.097132 0.140187
H14   H     H_    0.578281 0.237414 0.519613 0.124304
H15   H     H_    0.263940 0.291355 0.375146 0.132313
H16   H     H_    0.190153 0.966753 0.397298 0.148617
H17   H     H_    0.773795 0.862083 0.682795 0.164191
H18   H     H_    0.056829 0.344982 0.544119 0.176755
H19   H     H_    0.692123 0.146456 0.549544 0.149925
H20   H     H_    0.293845 0.854175 0.469749 0.154875
H21   H     H_    0.181492 0.127415 0.355432 0.145980
H22   H     H_    0.054239 0.380489 0.427278 0.185507
H23   H     H_    0.909436 0.533615 0.361457 0.189093
H24   H     H_    0.129740 0.555968 0.362226 0.167040
H25   H     H_    0.095806 0.463011 0.644985 0.154062
N1    N     N_R   0.573860 0.731700 0.552730 -0.139077
N2    N     N_R   0.426060 0.268290 0.447230 -0.099747
O1    O     O_R   0.462770 0.383110 0.605620 -0.611602
O2    O     O_R   0.510160 0.531900 0.639510 -0.617448
O3    O     O_R   0.661510 0.425600 0.483070 -0.626605
O4    O     O_R   0.708900 0.574390 0.516960 -0.611994
O5    O     O_R   0.489840 0.468100 0.360490 -0.614530
O6    O     O_R   0.537230 0.616890 0.394380 -0.606730
O7    O     O_R   0.291100 0.425610 0.483040 -0.632144
O8    O     O_R   0.338490 0.574400 0.516930 -0.627101
Zn1   Zn    Zn3+2 0.468350 0.400660 0.477370 0.936756
Zn2   Zn    Zn3+2 0.531650 0.599340 0.522630 0.955693
N3    N     N_2   0.378112 0.517785 0.804790 -0.324432
H26   H     H_    0.346062 0.531468 0.741922 0.235454
C47   C     C_3   0.274826 0.500342 0.870108 -0.779441
H27   H     H_    0.270981 0.567127 0.891028 0.254943
H28   H     H_    0.288649 0.451840 0.929212 0.247341
H29   H     H_    0.180204 0.469566 0.841258 0.233665
C48   C     C_1   0.706635 0.402999 0.145779 0.154155
N4    N     N_1   0.762812 0.390565 0.209613 -0.222765
N5    N     N_2   0.819639 0.035556 0.641578 -0.306171
H30   H     H_    0.895591 0.010611 0.624040 0.228010
C49   C     C_3   0.858279 0.127230 0.667587 -0.807184
H31   H     H_    0.936298 0.129227 0.716552 0.246785
H32   H     H_    0.775178 0.143460 0.698648 0.248588
H33   H     H_    0.896663 0.180329 0.609760 0.229596
C50   C     C_1   0.701462 0.684081 0.676000 0.235934
N6    N     N_1   0.736896 0.628902 0.723505 -0.207847
C51   C     C_1   0.445073 0.770200 0.430578 0.210656
N7    N     N_1   0.385550 0.750667 0.369370 -0.247364
C52   C     C_1   0.958770 0.634808 0.590041 0.191768
N8    N     N_1   0.969536 0.713476 0.589076 -0.224525
C53   C     C_1   0.875907 0.482782 0.670925 0.122495
N9    N     N_1   0.820310 0.441909 0.734316 -0.198936

loop_
_geom_bond_atom_site_label_1
_geom_bond_atom_site_label_2
_ccdc_geom_bond_type
C44   H3    S    
C24   H6    S    
C26   N1    A    
C19   C20   A    
C16   H5    S    
C7    H9    S    
C8    H10   S    
C7    C8    A    
C45   C46   S    
C7    C11   A    
C30   C35   A    
C1    C5    S    
C1    O1    A    
C36   C37   A    
C19   C21   A    
N3    C47   S    
C21   H13   S    
C42   C46   S    
C30   C31   A    
C47   H28   S    
O4    Zn2   S    
C15   C16   A    
C6    C22   A    
C29   C33   A    
C40   N2    A    
C18   C19   A    
C25   H17   S    
N5    H30   S    
C34   O7    A    
C20   C24   A    
C43   H22   S    
C34   O8    A    
C9    C10   A    
C17   H12   S    
C2    C34   S    
C21   C22   A    
C52   N8    T    
O1    Zn1   S    
C36   H16   S    
C42   H11   S    
C53   N9    T    
O8    Zn2   S    
C3    H4    S    
C44   C46   S    
C43   H18   S    
C22   H7    S    
C4    C45   S    
C25   C29   A    
C3    C44   S    
C27   C51   S    
C1    O2    A    
C14   C20   A    
C3    H24   S    
N3    H26   S    
C38   C41   A    
C12   C46   S    
C45   C52   S    
C33   N5    S    
O3    Zn1   S    
C39   C40   A    
C47   H27   S    
C35   H20   S    
C25   C26   A    
C47   H29   S    
C40   H15   S    
C35   C36   A    
C2    C4    S    
C5    C9    A    
C37   C38   A    
C45   C53   S    
C11   C16   A    
O5    Zn1   S    
C31   C32   A    
C2    C43   S    
C6    C24   A    
C12   O4    A    
N5    C49   S    
C17   C18   A    
C44   H23   S    
C49   H32   S    
C26   C50   S    
O7    Zn1   S    
C12   O3    A    
C42   C43   S    
N2    Zn1   S    
C4    H2    S    
C28   C29   A    
C39   H21   S    
C41   H14   S    
C10   C13   A    
C5    C8    A    
C49   H33   S    
C31   C38   A    
C13   C17   A    
C32   C33   A    
C28   C30   A    
C2    C3    S    
C37   C39   A    
C15   C48   S    
O6    Zn2   S    
O2    Zn2   S    
C48   N4    T    
C6    C23   S    
C51   N7    T    
C42   H1    S    
C23   O5    A    
C49   H31   S    
N1    Zn2   S    
C10   C11   A    
C18   H8    S    
C9    N3    S    
C41   N2    A    
C50   N6    T    
C27   C28   A    
C14   C15   A    
C23   O6    A    
C13   C14   A    
C4    H25   S    
C27   N1    A    
C32   H19   S    
