data_mof_unit_10040.cif
_audit_creation_date              2012-12-10T19:08:07-0500
_audit_creation_method            fapswitch 2.2
_symmetry_space_group_name_H-M    P1
_symmetry_Int_Tables_number       1
_space_group_crystal_system       triclinic
_cell_length_a                    9.077812
_cell_length_b                    10.823269
_cell_length_c                    9.549268
_cell_angle_alpha                 90.041328
_cell_angle_beta                  89.991782
_cell_angle_gamma                 90.142305
_cell_volume                      938.227724033

loop_
_atom_site_label
_atom_site_type_symbol
_atom_type_description
_atom_site_fract_x
_atom_site_fract_y
_atom_site_fract_z
_atom_type_partial_charge
C1    C     C_R   0.497193 0.262330 0.499915 0.791502
C2    C     C_R   0.464167 0.935440 0.373248 -0.164751
C3    C     C_R   0.483475 0.870809 0.499651 -0.098130
C4    C     C_R   0.481730 0.936520 0.625432 0.113754
C5    C     C_3   0.584569 0.930769 0.747394 -0.438852
C6    C     C_3   0.583309 0.071021 0.747759 -0.446740
C7    C     C_R   0.570946 0.591346 0.073743 0.213614
C8    C     C_R   0.418623 0.416876 0.074350 -0.080783
C9    C     C_R   0.418581 0.416887 0.925495 -0.064472
C10   C     C_R   0.571349 0.591103 0.926346 0.168797
C11   C     C_3   0.731800 0.620811 0.920575 -0.544862
C12   C     C_R   0.220675 0.499985 0.499985 0.839745
C13   C     C_3   0.731158 0.621381 0.079442 0.410700
C14   C     C_R   0.497693 0.737698 0.499955 0.814655
C15   C     C_R   0.779308 0.500130 0.500019 0.858422
C16   C     C_1   0.065531 0.500091 0.500000 -0.177014
C17   C     C_1   0.934431 0.500149 0.500012 -0.182749
C18   C     C_R   0.481074 0.063697 0.625429 0.112314
C19   C     C_R   0.482594 0.129215 0.499603 -0.094530
C20   C     C_R   0.463698 0.064255 0.373226 -0.211775
Cu1   Cu    Cu3+1 0.499990 0.499980 0.640670 0.948267
Cu2   Cu    Cu3+1 0.500010 0.500020 0.359330 0.968543
H1    H     H_    0.455758 0.112265 0.274014 0.163440
H2    H     H_    0.753419 0.712988 0.873835 0.219247
H3    H     H_    0.800074 0.547930 0.127198 0.103935
H4    H     H_    0.531623 0.889667 0.841530 0.210166
H5    H     H_    0.693572 0.891220 0.719150 0.197031
H6    H     H_    0.528983 0.110896 0.841796 0.196099
H7    H     H_    0.354965 0.348094 0.130081 0.141610
H8    H     H_    0.354892 0.348116 0.869683 0.138362
H9    H     H_    0.798634 0.544341 0.876154 0.182496
N1    N     N_R   0.500920 0.500930 0.147930 -0.220383
N2    N     N_R   0.500930 0.500890 0.852020 -0.177178
O1    O     O_R   0.500000 0.319640 0.618810 -0.586529
O2    O     O_R   0.500020 0.319680 0.381230 -0.593162
O3    O     O_R   0.288380 0.499980 0.618770 -0.578808
O4    O     O_R   0.288400 0.500020 0.381190 -0.575915
O5    O     O_R   0.499980 0.680320 0.618770 -0.580201
O6    O     O_R   0.500000 0.680360 0.381190 -0.558250
O7    O     O_R   0.711600 0.499980 0.618810 -0.582039
O8    O     O_R   0.711620 0.500020 0.381230 -0.576214
F1    F     F_    0.755297 0.738024 0.134432 -0.646812
H10   H     H_    0.456498 0.887221 0.274038 0.186214
H11   H     H_    0.691635 0.112795 0.720479 0.201236

loop_
_geom_bond_atom_site_label_1
_geom_bond_atom_site_label_2
_ccdc_geom_bond_type
C7    C10   A    
Cu1   O1    S    
C14   O5    A    
C19   C20   A    
C20   H1    S    
C2    H10   S    
C4    C18   A    
C2    C3    A    
C3    C4    A    
C11   H9    S    
Cu1   O3    S    
C6    H11   S    
Cu1   Cu2   S    
C9    N2    A    
Cu2   O2    S    
C11   C13   S    
C13   H3    S    
C16   C17   T    
C3    C14   S    
Cu2   N1    S    
C9    H8    S    
C8    H7    S    
C13   F1    S    
C1    O1    A    
C10   N2    A    
C5    C6    S    
C6    C18   S    
C15   O7    A    
C1    C19   S    
Cu2   O8    S    
C12   O3    A    
C10   C11   S    
Cu2   O6    S    
C2    C20   A    
C5    H4    S    
C8    N1    A    
C11   H2    S    
C7    C13   S    
Cu1   N2    S    
C15   O8    A    
C18   C19   A    
C12   O4    A    
C15   C17   S    
C1    O2    A    
C8    C9    A    
C7    N1    A    
C14   O6    A    
C5    H5    S    
Cu2   O4    S    
C6    H6    S    
Cu1   O5    S    
C12   C16   S    
C4    C5    S    
Cu1   O7    S    
