data_mof_unit_52304.cif
_audit_creation_date              2012-10-26T20:38:00-0400
_audit_creation_method            fapswitch 2.2
_symmetry_space_group_name_H-M    P1
_symmetry_Int_Tables_number       1
_space_group_crystal_system       triclinic
_cell_length_a                    9.911021
_cell_length_b                    11.053508
_cell_length_c                    12.981173
_cell_angle_alpha                 88.837533
_cell_angle_beta                  75.705833
_cell_angle_gamma                 110.165551
_cell_volume                      1284.89108128

loop_
_atom_site_label
_atom_site_type_symbol
_atom_type_description
_atom_site_fract_x
_atom_site_fract_y
_atom_site_fract_z
_atom_type_partial_charge
C1    C     C_R   0.442362 0.254502 0.503523 0.577750
C2    C     C_R   0.669505 0.631004 0.007369 0.263330
C3    C     C_R   0.361491 0.361340 0.874099 0.210510
C4    C     C_R   0.658729 0.616250 0.117021 0.209039
C5    C     C_R   0.548363 0.577461 0.862557 0.022635
C6    C     C_R   0.438686 0.417638 0.141932 0.028045
C7    C     C_R   0.553457 0.549323 0.967576 -0.039670
C8    C     C_R   0.444140 0.434870 0.032238 -0.037255
C9    C     C_2   0.419891 0.115155 0.508183 0.260603
C10   C     C_2   0.589113 0.878604 0.454767 0.228644
C11   C     C_2   0.541028 0.079247 0.476745 0.124336
C12   C     C_R   0.559138 0.744478 0.489115 0.562321
C13   C     C_2   0.534030 0.952680 0.521809 0.085523
C14   C     C_2   0.325924 0.303940 0.216021 0.687240
C15   C     C_2   0.622790 0.712309 0.806866 0.683589
C16   C     C_2   0.473395 0.917391 0.640892 0.606600
C17   C     C_2   0.684433 0.164367 0.399437 0.658517
C18   C     C_2   0.819335 0.413572 0.614140 0.619897
C19   C     C_2   0.187629 0.616827 0.406091 0.615499
C20   C     C_2   0.082677 0.513987 0.491990 0.156950
C21   C     C_2   0.919440 0.495513 0.514510 0.155024
C22   C     C_R   0.473699 0.496092 0.701839 0.623025
C23   C     C_R   0.526731 0.504470 0.297871 0.590077
C24   C     C_R   0.542703 0.511328 0.183230 -0.007792
C25   C     C_R   0.457722 0.480403 0.815644 -0.013064
C26   C     C_R   0.345444 0.341723 0.984699 0.254530
Cu1   Cu    Cu3+1 0.647370 0.522180 0.481340 1.119330
Cu2   Cu    Cu3+1 0.352630 0.477820 0.518660 1.119819
H1    H     H_    0.941796 0.612425 0.384637 0.238588
H2    H     H_    0.785277 0.289608 0.264331 0.358429
H3    H     H_    0.679218 0.853301 0.309303 0.356922
H4    H     H_    0.208480 0.064794 0.581141 0.357860
H5    H     H_    0.750773 0.398194 0.775256 0.341713
H6    H     H_    0.289019 0.666640 0.248260 0.345518
H7    H     H_    0.054920 0.371774 0.604632 0.232991
H8    H     H_    0.111546 0.214520 0.301313 0.370862
H9    H     H_    0.770735 0.834453 0.679050 0.348730
H10   H     H_    0.795823 0.791316 0.118514 0.350209
H11   H     H_    0.267548 0.179146 0.857707 0.353922
H12   H     H_    0.150398 0.204236 0.015547 0.353636
H13   H     H_    0.882834 0.732744 0.966064 0.352482
H14   H     H_    0.426784 0.981361 0.785375 0.368231
N1    N     N_2   0.131210 0.444490 0.546730 -0.360342
N2    N     N_2   0.868790 0.555510 0.453270 -0.357184
O1    O     O_R   0.578710 0.332530 0.490040 -0.487631
O2    O     O_R   0.177153 0.295071 0.249576 -0.600513
O3    O     O_2   0.593213 0.800685 0.850274 -0.454931
O4    O     O_R   0.728992 0.739105 0.707736 -0.613095
O5    O     O_3   0.756495 0.705980 0.162443 -0.692902
O6    O     O_3   0.286587 0.264860 0.820347 -0.670290
O7    O     O_3   0.238062 0.230539 0.045172 -0.649713
O8    O     O_3   0.795956 0.719291 0.936891 -0.639609
O9    O     O_2   0.426597 0.804982 0.681616 -0.485683
O10   O     O_R   0.470058 0.015672 0.706642 -0.637636
O11   O     O_2   0.803905 0.168488 0.412610 -0.475596
O12   O     O_R   0.421290 0.667470 0.509960 -0.459940
O13   O     O_R   0.681539 0.236115 0.310479 -0.641590
O14   O     O_3   0.652119 0.922339 0.346769 -0.667628
O15   O     O_3   0.281924 0.021825 0.558362 -0.645840
O16   O     O_2   0.744588 0.300275 0.611878 -0.479003
O17   O     O_R   0.821166 0.463606 0.712050 -0.649846
O18   O     O_2   0.232092 0.729324 0.425553 -0.458753
O19   O     O_R   0.219744 0.587655 0.300633 -0.666649
O20   O     O_R   0.329810 0.295070 0.521560 -0.501316
O21   O     O_R   0.670190 0.704930 0.478440 -0.489517
O22   O     O_R   0.604230 0.515670 0.637800 -0.455904
O23   O     O_R   0.395770 0.484330 0.362200 -0.488087
O24   O     O_R   0.355330 0.478200 0.669330 -0.448083
O25   O     O_R   0.644670 0.521800 0.330670 -0.453268
O26   O     O_2   0.364577 0.220771 0.249908 -0.464601

loop_
_geom_bond_atom_site_label_1
_geom_bond_atom_site_label_2
_ccdc_geom_bond_type
C21   N2    D    
C2    C4    A    
C23   C24   S    
C1    O20   A    
C18   O17   S    
H8    O2    S    
Cu1   O21   S    
C6    C14   S    
H12   O7    S    
H7    N1    S    
C12   O21   A    
C17   O11   D    
H13   O8    S    
H11   O6    S    
C19   C20   S    
Cu1   O25   S    
C15   O3    D    
C4    O5    S    
C6    C24   A    
C19   O19   S    
Cu1   O1    S    
Cu2   O12   S    
C7    C8    A    
C14   O2    S    
H10   O5    S    
C26   O7    S    
H14   O10   S    
H9    O4    S    
C11   C13   S    
C1    O1    A    
C12   O12   A    
C2    O8    S    
C15   O4    S    
C4    C24   A    
C5    C25   A    
C10   C12   S    
H3    O14   S    
C18   O16   D    
H6    O19   S    
Cu2   O24   S    
C3    O6    S    
C5    C7    A    
C9    C11   D    
H1    N2    S    
C8    C26   A    
C14   O26   D    
C16   O10   S    
C20   N1    D    
C5    C15   S    
C19   O18   D    
C18   C21   S    
H2    O13   S    
Cu2   O20   S    
C3    C25   A    
Cu2   O23   S    
C1    C9    S    
C20   C21   S    
H5    O17   S    
C13   C16   S    
C23   O23   A    
Cu1   Cu2   S    
Cu1   O22   S    
C23   O25   A    
C16   O9    D    
C11   C17   S    
C6    C8    A    
Cu2   N1    S    
H4    O15   S    
C10   O14   S    
C22   O24   A    
Cu1   N2    S    
C10   C13   D    
C3    C26   A    
C22   O22   A    
C2    C7    A    
C17   O13   S    
C9    O15   S    
C22   C25   S    
