data_mof_unit_54908.cif
_audit_creation_date              2012-12-10T19:00:11-0500
_audit_creation_method            fapswitch 2.2
_symmetry_space_group_name_H-M    P1
_symmetry_Int_Tables_number       1
_space_group_crystal_system       triclinic
_cell_length_a                    9.593416
_cell_length_b                    10.822443
_cell_length_c                    13.577541
_cell_angle_alpha                 90.953624
_cell_angle_beta                  72.549924
_cell_angle_gamma                 89.838933
_cell_volume                      1344.57074268

loop_
_atom_site_label
_atom_site_type_symbol
_atom_type_description
_atom_site_fract_x
_atom_site_fract_y
_atom_site_fract_z
_atom_type_partial_charge
C1    C     C_R   0.498977 0.737536 0.502333 0.790160
C2    C     C_R   0.443473 0.540608 0.978212 0.082724
C3    C     C_R   0.489066 0.541251 0.868488 0.017211
C4    C     C_R   0.550082 0.521368 0.030822 0.098476
C5    C     C_R   0.696835 0.494596 0.973082 0.169046
C6    C     C_R   0.741702 0.510957 0.867485 -0.251958
C7    C     C_R   0.641370 0.545115 0.818309 -0.168004
C8    C     C_R   0.516590 0.527290 0.138670 -0.263128
C9    C     C_R   0.758860 0.453952 0.129015 -0.185124
C10   C     C_R   0.381817 0.539373 0.813629 -0.144884
C11   C     C_R   0.369828 0.936758 0.512428 0.158675
C12   C     C_R   0.422897 0.512539 0.699719 0.818327
C13   C     C_R   0.494658 0.870852 0.513053 -0.100243
C14   C     C_R   0.613902 0.935735 0.527847 -0.211823
C15   C     C_R   0.614294 0.064620 0.527265 -0.216120
C16   C     C_R   0.495437 0.129391 0.511933 -0.099946
C17   C     C_R   0.370341 0.063967 0.511663 0.137790
C18   C     C_3   0.282616 0.068209 0.437620 -0.501931
C19   C     C_3   0.281382 0.928094 0.438942 -0.432406
C20   C     C_R   0.947330 0.406399 0.452387 0.208544
C21   C     C_R   0.903019 0.589739 0.549660 -0.059665
C22   C     C_R   0.049456 0.589466 0.551935 0.465738
C23   C     C_R   0.499458 0.262450 0.501733 0.798975
C24   C     C_R   0.093773 0.404614 0.454568 0.134716
C25   C     C_3   0.150534 0.365748 0.344112 -0.521538
C26   C     C_3   0.995149 0.375414 0.339420 0.171029
C27   C     C_R   0.577803 0.497870 0.300652 0.798003
C28   C     C_R   0.798731 0.457521 0.022110 -0.225623
C29   C     C_R   0.620233 0.494399 0.187788 -0.040764
C30   C     C_R   0.233812 0.561937 0.869632 0.410204
C31   C     C_R   0.192245 0.571627 0.977565 -0.248933
C32   C     C_R   0.293661 0.557073 0.030914 -0.243995
Cu1   Cu    Cu3+1 0.359330 0.500020 0.500010 0.969133
Cu2   Cu    Cu3+1 0.640670 0.499980 0.499990 0.968916
H1    H     H_    0.835558 0.418807 0.165380 0.175641
H2    H     H_    0.710058 0.112666 0.533900 0.164320
H3    H     H_    0.172830 0.110427 0.473133 0.201954
H4    H     H_    0.345555 0.105609 0.361550 0.196216
H5    H     H_    0.170984 0.889700 0.475585 0.233958
H6    H     H_    0.830255 0.663919 0.588167 0.140370
H7    H     H_    0.225045 0.433976 0.295500 0.228429
H8    H     H_    0.192886 0.269528 0.334073 0.156464
H9    H     H_    0.855673 0.502266 0.822873 0.176402
H10   H     H_    0.948704 0.287950 0.319127 0.098926
H11   H     H_    0.908778 0.430559 0.977705 0.150648
H12   H     H_    0.411660 0.560059 0.186145 0.147975
H13   H     H_    0.250745 0.559649 0.113723 0.151438
H14   H     H_    0.688791 0.579408 0.742267 0.180076
N1    N     N_R   0.852320 0.499070 0.499340 -0.196572
N2    N     N_R   0.148230 0.499110 0.499340 -0.222549
O1    O     O_R   0.381190 0.680360 0.500000 -0.579168
O2    O     O_R   0.618780 0.680320 0.499990 -0.589624
O3    O     O_R   0.323230 0.500000 0.650990 -0.546193
O4    O     O_R   0.560820 0.499960 0.650980 -0.611144
O5    O     O_R   0.381220 0.319680 0.500010 -0.572432
O6    O     O_R   0.618810 0.319640 0.500000 -0.593823
O7    O     O_R   0.439180 0.500040 0.349020 -0.598237
O8    O     O_R   0.676770 0.500000 0.349010 -0.519453
H15   H     H_    0.342560 0.884364 0.363595 0.195389
O9    O     O_3   0.087769 0.684499 0.606588 -0.749536
H16   H     H_    0.166245 0.654500 0.632697 0.395771
O10   O     O_3   0.977938 0.477039 0.281498 -0.692395
H17   H     H_    0.037148 0.457708 0.209433 0.306380
O11   O     O_3   0.131262 0.576361 0.817893 -0.747335
H18   H     H_    0.039029 0.608030 0.867035 0.317129
H19   H     H_    0.078963 0.587667 0.021381 0.150167
H20   H     H_    0.709500 0.887499 0.534783 0.169226

loop_
_geom_bond_atom_site_label_1
_geom_bond_atom_site_label_2
_ccdc_geom_bond_type
C25   H8    S    
Cu1   O5    S    
C31   H19   S    
C2    C4    A    
C14   H20   S    
C24   C25   S    
C23   O5    A    
C6    C7    A    
C30   O11   S    
Cu1   O1    S    
C5    C28   A    
C11   C13   A    
Cu2   O8    S    
C10   C30   A    
Cu2   O2    S    
C12   O3    A    
C9    C29   A    
C30   C31   A    
C4    C8    A    
O11   H18   S    
C21   N1    A    
C2    C3    A    
C18   H4    S    
C26   H10   S    
C23   O6    A    
C15   H2    S    
C3    C10   A    
C12   O4    A    
C21   C22   A    
C7    H14   S    
Cu2   O6    S    
C1    O1    A    
C24   N2    A    
C11   C19   S    
O10   H17   S    
C21   H6    S    
C20   C26   S    
C20   N1    A    
C8    C29   A    
C19   H5    S    
C2    C32   A    
C32   H13   S    
C18   H3    S    
Cu1   Cu2   S    
Cu2   O4    S    
C16   C23   S    
C26   O10   S    
C6    H9    S    
C22   O9    S    
C5    C6    A    
C10   C12   S    
C1    O2    A    
C8    H12   S    
C28   H11   S    
C27   C29   S    
C15   C16   A    
C16   C17   A    
C20   C24   A    
C22   N2    A    
C1    C13   S    
Cu1   O3    S    
C17   C18   S    
C18   C19   S    
C27   O7    A    
C25   H7    S    
C9    H1    S    
C14   C15   A    
C4    C5    A    
Cu2   N1    S    
Cu1   O7    S    
Cu1   N2    S    
C3    C7    A    
C19   H15   S    
C25   C26   S    
C13   C14   A    
C11   C17   A    
C31   C32   A    
C9    C28   A    
O9    H16   S    
C27   O8    A    
