data_mof_unit_32065.cif
_audit_creation_date              2012-12-10T18:33:36-0500
_audit_creation_method            fapswitch 2.2
_symmetry_space_group_name_H-M    P1
_symmetry_Int_Tables_number       1
_space_group_crystal_system       triclinic
_cell_length_a                    10.511554
_cell_length_b                    15.105939
_cell_length_c                    15.324657
_cell_angle_alpha                 80.796775
_cell_angle_beta                  90.865037
_cell_angle_gamma                 104.871647
_cell_volume                      2320.71140334

loop_
_atom_site_label
_atom_site_type_symbol
_atom_type_description
_atom_site_fract_x
_atom_site_fract_y
_atom_site_fract_z
_atom_type_partial_charge
C1    C     C_R   0.477811 0.441068 0.661948 0.937457
C2    C     C_R   0.522057 0.558915 0.337995 0.931960
C3    C     C_R   0.526357 0.440049 0.818493 0.362274
C4    C     C_R   0.472472 0.558403 0.181617 0.368861
C5    C     C_R   0.471024 0.437916 0.902190 -0.046139
C6    C     C_R   0.527505 0.560817 0.097636 -0.040419
C7    C     C_R   0.354546 0.367663 0.930895 -0.027877
C8    C     C_R   0.643435 0.631689 0.068510 -0.058909
C9    C     C_R   0.523665 0.505757 0.956111 0.012788
C10   C     C_R   0.475204 0.492768 0.043766 0.055289
C11   C     C_R   0.382286 0.409198 0.076952 -0.188740
C12   C     C_R   0.617083 0.588974 0.922822 -0.168144
C13   C     C_R   0.315451 0.349784 0.020878 0.390267
C14   C     C_R   0.683521 0.648700 0.978645 0.448252
C15   C     C_R   0.720787 0.847367 0.619827 -0.240636
C16   C     C_R   0.276246 0.151784 0.383007 -0.288648
C17   C     C_R   0.673614 0.755544 0.608672 0.052205
C18   C     C_R   0.324751 0.243977 0.392658 0.022469
C19   C     C_R   0.512044 0.793740 0.509859 0.038153
C20   C     C_R   0.487840 0.206289 0.490366 0.043633
C21   C     C_R   0.543282 0.885574 0.528967 -0.032411
C22   C     C_R   0.455661 0.114094 0.472156 -0.031078
C23   C     C_R   0.742094 0.501290 0.500635 0.901834
C24   C     C_R   0.257926 0.498739 0.499323 0.906845
C25   C     C_R   0.658286 0.913188 0.577905 0.142203
C26   C     C_R   0.339629 0.086184 0.424254 0.152014
C27   C     C_R   0.471282 0.952153 0.497946 0.083746
C28   C     C_R   0.527608 0.047463 0.503283 0.080393
C29   C     C_R   0.655649 0.073109 0.536373 -0.200052
C30   C     C_R   0.343093 0.926328 0.465195 -0.204966
C31   C     C_R   0.715094 0.006879 0.579043 -0.154997
C32   C     C_R   0.282818 0.992438 0.423346 -0.158339
C33   C     C_3   0.930947 0.429944 0.561154 -0.233330
C34   C     C_3   0.069147 0.570189 0.438788 -0.209805
C35   C     C_3   0.048851 0.509042 0.579642 -0.043202
C36   C     C_3   0.951252 0.491095 0.420279 -0.031015
C37   C     C_3   0.122219 0.496512 0.498950 -0.078922
C38   C     C_3   0.877845 0.503597 0.500972 -0.095755
C39   C     C_3   0.005757 0.418423 0.479538 -0.005978
C40   C     C_3   0.994313 0.581706 0.520389 -0.011323
C41   C     C_R   0.443381 0.402803 0.754384 -0.188839
C42   C     C_R   0.555230 0.596998 0.245279 -0.193993
C43   C     C_R   0.280953 0.318372 0.868438 -0.100301
C44   C     C_R   0.715732 0.682502 0.130445 -0.099861
C45   C     C_R   0.319975 0.340604 0.779394 -0.100832
C46   C     C_R   0.677334 0.660530 0.219593 -0.098784
H1    H     H_    0.275734 0.295237 0.362097 0.204902
H2    H     H_    0.722382 0.704288 0.639315 0.207127
H3    H     H_    0.807170 0.867200 0.658878 0.175496
H4    H     H_    0.188316 0.131513 0.345475 0.194775
H5    H     H_    0.713098 0.144198 0.529044 0.153862
H6    H     H_    0.286081 0.855116 0.472388 0.155737
H7    H     H_    0.872938 0.373402 0.611377 0.206614
H8    H     H_    0.127214 0.626794 0.388642 0.203439
H9    H     H_    0.188213 0.267840 0.886714 0.220390
H10   H     H_    0.807119 0.734351 0.111723 0.222021
H11   H     H_    0.359310 0.390537 0.146706 0.205860
H12   H     H_    0.640858 0.607071 0.853079 0.236183
H13   H     H_    0.809468 0.029360 0.609155 0.163171
H14   H     H_    0.188022 0.969808 0.393806 0.167517
N1    N     N_R   0.574200 0.731700 0.552740 -0.134303
N2    N     N_R   0.425800 0.268300 0.447260 -0.128409
O1    O     O_R   0.462600 0.383110 0.605620 -0.609788
O2    O     O_R   0.537400 0.616890 0.394380 -0.607818
O3    O     O_R   0.510210 0.531900 0.639510 -0.590101
O4    O     O_R   0.489790 0.468100 0.360490 -0.599708
O5    O     O_R   0.662240 0.425610 0.483080 -0.628593
O6    O     O_R   0.337760 0.574390 0.516920 -0.629218
O7    O     O_R   0.709860 0.574400 0.516970 -0.609305
O8    O     O_R   0.290140 0.425600 0.483030 -0.608632
Zn1   Zn    Zn3+2 0.468210 0.400660 0.477370 0.991516
Zn2   Zn    Zn3+2 0.531790 0.599340 0.522630 0.993449
C47   C     C_1   0.105093 0.517685 0.667178 0.195004
N3    N     N_1   0.149486 0.524431 0.736099 -0.143071
C48   C     C_1   0.895404 0.482521 0.332625 0.235704
N4    N     N_1   0.851331 0.475853 0.263606 -0.160076
C49   C     C_1   0.564169 0.232202 0.565502 0.235051
N5    N     N_1   0.624921 0.252054 0.626317 -0.142143
C50   C     C_1   0.436194 0.768261 0.434378 0.238541
N6    N     N_1   0.375832 0.748701 0.373320 -0.143930
C51   C     C_1   0.010591 0.328298 0.457372 0.255795
N7    N     N_1   0.013831 0.257118 0.440023 -0.185521
C52   C     C_1   0.989283 0.671819 0.542500 0.216012
N8    N     N_1   0.985804 0.742959 0.559835 -0.205218
S1    S     S_3+6 0.185315 0.253870 0.066303 0.065689
O9    O     O_2   0.056820 0.270008 0.032611 -0.209092
O10   O     O_2   0.202792 0.166550 0.038557 -0.276848
O11   O     O_3   0.180781 0.240718 0.177299 -0.515684
H15   H     H_    0.261317 0.220835 0.195429 0.342016
S2    S     S_3+6 0.815099 0.743478 0.932959 0.050539
O12   O     O_2   0.792366 0.832125 0.954029 -0.267422
O13   O     O_2   0.941734 0.730014 0.972755 -0.258857
O14   O     O_3   0.826569 0.750500 0.822568 -0.558105
H16   H     H_    0.907913 0.799932 0.804057 0.386669
S3    S     S_3+6 0.298965 0.536694 0.199836 0.023586
O15   O     O_2   0.247327 0.446112 0.260478 -0.335921
O16   O     O_2   0.272388 0.613189 0.242640 -0.299368
O17   O     O_3   0.219783 0.534310 0.103657 -0.503111
H17   H     H_    0.125011 0.512577 0.120853 0.409251
S4    S     S_3+6 0.699579 0.458978 0.801509 0.027322
O18   O     O_2   0.768949 0.459515 0.888020 -0.240172
O19   O     O_2   0.723757 0.381912 0.758471 -0.304258
O20   O     O_3   0.761242 0.560124 0.734412 -0.581200
H18   H     H_    0.855009 0.562502 0.724458 0.386871
C53   C     C_1   0.766120 0.702417 0.283268 0.235935
N9    N     N_1   0.837266 0.735816 0.334273 -0.179545
C54   C     C_1   0.230737 0.300245 0.715187 0.236657
N10   N     N_1   0.159219 0.268037 0.663778 -0.184634

loop_
_geom_bond_atom_site_label_1
_geom_bond_atom_site_label_2
_ccdc_geom_bond_type
C25   C31   A    
C38   C40   S    
C26   C32   A    
O14   H16   S    
C34   C37   S    
C47   N3    T    
C23   O7    A    
S3    O15   D    
C17   H2    S    
C18   H1    S    
C51   N7    T    
S3    O17   S    
C24   O8    A    
C49   N5    T    
C33   C39   S    
C20   C49   S    
C34   C40   S    
C28   C29   A    
C35   C37   S    
C16   H4    S    
C20   C22   A    
C19   N1    A    
C15   C25   A    
C31   H13   S    
C46   C53   S    
C42   C46   A    
C23   O5    A    
C14   S2    S    
C30   H6    S    
C17   N1    A    
C3    S4    S    
C3    C41   A    
O4    Zn1   S    
C2    O2    A    
C1    O3    A    
C54   N10   T    
O8    Zn1   S    
C7    C43   A    
C9    C10   A    
O5    Zn1   S    
C12   H12   S    
O2    Zn2   S    
C21   C27   A    
C22   C28   A    
C27   C30   A    
C33   H7    S    
C40   C52   S    
C1    O1    A    
C44   C46   A    
S1    O10   D    
C16   C26   A    
C39   C51   S    
C4    C6    A    
C5    C7    A    
C18   N2    A    
C6    C8    A    
C3    C5    A    
S1    O9    D    
S4    O20   S    
O7    Zn2   S    
C48   N4    T    
C5    C9    A    
C36   C48   S    
C4    S3    S    
C44   H10   S    
S2    O13   D    
C52   N8    T    
O6    Zn2   S    
S4    O19   D    
C24   C37   S    
C16   C18   A    
C19   C50   S    
C43   C45   A    
N1    Zn2   S    
C43   H9    S    
O1    Zn1   S    
C34   H8    S    
C32   H14   S    
O3    Zn2   S    
O20   H18   S    
S2    O14   S    
C29   H5    S    
S1    O11   S    
C1    C41   S    
C15   C17   A    
C21   C25   A    
C35   C47   S    
C8    C14   A    
C19   C21   A    
C36   C39   S    
C8    C44   A    
C12   C14   A    
C2    O4    A    
C6    C10   A    
S3    O16   D    
C23   C38   S    
C53   N9    T    
C33   C38   S    
C36   C38   S    
C35   C40   S    
C37   C39   S    
C30   C32   A    
C11   C13   A    
S2    O12   D    
C4    C42   A    
C2    C42   S    
S4    O18   D    
C33   C35   S    
N2    Zn1   S    
C34   C36   S    
C15   H3    S    
C20   N2    A    
C9    C12   A    
C10   C11   A    
C24   O6    A    
C50   N6    T    
C7    C13   A    
O11   H15   S    
C29   C31   A    
O17   H17   S    
C22   C26   A    
C13   S1    S    
C27   C28   A    
C41   C45   A    
C11   H11   S    
C45   C54   S    
