data_mof_unit_7499.cif
_audit_creation_date              2012-12-11T15:34:59-0500
_audit_creation_method            fapswitch 2.2
_symmetry_space_group_name_H-M    P1
_symmetry_Int_Tables_number       1
_space_group_crystal_system       triclinic
_cell_length_a                    30.600371
_cell_length_b                    7.279087
_cell_length_c                    25.903519
_cell_angle_alpha                 90.003868
_cell_angle_beta                  111.972327
_cell_angle_gamma                 89.999931
_cell_volume                      5350.7285256

loop_
_atom_site_label
_atom_site_type_symbol
_atom_type_description
_atom_site_fract_x
_atom_site_fract_y
_atom_site_fract_z
_atom_type_partial_charge
O1    O     O_R   0.295360 0.592990 0.320420 -0.533724
O2    O     O_R   0.704640 0.407010 0.679580 -0.536226
O3    O     O_R   0.204640 0.092990 0.179580 -0.533726
O4    O     O_R   0.795360 0.907010 0.820420 -0.536223
O5    O     O_R   0.294060 0.265620 0.213230 -0.537091
O6    O     O_R   0.705940 0.734380 0.786770 -0.538585
O7    O     O_R   0.205940 0.765620 0.286770 -0.537088
O8    O     O_R   0.794060 0.234380 0.713230 -0.538580
C1    C     C_R   0.304029 0.432214 0.199702 0.745400
C2    C     C_R   0.695910 0.567765 0.800168 0.744373
C3    C     C_R   0.195970 0.932221 0.300297 0.745414
C4    C     C_R   0.804089 0.067760 0.699830 0.744384
O9    O     O_R   0.300850 0.263360 0.322080 -0.533254
O10   O     O_R   0.699150 0.736640 0.677920 -0.530595
O11   O     O_R   0.199150 0.763360 0.177920 -0.533265
O12   O     O_R   0.800850 0.236640 0.822080 -0.530601
O13   O     O_R   0.211480 0.091820 0.289210 -0.537803
O14   O     O_R   0.788520 0.908180 0.710790 -0.535291
O15   O     O_R   0.288520 0.591820 0.210790 -0.537796
O16   O     O_R   0.711480 0.408180 0.789210 -0.535283
C5    C     C_R   0.313191 0.431608 0.343116 0.680513
C6    C     C_R   0.686794 0.568422 0.656883 0.680184
C7    C     C_R   0.186808 0.931596 0.156884 0.680512
C8    C     C_R   0.813208 0.068433 0.843117 0.680190
O17   O     O_3   0.220670 0.426670 0.239090 -0.376211
O18   O     O_3   0.779330 0.573330 0.760910 -0.376366
O19   O     O_3   0.279330 0.926670 0.260910 -0.376200
O20   O     O_3   0.720670 0.073330 0.739090 -0.376362
V1    V     V_3+5 0.255440 0.152290 0.252020 1.426279
V2    V     V_3+5 0.744560 0.847710 0.747980 1.428970
V3    V     V_3+5 0.244560 0.652290 0.247980 1.426276
V4    V     V_3+5 0.755440 0.347710 0.752020 1.428973
C9    C     C_R   0.850015 0.061949 0.899482 -0.067865
C10   C     C_R   0.149696 0.938585 0.100740 -0.069056
C11   C     C_R   0.649988 0.561896 0.600518 -0.067854
C12   C     C_R   0.350300 0.438636 0.399261 -0.069049
C13   C     C_R   0.871408 0.076566 0.998915 -0.121125
C14   C     C_R   0.127431 0.923317 0.001226 -0.120789
C15   C     C_R   0.628602 0.576238 0.501085 -0.121119
C16   C     C_R   0.372556 0.423642 0.498775 -0.120779
C17   C     C_R   0.837410 0.088118 0.945369 -0.154960
C18   C     C_R   0.161613 0.908088 0.054552 -0.154172
C19   C     C_R   0.662599 0.587868 0.554630 -0.154965
C20   C     C_R   0.338375 0.408346 0.445451 -0.154179
C21   C     C_R   0.897557 0.032486 0.907612 -0.139319
C22   C     C_R   0.102560 0.974855 0.093165 -0.141639
C23   C     C_R   0.602443 0.532537 0.592390 -0.139320
C24   C     C_R   0.397441 0.474785 0.406835 -0.141624
C25   C     C_R   0.933758 0.037046 0.961853 0.104013
C26   C     C_R   0.065952 0.972955 0.039201 0.102889
C27   C     C_R   0.566245 0.537001 0.538148 0.104011
C28   C     C_R   0.434046 0.472972 0.460801 0.102891
C29   C     C_R   0.919024 0.047351 0.007442 0.059627
C30   C     C_R   0.080216 0.959688 0.993255 0.062068
C31   C     C_R   0.580982 0.547122 0.492559 0.059630
C32   C     C_R   0.419776 0.459896 0.506745 0.062056
C33   C     C_R   0.983395 0.021964 0.972576 -0.088829
C34   C     C_R   0.016422 0.992096 0.028898 -0.092111
C35   C     C_R   0.516605 0.521992 0.527424 -0.088836
C36   C     C_R   0.483578 0.492027 0.471106 -0.092100
C37   C     C_R   0.998658 0.979885 0.072529 0.465617
C38   C     C_R   0.001075 0.038370 0.929057 0.462209
C39   C     C_R   0.501345 0.479645 0.427480 0.465612
C40   C     C_R   0.498924 0.538556 0.570938 0.462214
C41   C     C_R   0.950984 0.016587 0.061239 -0.260105
C42   C     C_R   0.048374 0.995897 0.939731 -0.261601
C43   C     C_R   0.549023 0.516266 0.438767 -0.260103
C44   C     C_R   0.451619 0.496180 0.560265 -0.261581
H1    H     H_    0.937748 0.007484 0.094513 0.137518
H2    H     H_    0.061667 0.005144 0.906528 0.135383
H3    H     H_    0.562260 0.507027 0.405497 0.137517
H4    H     H_    0.438325 0.505562 0.593465 0.135394
H5    H     H_    0.096399 0.012308 0.129955 0.148436
H6    H     H_    0.904594 0.998366 0.871089 0.143502
H7    H     H_    0.403609 0.512095 0.370040 0.148431
H8    H     H_    0.595403 0.498552 0.628919 0.143506
H9    H     H_    0.197786 0.879663 0.059769 0.114934
H10   H     H_    0.800928 0.111351 0.939736 0.116077
H11   H     H_    0.302197 0.380025 0.440234 0.114935
H12   H     H_    0.699085 0.611009 0.560261 0.116066
H13   H     H_    0.860307 0.088076 0.033920 0.128114
H14   H     H_    0.138105 0.909320 0.965956 0.128472
H15   H     H_    0.639706 0.587601 0.466079 0.128113
H16   H     H_    0.361877 0.409797 0.534046 0.128471
C45   C     C_R   0.092527 0.942677 0.481521 0.617972
C46   C     C_R   0.908584 0.983558 0.521443 0.615090
C47   C     C_R   0.407460 0.442633 0.018460 0.617980
C48   C     C_R   0.591402 0.483603 0.978537 0.615082
N1    N     N_R   0.073919 0.968099 0.424644 -0.546589
N2    N     N_R   0.927630 0.019137 0.577800 -0.546814
N3    N     N_R   0.426067 0.468065 0.075338 -0.546589
N4    N     N_R   0.572355 0.519168 0.922182 -0.546811
C49   C     C_R   0.026417 0.002359 0.398014 0.611653
C50   C     C_R   0.975638 0.041916 0.604079 0.614168
C51   C     C_R   0.473569 0.502349 0.101968 0.611641
C52   C     C_R   0.524346 0.541920 0.895904 0.614177
C53   C     C_R   0.995968 0.994895 0.427457 -0.052006
C54   C     C_R   0.005821 0.014255 0.574920 -0.052598
C55   C     C_R   0.504018 0.494899 0.072525 -0.052011
C56   C     C_R   0.494164 0.514247 0.925062 -0.052598
C57   C     C_R   0.015531 0.986639 0.485833 -0.018638
C58   C     C_R   0.986058 0.996699 0.516737 -0.018564
C59   C     C_R   0.484455 0.486631 0.014149 -0.018636
C60   C     C_R   0.513928 0.496704 0.983244 -0.018564
C61   C     C_R   0.064477 0.968641 0.513395 -0.053856
C62   C     C_R   0.936907 0.989331 0.489355 -0.053669
C63   C     C_R   0.435510 0.468608 0.986586 -0.053856
C64   C     C_R   0.563079 0.489363 0.010626 -0.053673
C65   C     C_R   0.946645 0.997177 0.400194 -0.139362
C66   C     C_R   0.055097 0.005667 0.602225 -0.137231
C67   C     C_R   0.553341 0.497207 0.099788 -0.139368
C68   C     C_R   0.444889 0.505634 0.897757 -0.137227
C69   C     C_R   0.917442 0.987114 0.430797 -0.137403
C70   C     C_R   0.083978 0.975950 0.571920 -0.134961
C71   C     C_R   0.582544 0.487158 0.069184 -0.137405
C72   C     C_R   0.416008 0.475905 0.928062 -0.134958
O21   O     O_2   0.137799 0.890248 0.507342 -0.500837
O22   O     O_2   0.862565 0.940398 0.496384 -0.501964
O23   O     O_2   0.362189 0.390184 0.992637 -0.500835
O24   O     O_2   0.637422 0.440468 0.003595 -0.501962
O25   O     O_2   0.008572 0.046522 0.343498 -0.508788
O26   O     O_2   0.994294 0.093959 0.657918 -0.506645
O27   O     O_2   0.491413 0.546523 0.156486 -0.508784
O28   O     O_2   0.505689 0.593947 0.842066 -0.506649
H17   H     H_    0.930526 0.001159 0.355188 0.169511
H18   H     H_    0.071339 0.016467 0.647116 0.169668
H19   H     H_    0.569460 0.501198 0.144793 0.169509
H20   H     H_    0.428646 0.516423 0.852866 0.169669
H21   H     H_    0.879627 0.983699 0.408519 0.171484
H22   H     H_    0.121671 0.964657 0.594311 0.171653
H23   H     H_    0.620359 0.483762 0.091462 0.171484
H24   H     H_    0.378316 0.464593 0.905670 0.171654
C73   C     C_R   0.906149 0.930607 0.658975 0.458485
C74   C     C_R   0.092956 0.845685 0.344932 0.458142
C75   C     C_R   0.593840 0.430636 0.841006 0.458489
C76   C     C_R   0.407034 0.345652 0.155049 0.458131
C77   C     C_R   0.875616 0.943104 0.687908 -0.305586
C78   C     C_R   0.123082 0.837020 0.315329 -0.308894
C79   C     C_R   0.624376 0.443124 0.812077 -0.305612
C80   C     C_R   0.376911 0.336997 0.184655 -0.308900
H25   H     H_    0.883224 0.863929 0.725708 0.147239
H26   H     H_    0.113434 0.751262 0.278541 0.162230
H27   H     H_    0.616769 0.363943 0.774275 0.147257
H28   H     H_    0.386560 0.251245 0.221441 0.162205
C81   C     C_R   0.836262 0.058630 0.669362 -0.161407
C82   C     C_R   0.164481 0.941248 0.331741 -0.169674
C83   C     C_R   0.663731 0.558649 0.830630 -0.161422
C84   C     C_R   0.335514 0.441226 0.168252 -0.169644
C85   C     C_R   0.827237 0.162560 0.621050 -0.279288
C86   C     C_R   0.175915 0.054703 0.378553 -0.272265
C87   C     C_R   0.672753 0.662597 0.878943 -0.279269
C88   C     C_R   0.324076 0.554663 0.121440 -0.272276
H29   H     H_    0.796290 0.249612 0.605720 0.153324
H30   H     H_    0.208307 0.133591 0.392234 0.152488
H31   H     H_    0.703701 0.749654 0.894277 0.153333
H32   H     H_    0.291685 0.633547 0.107764 0.152476
C89   C     C_R   0.856773 0.150848 0.590790 0.462922
C90   C     C_R   0.146721 0.064872 0.409203 0.463449
C91   C     C_R   0.643213 0.650902 0.909196 0.462920
C92   C     C_R   0.353266 0.564815 0.090784 0.463447
C93   C     C_R   0.896955 0.033767 0.609302 0.152046
C94   C     C_R   0.104480 0.959723 0.392869 0.149502
C95   C     C_R   0.603030 0.533810 0.890680 0.152034
C96   C     C_R   0.395507 0.459676 0.107113 0.149524
O29   O     O_3   0.843090 0.240582 0.540162 -0.517498
C97   C     C_3   0.866425 0.410435 0.547706 -0.197283
H33   H     H_    0.905339 0.392071 0.564819 0.114360
H34   H     H_    0.854785 0.502486 0.574349 0.122456
H35   H     H_    0.856790 0.477953 0.506542 0.191157
O30   O     O_3   0.162368 0.166068 0.457901 -0.518108
C98   C     C_3   0.140850 0.339806 0.447356 -0.201490
H36   H     H_    0.102080 0.327262 0.434958 0.117608
H37   H     H_    0.150115 0.415724 0.415567 0.116876
H38   H     H_    0.154210 0.421345 0.486342 0.191635
O31   O     O_3   0.656892 0.740661 0.959824 -0.517496
C99   C     C_3   0.633544 0.910484 0.952282 -0.197271
H39   H     H_    0.594631 0.892076 0.935163 0.114354
H40   H     H_    0.645182 0.002554 0.925645 0.122469
H41   H     H_    0.643171 0.978005 0.993448 0.191149
O32   O     O_3   0.337616 0.665988 0.042087 -0.518109
C100  C     C_3   0.359121 0.839754 0.052635 -0.201501
H42   H     H_    0.397891 0.827256 0.065026 0.117616
H43   H     H_    0.349856 0.915648 0.084432 0.116869
H44   H     H_    0.345751 0.921290 0.013653 0.191637
O33   O     O_3   0.025818 0.902710 0.123548 -0.558486
C101  C     C_3   0.025550 0.013490 0.168334 -0.241023
H45   H     H_    0.995427 0.976478 0.180307 0.181318
H46   H     H_    0.025270 0.163349 0.159315 0.129917
H47   H     H_    0.058207 0.985466 0.204913 0.167999
O34   O     O_3   0.974432 0.127410 0.879768 -0.559410
C102  C     C_3   0.975421 0.032927 0.832508 -0.232470
H48   H     H_    0.974567 0.880797 0.836944 0.135777
H49   H     H_    0.006386 0.075854 0.822950 0.176013
H50   H     H_    0.943619 0.072299 0.796202 0.169678
O35   O     O_3   0.474182 0.402386 0.376472 -0.558495
C103  C     C_3   0.474462 0.513043 0.331671 -0.241005
H51   H     H_    0.504580 0.475917 0.319702 0.181323
H52   H     H_    0.474759 0.662926 0.340671 0.129928
H53   H     H_    0.441801 0.485010 0.295096 0.167994
O36   O     O_3   0.525571 0.627650 0.620220 -0.559406
C104  C     C_3   0.524580 0.533235 0.667486 -0.232502
H54   H     H_    0.525424 0.381098 0.663058 0.135799
H55   H     H_    0.493619 0.576218 0.677046 0.176001
H56   H     H_    0.556387 0.572614 0.703789 0.169655
O37   O     O_3   0.946924 0.828726 0.682688 -0.524896
C105  C     C_3   0.939872 0.653545 0.658198 -0.203224
H57   H     H_    0.934435 0.663241 0.613433 0.121067
H58   H     H_    0.910165 0.580855 0.664312 0.118826
H59   H     H_    0.972115 0.570496 0.678861 0.187331
O38   O     O_3   0.050222 0.755080 0.323263 -0.520864
C106  C     C_3   0.054484 0.583279 0.349370 -0.193845
H60   H     H_    0.064313 0.599006 0.395036 0.116583
H61   H     H_    0.079930 0.494418 0.339585 0.120472
H62   H     H_    0.019732 0.513657 0.332828 0.187646
O39   O     O_3   0.553065 0.328740 0.817290 -0.524888
C107  C     C_3   0.560123 0.153549 0.841766 -0.203213
H63   H     H_    0.565553 0.163224 0.886529 0.121072
H64   H     H_    0.589837 0.080899 0.835655 0.118813
H65   H     H_    0.527886 0.070473 0.821091 0.187323
O40   O     O_3   0.449768 0.255061 0.176715 -0.520882
C108  C     C_3   0.445512 0.083277 0.150592 -0.193849
H66   H     H_    0.435677 0.099022 0.104927 0.116579
H67   H     H_    0.420073 0.994379 0.160375 0.120498
H68   H     H_    0.480267 0.013687 0.167124 0.187645

loop_
_geom_bond_atom_site_label_1
_geom_bond_atom_site_label_2
_ccdc_geom_bond_type
O17   V3    S    
C55   C59   A    
C98   H36   S    
C88   C92   A    
O1    C5    A    
O29   C97   S    
C74   O38   S    
C47   N3    A    
O19   V1    S    
O13   V1    S    
C104  H54   S    
C16   H16   S    
O3    C7    A    
C10   C18   A    
C107  H65   S    
C56   C60   A    
C76   C80   A    
C11   C23   A    
C80   C84   A    
C104  H55   S    
C25   C33   A    
C33   C38   A    
C38   O34   S    
C5    C12   S    
C71   H23   S    
O37   C105  S    
C73   C77   A    
C6    C11   S    
C98   H37   S    
C79   C83   A    
C35   C40   A    
C57   C58   A    
C69   H21   S    
C36   C39   A    
C54   C66   A    
C92   C96   A    
C64   C71   A    
C77   C81   A    
C49   O25   S    
C23   H8    S    
C14   C18   A    
C108  H68   S    
C76   C96   A    
O4    C8    A    
C51   C55   A    
C44   H4    S    
C43   H3    S    
O30   C98   S    
C50   C54   A    
C73   O37   S    
C60   C64   A    
O1    V3    S    
C9    C21   A    
O2    V4    S    
C89   C93   A    
O3    V1    S    
C85   H29   S    
C92   O32   S    
C28   C36   A    
C82   C86   A    
C79   H27   S    
C1    O15   A    
C99   H41   S    
C75   O39   S    
C48   N4    A    
C2    O16   A    
O36   C104  S    
C16   C32   A    
C72   H24   S    
O2    C6    A    
C58   C62   A    
C10   C22   A    
C91   C95   A    
C87   H31   S    
C48   O24   S    
C11   C19   A    
C66   C70   A    
C27   C31   A    
C65   C69   A    
C2    C83   S    
C13   C29   A    
C34   C37   A    
O11   C7    A    
O15   V3    S    
C35   C36   A    
O12   C8    A    
C91   O31   S    
C14   H14   S    
C97   H34   S    
C70   H22   S    
C24   H7    S    
C13   H13   S    
C46   C62   A    
O10   V2    S    
C103  H53   S    
C45   C61   A    
O40   C108  S    
N2    C50   A    
O5    V1    S    
C100  H43   S    
N4    C52   A    
C57   C61   A    
C98   H38   S    
C15   C31   A    
O7    V3    S    
C38   C42   A    
C62   C69   A    
C102  H48   S    
C26   C34   A    
C88   H32   S    
C61   C70   A    
C24   C28   A    
C107  H63   S    
C103  H52   S    
C46   N2    A    
C89   O29   S    
C17   H10   S    
C45   N1    A    
C105  H57   S    
C90   O30   S    
C15   C19   A    
N2    C93   S    
C19   H12   S    
C100  H42   S    
N1    C49   A    
O4    V2    S    
C74   C94   A    
C21   H6    S    
O8    V4    S    
C4    C81   S    
O7    C3    A    
O39   C107  S    
C102  H49   S    
C39   C43   A    
C47   O23   S    
C108  H66   S    
C53   C65   A    
C49   C53   A    
C31   C43   A    
C106  H60   S    
C14   C30   A    
C21   C25   A    
O8    C4    A    
C7    C10   S    
C55   C67   A    
C37   O33   S    
O9    C5    A    
C46   O22   S    
C26   C30   A    
C45   O21   S    
C66   H18   S    
C76   O40   S    
C50   O26   S    
C52   O28   S    
C65   H17   S    
C99   H39   S    
C106  H61   S    
C56   C68   A    
C40   O36   S    
C78   H26   S    
C97   H33   S    
C104  H56   S    
C39   O35   S    
N3    C96   S    
C12   C20   A    
O34   C102  S    
O9    V1    S    
C101  H46   S    
C40   C44   A    
N1    C94   S    
C68   C72   A    
C29   C41   A    
O32   C100  S    
N4    C95   S    
O16   V4    S    
C100  H44   S    
C51   O27   S    
C77   H25   S    
C3    O13   A    
C86   C90   A    
O6    V2    S    
C75   C95   A    
C20   H11   S    
C84   C88   A    
O5    C1    A    
C103  H51   S    
C47   C63   A    
C73   C93   A    
C74   C78   A    
C23   C27   A    
C3    C82   S    
O11   V3    S    
O18   V4    S    
O12   V4    S    
C22   C26   A    
C1    C84   S    
O33   C101  S    
C8    C9    S    
C75   C79   A    
C9    C17   A    
O10   C6    A    
C101  H47   S    
C80   H28   S    
C102  H50   S    
C15   H15   S    
C108  H67   S    
O31   C99   S    
C54   C58   A    
C67   H19   S    
C105  H59   S    
C33   C34   A    
C42   H2    S    
C28   C32   A    
C78   C82   A    
C41   H1    S    
C83   C87   A    
C52   C56   A    
O20   V2    S    
C32   C44   A    
C12   C24   A    
C105  H58   S    
C13   C17   A    
C81   C85   A    
C63   C72   A    
C68   H20   S    
C25   C29   A    
O6    C2    A    
C90   C94   A    
O14   V2    S    
N3    C51   A    
O35   C103  S    
C48   C64   A    
C37   C41   A    
C16   C20   A    
C106  H62   S    
C27   C35   A    
C97   H35   S    
C67   C71   A    
O38   C106  S    
C86   H30   S    
C4    O14   A    
C59   C60   A    
C18   H9    S    
C59   C63   A    
C101  H45   S    
C30   C42   A    
C85   C89   A    
C22   H5    S    
C53   C57   A    
C107  H64   S    
C87   C91   A    
C99   H40   S    
