data_mof_unit_26929.cif
_audit_creation_date              2013-03-05T15:53:24-0500
_audit_creation_method            fapswitch 2.2
_symmetry_space_group_name_H-M    P1
_symmetry_Int_Tables_number       1
_space_group_crystal_system       triclinic
_cell_length_a                    10.675055
_cell_length_b                    10.650044
_cell_length_c                    16.934442
_cell_angle_alpha                 98.699399
_cell_angle_beta                  99.129221
_cell_angle_gamma                 61.682196
_cell_volume                      1666.99975845

loop_
_atom_site_label
_atom_site_type_symbol
_atom_site_description
_atom_site_fract_x
_atom_site_fract_y
_atom_site_fract_z
_atom_type_partial_charge
O1    O     O_R   0.751220 0.499230 0.435170 -0.517653
O2    O     O_R   0.477220 0.727600 0.436870 -0.502962
C1    C     C_R   0.352995 0.778424 0.399823 0.550881
O3    O     O_R   0.258650 0.745120 0.411470 -0.509875
O4    O     O_R   0.297070 0.467240 0.395960 -0.495634
C2    C     C_R   0.370283 0.346850 0.358852 0.537302
O5    O     O_R   0.488830 0.252610 0.387790 -0.520510
O6    O     O_R   0.724400 0.302390 0.420980 -0.497051
C3    C     C_R   0.774866 0.377841 0.401270 0.563804
O7    O     O_R   0.752100 0.501210 0.612190 -0.497148
O8    O     O_R   0.478040 0.729440 0.600970 -0.522436
C4    C     C_R   0.358047 0.768865 0.627945 0.566667
O9    O     O_R   0.259530 0.747110 0.588490 -0.489677
O10   O     O_R   0.297880 0.469080 0.560050 -0.505810
C5    C     C_R   0.368333 0.346359 0.585541 0.546369
O11   O     O_R   0.489720 0.254590 0.564810 -0.522242
O12   O     O_R   0.725220 0.304230 0.585080 -0.466269
C6    C     C_R   0.718288 0.410535 0.635503 0.553528
Cr1   Cr    Cr6+3 0.608340 0.611040 0.520430 1.024419
Cr2   Cr    Cr6+3 0.287650 0.601120 0.489350 1.033003
Cr3   Cr    Cr6+3 0.604040 0.287870 0.490280 1.036928
O13   O     O_3   0.500010 0.500010 0.500020 -0.288046
C7    C     C_1   0.343566 0.336649 0.275061 -0.065620
C8    C     C_1   0.332435 0.326144 0.203839 -0.061413
C9    C     C_3   0.877350 0.198643 0.217286 -0.115707
C10   C     C_3   0.731966 0.301022 0.249585 -0.120843
H1    H     H_    0.646571 0.272227 0.254788 0.134271
H2    H     H_    0.909317 0.087150 0.190699 0.129707
C11   C     C_3   0.812324 0.351003 0.320197 0.058653
C12   C     C_3   0.956176 0.249526 0.289555 -0.150719
C13   C     C_3   0.939983 0.370510 0.242445 -0.111887
C14   C     C_3   0.794943 0.472754 0.274055 -0.106755
C15   C     C_3   0.715917 0.422073 0.202387 -0.149859
C16   C     C_3   0.859572 0.321006 0.171717 0.064810
H3    H     H_    0.051180 0.184013 0.329639 0.110735
H4    H     H_    0.025620 0.399185 0.237498 0.128041
H5    H     H_    0.763007 0.584962 0.299311 0.133253
H6    H     H_    0.621141 0.487113 0.162034 0.103244
C17   C     C_3   0.469050 0.779780 0.222757 -0.132331
C18   C     C_3   0.406189 0.695563 0.255431 -0.115246
H7    H     H_    0.460721 0.581199 0.267677 0.114993
H8    H     H_    0.576102 0.737073 0.201558 0.113761
C19   C     C_3   0.342046 0.819472 0.320468 0.054936
C20   C     C_3   0.406063 0.902330 0.289615 -0.125194
C21   C     C_3   0.265453 0.973877 0.234675 -0.109559
C22   C     C_3   0.202416 0.889819 0.266811 -0.119648
C23   C     C_3   0.265735 0.766750 0.201107 -0.116101
C24   C     C_3   0.328609 0.849894 0.169521 0.059683
H9    H     H_    0.461218 0.959222 0.327875 0.131295
H10   H     H_    0.210845 0.088243 0.222420 0.115831
H11   H     H_    0.094803 0.933184 0.287422 0.121004
H12   H     H_    0.210532 0.709278 0.163475 0.123663
C25   C     C_3   0.459771 0.258356 0.776028 -0.154182
C26   C     C_3   0.403909 0.399917 0.737249 -0.132153
H13   H     H_    0.465661 0.458382 0.734525 0.093754
H14   H     H_    0.567382 0.202073 0.808868 0.131984
C27   C     C_3   0.340275 0.336554 0.663685 0.031546
C28   C     C_3   0.396848 0.195757 0.701287 -0.102724
C29   C     C_3   0.254639 0.261480 0.737444 0.228331
C30   C     C_3   0.196663 0.401840 0.698681 -0.101792
C31   C     C_3   0.260233 0.463177 0.774420 -0.165627
C32   C     C_3   0.316683 0.321711 0.812312 0.032444
H15   H     H_    0.449315 0.086740 0.670026 0.139144
H16   H     H_    0.089632 0.456898 0.665044 0.151426
H17   H     H_    0.206511 0.571718 0.805983 0.132372
C33   C     C_1   0.767006 0.368654 0.715812 -0.009374
C34   C     C_1   0.810364 0.331524 0.782824 0.000603
C35   C     C_1   0.341322 0.806588 0.710984 -0.000116
C36   C     C_1   0.316173 0.833184 0.779729 0.002605
O14   O     O_R   0.171830 0.913880 0.057510 -0.529168
O15   O     O_R   0.940690 0.186050 0.054730 -0.515939
C37   C     C_R   0.896139 0.308653 0.091883 0.537329
O16   O     O_R   0.920470 0.405720 0.075010 -0.527874
O17   O     O_R   0.196690 0.370460 0.084120 -0.511622
C38   C     C_R   0.319456 0.299347 0.120188 0.532519
O18   O     O_R   0.412990 0.180750 0.091610 -0.514230
O19   O     O_R   0.366620 0.943130 0.065760 -0.507439
C39   C     C_R   0.296671 0.887956 0.087653 0.528999
O20   O     O_R   0.160510 0.906330 0.879210 -0.496036
O21   O     O_R   0.930190 0.179050 0.889450 -0.467804
C40   C     C_R   0.875548 0.303706 0.863129 0.582796
O22   O     O_R   0.909140 0.398170 0.896710 -0.503553
O23   O     O_R   0.186190 0.363460 0.918830 -0.480931
C41   C     C_R   0.307389 0.293785 0.891500 0.570443
O24   O     O_R   0.401670 0.173200 0.913310 -0.510985
O25   O     O_R   0.356120 0.936130 0.900470 -0.483331
C42   C     C_R   0.281914 0.880994 0.860067 0.576278
Cr4   Cr    Cr6+3 0.054020 0.052700 0.970850 1.044239
Cr5   Cr    Cr6+3 0.059230 0.375120 0.993390 1.039356
Cr6   Cr    Cr6+3 0.374950 0.061200 0.992340 1.041238
O26   O     O_3   0.162740 0.163010 0.985530 -0.237442
N1    N     N_R   0.171024 0.185340 0.733137 0.054695
O27   O     O_R   0.123257 0.145278 0.663648 -0.349487
O28   O     O_R   0.143450 0.157137 0.798138 -0.324881

loop_
_geom_bond_atom_site_label_1
_geom_bond_atom_site_label_2
_geom_bond_distance
_ccdc_geom_bond_type
C20   H9    1.110050 S    
C18   C23   1.537527 S    
O11   Cr3   2.059690 S    
O14   C39   1.261158 A    
C2    O5    1.263308 A    
C38   O18   1.264305 A    
O14   Cr4   2.056151 S    
O20   C42   1.277731 A    
C40   O22   1.252433 A    
Cr6   O26   1.986299 S    
O4    Cr2   1.943340 S    
O19   C39   1.268993 A    
C9    H2    1.109822 S    
C4    C35   1.418269 S    
O8    Cr1   1.950067 S    
C10   H1    1.109811 S    
O22   Cr5   2.055211 S    
C12   H3    1.108875 S    
O17   Cr5   1.937773 S    
C11   C14   1.535762 S    
C12   C13   1.543507 S    
C21   C24   1.538236 S    
C5    O11   1.263586 A    
C28   H15   1.110486 S    
C24   C39   1.446214 S    
C26   H13   1.110013 S    
C18   C19   1.538079 S    
O23   C41   1.270462 A    
O6    C3    1.263417 A    
C7    C8    1.186439 T    
Cr5   O26   1.982239 S    
C36   C42   1.419716 S    
C3    C11   1.439988 S    
C9    C16   1.533913 S    
C37   O16   1.259130 A    
C33   C34   1.205745 T    
C29   C30   1.529269 S    
Cr3   O13   1.982410 S    
C5    C27   1.431439 S    
O20   Cr4   2.068188 S    
O12   C6    1.290159 A    
C17   H8    1.108771 S    
O23   Cr5   1.944847 S    
O19   Cr6   1.936247 S    
O1    Cr1   2.069931 S    
O17   C38   1.268242 A    
O10   Cr2   1.935192 S    
Cr1   O13   1.975323 S    
O1    C3    1.255588 A    
C41   O24   1.264079 A    
O25   Cr6   1.939836 S    
C17   C18   1.549157 S    
O25   C42   1.260243 A    
C35   C36   1.197847 T    
C27   C30   1.528838 S    
C28   C29   1.525323 S    
O5    Cr3   2.056599 S    
C22   H11   1.109023 S    
O12   Cr3   1.936814 S    
C30   C31   1.556662 S    
C19   C20   1.530890 S    
C11   C12   1.517935 S    
C31   H17   1.110067 S    
C25   C32   1.536427 S    
C10   C15   1.545625 S    
C23   C24   1.530266 S    
Cr4   O26   1.975501 S    
O7    Cr1   2.056216 S    
O24   Cr6   2.054775 S    
C1    C19   1.445708 S    
N1    O28   1.294311 A    
C15   C16   1.515798 S    
C13   C16   1.536712 S    
C14   H5    1.110118 S    
C17   C20   1.549014 S    
C18   H7    1.109414 S    
Cr2   O13   1.986006 S    
C34   C40   1.430859 S    
C1    O3    1.265746 A    
C16   C37   1.436103 S    
C20   C21   1.544503 S    
C25   H14   1.110436 S    
C9    C12   1.550718 S    
C32   C41   1.444790 S    
C22   C23   1.539415 S    
C29   C32   1.532386 S    
O9    Cr2   2.062440 S    
O2    Cr1   1.938282 S    
O10   C5    1.263040 A    
C13   C14   1.535149 S    
O21   C40   1.289671 A    
O6    Cr3   1.942642 S    
C25   C28   1.548359 S    
C8    C38   1.400094 S    
C25   C26   1.543401 S    
C23   H12   1.110432 S    
C26   C31   1.549269 S    
C6    C33   1.434563 S    
C15   H6    1.108748 S    
C30   H16   1.110253 S    
C14   C15   1.544309 S    
O2    C1    1.266047 A    
C9    C10   1.542789 S    
O16   Cr5   2.065495 S    
O15   C37   1.258671 A    
O21   Cr4   1.937425 S    
C27   C28   1.525238 S    
O4    C2    1.269280 A    
C21   H10   1.109450 S    
O7    C6    1.307644 A    
C2    C7    1.400339 S    
N1    O27   1.300363 A    
C29   N1    1.451798 S    
C31   C32   1.534018 S    
C19   C22   1.524920 S    
O15   Cr4   1.950202 S    
O3    Cr2   2.054025 S    
C21   C22   1.544515 S    
C4    O9    1.251997 A    
C10   C11   1.537609 S    
C13   H4    1.110365 S    
O8    C4    1.281849 A    
O18   Cr6   2.058745 S    
C17   C24   1.526636 S    
C26   C27   1.542999 S    
