data_mof_unit_56888.cif
_audit_creation_date              2012-12-11T16:45:48-0500
_audit_creation_method            fapswitch 2.2
_symmetry_space_group_name_H-M    P1
_symmetry_Int_Tables_number       1
_space_group_crystal_system       triclinic
_cell_length_a                    19.812989
_cell_length_b                    17.080019
_cell_length_c                    15.304914
_cell_angle_alpha                 90.000013
_cell_angle_beta                  52.595868
_cell_angle_gamma                 90.000039
_cell_volume                      4114.26747188

loop_
_atom_site_label
_atom_site_type_symbol
_atom_type_description
_atom_site_fract_x
_atom_site_fract_y
_atom_site_fract_z
_atom_type_partial_charge
C1    C     C_R   0.873960 0.693887 0.993274 -0.126809
C2    C     C_R   0.210687 0.347400 0.977760 0.153487
C3    C     C_R   0.289312 0.847401 0.022243 0.153486
C4    C     C_R   0.710686 0.847400 0.977761 0.153486
C5    C     C_R   0.808010 0.638652 0.324822 0.072271
C6    C     C_R   0.191989 0.638653 0.675178 0.072271
C7    C     C_R   0.308010 0.138651 0.324822 0.072270
C8    C     C_R   0.691988 0.138653 0.675177 0.072270
C9    C     C_R   0.703163 0.635321 0.528852 0.168784
C10   C     C_R   0.296841 0.635320 0.471148 0.168784
C11   C     C_R   0.203168 0.135322 0.528852 0.168781
C12   C     C_R   0.126041 0.693887 0.006725 -0.126807
C13   C     C_R   0.796829 0.135323 0.471147 0.168779
C14   C     C_R   0.728455 0.664429 0.427320 0.032216
C15   C     C_R   0.271545 0.664430 0.572681 0.032217
C16   C     C_R   0.228456 0.164429 0.427321 0.032220
C17   C     C_R   0.771542 0.164430 0.572678 0.032219
C18   C     C_R   0.183636 0.228787 0.428293 -0.197520
C19   C     C_R   0.816365 0.228787 0.571706 -0.197519
C20   C     C_R   0.683637 0.728790 0.428291 -0.197519
C21   C     C_R   0.316361 0.728793 0.571712 -0.197520
C22   C     C_R   0.133202 0.274471 0.523451 -0.204060
C23   C     C_R   0.373960 0.193887 0.993274 -0.126809
C24   C     C_R   0.866800 0.274470 0.476546 -0.204056
C25   C     C_R   0.633203 0.774474 0.523450 -0.204057
C26   C     C_R   0.366795 0.774476 0.476553 -0.204059
C27   C     C_R   0.127455 0.255113 0.617236 0.030364
C28   C     C_R   0.872546 0.255112 0.382763 0.030363
C29   C     C_R   0.627453 0.755113 0.617236 0.030361
C30   C     C_R   0.372548 0.755114 0.382765 0.030360
C31   C     C_R   0.652894 0.679995 0.622756 0.165158
C32   C     C_R   0.347110 0.679994 0.377244 0.165160
C33   C     C_R   0.152900 0.179997 0.622755 0.165158
C34   C     C_R   0.626041 0.193887 0.006725 -0.126808
C35   C     C_R   0.847099 0.179996 0.377243 0.165151
C36   C     C_3   0.698236 0.652327 0.667368 -0.528873
C37   C     C_3   0.301772 0.652322 0.332629 -0.528865
C38   C     C_3   0.198249 0.152337 0.667360 -0.528869
C39   C     C_3   0.801749 0.152337 0.332639 -0.528861
C40   C     C_R   0.900200 0.301594 0.207301 -0.155266
C41   C     C_R   0.099800 0.301594 0.792698 -0.155264
C42   C     C_R   0.400200 0.801594 0.207302 -0.155265
C43   C     C_R   0.599800 0.801594 0.792698 -0.155264
C44   C     C_3   0.753536 0.603864 0.564667 -0.526029
C45   C     C_R   0.889271 0.315173 0.303876 0.082916
C46   C     C_3   0.246473 0.603859 0.435330 -0.526032
C47   C     C_3   0.253547 0.103872 0.564660 -0.526035
C48   C     C_3   0.746448 0.103875 0.435340 -0.526026
C49   C     C_2   0.694644 0.235993 0.092963 -0.202490
C50   C     C_2   0.305356 0.235993 0.907037 -0.202495
C51   C     C_2   0.194647 0.735991 0.092960 -0.202490
C52   C     C_2   0.805357 0.735994 0.907038 -0.202495
C53   C     C_2   0.215783 0.806998 0.045809 -0.199656
C54   C     C_2   0.784213 0.806997 0.954201 -0.199654
C55   C     C_2   0.715784 0.306998 0.045806 -0.199653
C56   C     C_R   0.110730 0.315173 0.696123 0.082914
C57   C     C_2   0.284214 0.306997 0.954198 -0.199655
C58   C     C_R   0.830241 0.410610 0.950931 -0.154827
C59   C     C_R   0.169758 0.410610 0.049070 -0.154827
C60   C     C_R   0.330241 0.910610 0.950932 -0.154826
C61   C     C_R   0.669758 0.910610 0.049071 -0.154827
C62   C     C_R   0.858221 0.578100 0.315271 -0.144391
C63   C     C_R   0.141779 0.578100 0.684729 -0.144391
C64   C     C_R   0.358221 0.078099 0.315271 -0.144392
C65   C     C_R   0.641778 0.078100 0.684729 -0.144391
C66   C     C_R   0.840689 0.320231 0.048260 -0.116386
C67   C     C_R   0.389271 0.815173 0.303877 0.082918
C68   C     C_R   0.159311 0.320230 0.951741 -0.116386
C69   C     C_R   0.340689 0.820232 0.048261 -0.116384
C70   C     C_R   0.659310 0.820230 0.951741 -0.116385
C71   C     C_R   0.850390 0.672096 0.220926 -0.123901
C72   C     C_R   0.149609 0.672096 0.779074 -0.123900
C73   C     C_R   0.350390 0.172096 0.220926 -0.123902
C74   C     C_R   0.649609 0.172097 0.779073 -0.123902
C75   C     C_R   0.906662 0.393594 0.304377 -0.141909
C76   C     C_R   0.093338 0.393594 0.695623 -0.141909
C77   C     C_R   0.406662 0.893594 0.304377 -0.141908
C78   C     C_R   0.610729 0.815173 0.696123 0.082917
C79   C     C_R   0.593338 0.893594 0.695623 -0.141907
C80   C     C_R   0.864347 0.602259 0.897690 -0.161756
C81   C     C_R   0.135654 0.602259 0.102309 -0.161756
C82   C     C_R   0.364347 0.102259 0.897690 -0.161757
C83   C     C_R   0.635653 0.102259 0.102310 -0.161757
C84   C     C_R   0.845459 0.679383 0.932504 0.157402
C85   C     C_R   0.154543 0.679382 0.067495 0.157400
C86   C     C_R   0.345459 0.179383 0.932504 0.157403
C87   C     C_R   0.654541 0.179383 0.067496 0.157400
C88   C     C_R   0.789313 0.347401 0.022241 0.153486
H1    H     H_    0.880954 0.749867 0.019680 0.081772
H2    H     H_    0.343228 0.616209 0.257189 0.189048
H3    H     H_    0.156801 0.116223 0.742802 0.189047
H4    H     H_    0.843195 0.116222 0.257198 0.189046
H5    H     H_    0.820732 0.624030 0.512587 0.200540
H6    H     H_    0.179276 0.624022 0.487406 0.200539
H7    H     H_    0.320742 0.124041 0.512575 0.200544
H8    H     H_    0.679254 0.124046 0.487424 0.200542
H9    H     H_    0.744295 0.539844 0.581097 0.192211
H10   H     H_    0.255717 0.539839 0.418900 0.192212
H11   H     H_    0.244311 0.039853 0.581093 0.192210
H12   H     H_    0.119050 0.749867 0.980317 0.081771
H13   H     H_    0.755682 0.039854 0.418909 0.192206
H14   H     H_    0.190027 0.829855 0.005629 0.122660
H15   H     H_    0.809958 0.829848 0.994395 0.122658
H16   H     H_    0.690033 0.329853 0.005620 0.122658
H17   H     H_    0.309961 0.329850 0.994389 0.122659
H18   H     H_    0.809148 0.443948 0.911553 0.096839
H19   H     H_    0.190851 0.443947 0.088449 0.096838
H20   H     H_    0.309148 0.943948 0.911554 0.096839
H21   H     H_    0.690850 0.943947 0.088450 0.096838
H22   H     H_    0.843851 0.536527 0.377161 0.110853
H23   H     H_    0.380953 0.249867 0.019680 0.081772
H24   H     H_    0.156149 0.536527 0.622839 0.110853
H25   H     H_    0.343851 0.036526 0.377161 0.110854
H26   H     H_    0.656147 0.036528 0.622839 0.110854
H27   H     H_    0.831315 0.270808 0.098392 0.087774
H28   H     H_    0.168685 0.270807 0.901610 0.087774
H29   H     H_    0.331314 0.770809 0.098395 0.087773
H30   H     H_    0.668684 0.770806 0.901611 0.087773
H31   H     H_    0.829657 0.720801 0.197822 0.090875
H32   H     H_    0.170342 0.720801 0.802179 0.090874
H33   H     H_    0.329657 0.220801 0.197822 0.090876
H34   H     H_    0.619048 0.249867 0.980318 0.081772
H35   H     H_    0.670342 0.220802 0.802177 0.090875
H36   H     H_    0.860013 0.575121 0.837401 0.093044
H37   H     H_    0.139988 0.575120 0.162597 0.093044
H38   H     H_    0.360013 0.075121 0.837401 0.093044
H39   H     H_    0.639987 0.075120 0.162599 0.093044
H40   H     H_    0.195816 0.250009 0.353317 0.127093
H41   H     H_    0.804185 0.250009 0.646681 0.127093
H42   H     H_    0.695820 0.750014 0.353314 0.127091
H43   H     H_    0.304176 0.750018 0.646689 0.127092
H44   H     H_    0.734487 0.699281 0.672736 0.201664
H45   H     H_    0.108604 0.329240 0.518019 0.123849
H46   H     H_    0.265520 0.699274 0.327259 0.201661
H47   H     H_    0.234499 0.199295 0.672721 0.201666
H48   H     H_    0.765501 0.199296 0.327276 0.201665
H49   H     H_    0.718601 0.213963 0.135745 0.125189
H50   H     H_    0.281401 0.213965 0.864252 0.125192
H51   H     H_    0.218610 0.713959 0.135734 0.125189
H52   H     H_    0.781404 0.713967 0.864250 0.125192
H53   H     H_    0.907820 0.245351 0.170124 0.099820
H54   H     H_    0.092181 0.245351 0.829875 0.099819
H55   H     H_    0.407820 0.745351 0.170125 0.099819
H56   H     H_    0.891400 0.329238 0.481978 0.123847
H57   H     H_    0.592181 0.745351 0.829875 0.099820
H58   H     H_    0.917280 0.421328 0.358533 0.084140
H59   H     H_    0.082721 0.421329 0.641466 0.084140
H60   H     H_    0.417281 0.921330 0.358532 0.084139
H61   H     H_    0.582720 0.921329 0.641467 0.084139
H62   H     H_    0.608608 0.829244 0.518015 0.123847
H63   H     H_    0.391387 0.829248 0.481988 0.123848
H64   H     H_    0.656783 0.616213 0.742807 0.189050
N1    N     N_R   0.908660 0.628630 0.995840 -0.043718
N2    N     N_R   0.096530 0.421430 0.063580 -0.039687
N3    N     N_R   0.403470 0.921430 0.936420 -0.039688
N4    N     N_R   0.596530 0.921430 0.063580 -0.039687
N5    N     N_R   0.927500 0.575670 0.211370 -0.039750
N6    N     N_R   0.072500 0.575670 0.788630 -0.039750
N7    N     N_R   0.427500 0.075670 0.211370 -0.039750
N8    N     N_R   0.572500 0.075670 0.788630 -0.039750
N9    N     N_R   0.908660 0.365680 0.995820 -0.045398
N10   N     N_R   0.091340 0.365680 0.004180 -0.045398
N11   N     N_R   0.408660 0.865680 0.995820 -0.045399
N12   N     N_R   0.091340 0.628630 0.004160 -0.043719
N13   N     N_R   0.591340 0.865680 0.004180 -0.045398
N14   N     N_R   0.922310 0.631420 0.151980 -0.040895
N15   N     N_R   0.077690 0.631420 0.848020 -0.040895
N16   N     N_R   0.422310 0.131420 0.151980 -0.040895
N17   N     N_R   0.577690 0.131420 0.848020 -0.040895
N18   N     N_R   0.927500 0.426330 0.211360 -0.037758
N19   N     N_R   0.072500 0.426330 0.788640 -0.037758
N20   N     N_R   0.427500 0.926330 0.211360 -0.037758
N21   N     N_R   0.572500 0.926330 0.788640 -0.037758
N22   N     N_R   0.903470 0.570760 0.936440 -0.038394
N23   N     N_R   0.408660 0.128630 0.995840 -0.043718
N24   N     N_R   0.096530 0.570760 0.063560 -0.038394
N25   N     N_R   0.403470 0.070760 0.936440 -0.038394
N26   N     N_R   0.596530 0.070760 0.063560 -0.038394
N27   N     N_R   0.591340 0.128630 0.004160 -0.043718
N28   N     N_R   0.922310 0.368460 0.151950 -0.038068
N29   N     N_R   0.077690 0.368460 0.848050 -0.038068
N30   N     N_R   0.422310 0.868460 0.151950 -0.038068
N31   N     N_R   0.577690 0.868460 0.848050 -0.038068
N32   N     N_R   0.903470 0.421430 0.936420 -0.039688
Ni1   Ni    Ni4+2 0.000000 0.630300 0.000000 0.208357
Ni2   Ni    Ni4+2 0.500000 0.130300 0.000000 0.208357
Ni3   Ni    Ni4+2 0.000000 0.369700 0.000000 0.207163
Ni4   Ni    Ni4+2 0.500000 0.869700 0.000000 0.207164
Ni5   Ni    Ni4+2 0.988090 0.497570 0.863760 0.209811
Ni6   Ni    Ni4+2 0.011910 0.497570 0.136240 0.209811
Ni7   Ni    Ni4+2 0.488090 0.997570 0.863760 0.209811
Ni8   Ni    Ni4+2 0.511910 0.997570 0.136240 0.209811

loop_
_geom_bond_atom_site_label_1
_geom_bond_atom_site_label_2
_ccdc_geom_bond_type
C19   H41   S    
C57   H17   S    
C21   C26   A    
N25   Ni7   S    
C49   H49   S    
N14   Ni1   S    
C65   H26   S    
C79   N21   A    
C83   C87   A    
C67   C77   A    
C80   C84   A    
C61   H21   S    
C51   C85   S    
C4    C70   A    
N26   N27   A    
N29   Ni3   S    
C2    C57   S    
N23   N25   A    
N27   Ni2   S    
N20   Ni8   S    
C43   C78   A    
C6    C72   A    
C37   H2    S    
C56   C76   A    
C26   H63   S    
C3    C69   A    
C24   H56   S    
N17   Ni2   S    
C13   C35   A    
C2    C68   A    
C10   C15   A    
C36   H44   S    
C66   C88   A    
N10   Ni3   S    
C23   N23   A    
C20   C25   A    
C42   N30   A    
C37   H46   S    
C55   C88   S    
C47   H11   S    
N7    N16   A    
N19   Ni5   S    
C58   N32   A    
C44   H9    S    
C43   N31   A    
C63   H24   S    
C52   C84   S    
C49   C87   S    
N5    Ni6   S    
C21   H43   S    
C74   N17   A    
C44   H5    S    
C55   H16   S    
C18   H40   S    
C6    C15   S    
C40   N28   A    
C11   C47   S    
C82   H38   S    
C29   C78   S    
C76   H59   S    
C23   C86   A    
C46   H6    S    
C10   C46   S    
N8    N17   A    
N9    Ni3   S    
C24   C28   A    
C30   C67   S    
C60   H20   S    
C79   H61   S    
C4    C54   S    
C3    C60   A    
C74   H35   S    
N2    Ni6   S    
C8    C65   A    
C34   H34   S    
C40   H53   S    
C41   N29   A    
C34   N27   A    
C73   N16   A    
C59   N2    A    
C52   C54   D    
N6    N15   A    
C39   H48   S    
N1    N22   A    
C75   H58   S    
C25   C29   A    
C40   C45   A    
C28   C45   S    
N13   Ni4   S    
N16   Ni2   S    
C66   H27   S    
C22   H45   S    
C81   N24   A    
C14   C20   A    
C54   H15   S    
C11   C33   A    
C28   C35   A    
C7    C73   A    
N12   Ni1   S    
C82   N25   A    
C70   N13   A    
C83   H39   S    
C9    C31   A    
C78   C79   A    
C36   H64   S    
N3    N11   A    
C82   C86   A    
C38   H3    S    
C71   N14   A    
C59   H19   S    
C51   C53   D    
C66   N9    A    
N18   N28   A    
C25   H62   S    
C1    C84   A    
C6    C63   A    
N5    N14   A    
C76   N19   A    
C35   C39   S    
C9    C14   A    
C41   C56   A    
C43   H57   S    
N28   Ni3   S    
N20   N30   A    
C12   N12   A    
N26   Ni8   S    
C11   C16   A    
N24   Ni6   S    
C62   H22   S    
C53   H14   S    
C52   H52   S    
C72   H32   S    
C75   N18   A    
C8    C74   A    
C5    C14   S    
C62   N5    A    
C33   C38   S    
N30   Ni4   S    
C32   C37   S    
C27   C56   S    
C1    N1    A    
C77   H60   S    
C65   N8    A    
C38   C47   S    
N3    Ni7   S    
C68   H28   S    
C12   C85   A    
C16   C18   A    
C7    C16   S    
C2    C59   A    
C26   C30   A    
C73   H33   S    
C22   C27   A    
C42   C67   A    
C72   N15   A    
N6    Ni5   S    
C61   N4    A    
N4    Ni8   S    
C39   H4    S    
C42   H55   S    
C80   H36   S    
C9    C44   S    
C1    H1    S    
C64   H25   S    
C48   H8    S    
C83   N26   A    
C81   H37   S    
C18   C22   A    
C50   C57   D    
N7    Ni8   S    
N19   N29   A    
C69   N11   A    
N8    Ni7   S    
C20   H42   S    
C58   C88   A    
N2    N10   A    
C13   C48   S    
C50   H50   S    
C68   N10   A    
C23   H23   S    
N18   Ni6   S    
C8    C17   S    
C71   H31   S    
C45   C75   A    
N9    N32   A    
C19   C24   A    
C60   N3    A    
C80   N22   A    
C41   H54   S    
C29   C31   A    
C49   C55   D    
N31   Ni4   S    
N23   Ni2   S    
C30   C32   A    
C3    C53   S    
N1    Ni1   S    
N4    N13   A    
C70   H30   S    
C77   N20   A    
C48   H13   S    
C4    C61   A    
C64   N7    A    
C69   H29   S    
C17   C19   A    
N21   Ni7   S    
C5    C62   A    
N12   N24   A    
C34   C87   A    
C46   H10   S    
C7    C64   A    
C38   H47   S    
C36   C44   S    
C50   C86   S    
N22   Ni5   S    
C13   C17   A    
C10   C32   A    
C15   C21   A    
N21   N31   A    
C5    C71   A    
C27   C33   A    
C47   H7    S    
C31   C36   S    
N11   Ni4   S    
C12   H12   S    
C63   N6    A    
C58   H18   S    
C37   C46   S    
N32   Ni5   S    
C81   C85   A    
C51   H51   S    
C39   C48   S    
N15   Ni1   S    
