data_mof_unit_33053.cif
_audit_creation_date              2012-12-11T17:08:00-0500
_audit_creation_method            fapswitch 2.2
_symmetry_space_group_name_H-M    P1
_symmetry_Int_Tables_number       1
_space_group_crystal_system       triclinic
_cell_length_a                    17.356142
_cell_length_b                    17.356161
_cell_length_c                    17.582048
_cell_angle_alpha                 89.786661
_cell_angle_beta                  90.213399
_cell_angle_gamma                 89.982807
_cell_volume                      5296.27201051

loop_
_atom_site_label
_atom_site_type_symbol
_atom_type_description
_atom_site_fract_x
_atom_site_fract_y
_atom_site_fract_z
_atom_type_partial_charge
C1    C     C_R   0.393212 0.303866 0.897071 0.690564
C2    C     C_R   0.671886 0.419149 0.859113 0.665131
C3    C     C_R   0.604472 0.697425 0.899259 0.762322
C4    C     C_R   0.333532 0.576974 0.855361 0.628365
C5    C     C_R   0.419147 0.671888 0.140886 0.665131
C6    C     C_R   0.697425 0.604471 0.100743 0.762261
C7    C     C_R   0.576975 0.333531 0.144638 0.628387
C8    C     C_R   0.303866 0.393212 0.102930 0.690563
C9    C     C_R   0.921787 0.832264 0.356320 0.655735
C10   C     C_R   0.197304 0.895816 0.399647 0.744617
C11   C     C_R   0.102521 0.195439 0.393176 0.748712
C12   C     C_R   0.803383 0.104431 0.397211 0.768112
C13   C     C_R   0.895816 0.197303 0.600354 0.744616
C14   C     C_R   0.195439 0.102521 0.606824 0.748713
C15   C     C_R   0.104431 0.803383 0.602789 0.768093
C16   C     C_R   0.832261 0.921784 0.643678 0.655743
C17   C     C_3   0.871158 0.254386 0.774217 -0.403033
C18   C     C_3   0.684858 0.800903 0.666098 -0.446749
C19   C     C_3   0.131300 0.735173 0.776399 -0.435837
C20   C     C_3   0.232541 0.094956 0.786119 -0.431813
C21   C     C_3   0.800913 0.684863 0.333901 -0.446754
C22   C     C_3   0.735177 0.131298 0.223599 -0.435869
C23   C     C_3   0.094956 0.232540 0.213881 -0.431814
C24   C     C_3   0.254379 0.871158 0.225783 -0.403037
C25   C     C_3   0.295436 0.820360 0.165365 -0.423693
C26   C     C_3   0.136056 0.256057 0.138872 -0.426676
C27   C     C_3   0.695598 0.185939 0.164951 -0.429803
C28   C     C_3   0.763133 0.630825 0.273953 -0.398163
C29   C     C_3   0.256057 0.136055 0.861129 -0.426677
C30   C     C_3   0.185940 0.695590 0.835045 -0.429792
C31   C     C_3   0.630820 0.763129 0.726050 -0.398205
C32   C     C_3   0.820361 0.295447 0.834633 -0.423698
C33   C     C_R   0.418779 0.672111 0.858218 0.788299
C34   C     C_R   0.302878 0.392616 0.900598 0.803873
C35   C     C_R   0.584101 0.325789 0.860058 0.783414
C36   C     C_R   0.696391 0.609262 0.898686 0.816785
C37   C     C_R   0.392617 0.302879 0.099403 0.803864
C38   C     C_R   0.325788 0.584102 0.139941 0.783410
C39   C     C_R   0.609261 0.696390 0.101316 0.816768
C40   C     C_R   0.672112 0.418779 0.141781 0.788247
C41   C     C_R   0.893107 0.195288 0.393535 0.744446
C42   C     C_R   0.826939 0.918035 0.358829 0.786650
C43   C     C_R   0.109549 0.803529 0.399712 0.827350
C44   C     C_R   0.192897 0.105301 0.388279 0.717381
C45   C     C_R   0.918034 0.826938 0.641170 0.786666
C46   C     C_R   0.803529 0.109549 0.600290 0.827345
C47   C     C_R   0.105300 0.192897 0.611722 0.717379
C48   C     C_R   0.195288 0.893107 0.606465 0.744449
C49   C     C_R   0.316771 0.317761 0.881445 -0.355585
C50   C     C_R   0.644711 0.356738 0.819793 -0.408516
C51   C     C_R   0.679871 0.685291 0.882834 -0.479548
C52   C     C_R   0.361449 0.638689 0.815342 -0.362757
C53   C     C_R   0.356736 0.644713 0.180205 -0.408521
C54   C     C_R   0.685289 0.679870 0.117170 -0.479562
C55   C     C_R   0.638691 0.361448 0.184657 -0.362770
C56   C     C_R   0.317762 0.316772 0.118556 -0.355581
C57   C     C_R   0.859620 0.860077 0.316425 -0.357278
C58   C     C_R   0.185476 0.820125 0.384369 -0.475785
C59   C     C_R   0.175171 0.180558 0.368835 -0.433285
C60   C     C_R   0.817092 0.179019 0.377678 -0.465965
C61   C     C_R   0.820126 0.185475 0.615634 -0.475778
C62   C     C_R   0.180557 0.175171 0.631166 -0.433285
C63   C     C_R   0.179019 0.817092 0.622322 -0.465971
C64   C     C_R   0.860074 0.859616 0.683572 -0.357269
C65   C     C_R   0.767187 0.315861 0.768977 0.107997
C66   C     C_R   0.691895 0.782810 0.784920 0.162335
C67   C     C_R   0.237489 0.679246 0.767611 0.105945
C68   C     C_R   0.283149 0.201800 0.811597 0.110973
C69   C     C_R   0.782813 0.691896 0.215080 0.162329
C70   C     C_R   0.679252 0.237488 0.232384 0.105955
C71   C     C_R   0.201800 0.283149 0.188404 0.110971
C72   C     C_R   0.315855 0.767188 0.231020 0.108006
C73   C     C_R   0.278793 0.810665 0.283676 0.162788
C74   C     C_R   0.167365 0.259446 0.254447 0.160448
C75   C     C_R   0.717208 0.191880 0.282985 0.168513
C76   C     C_R   0.819056 0.737021 0.267147 0.100087
C77   C     C_R   0.259446 0.167364 0.745554 0.160448
C78   C     C_R   0.191881 0.717205 0.717012 0.168515
C79   C     C_R   0.737018 0.819049 0.732849 0.100082
C80   C     C_R   0.810665 0.278796 0.716322 0.162791
C81   C     C_R   0.687373 0.319892 0.761216 0.210203
C82   C     C_R   0.726307 0.740845 0.844050 0.125151
C83   C     C_R   0.317009 0.676011 0.757909 0.210646
C84   C     C_R   0.277673 0.281197 0.819751 0.179304
C85   C     C_R   0.740845 0.726307 0.155951 0.125162
C86   C     C_R   0.676014 0.317008 0.242088 0.210651
C87   C     C_R   0.281197 0.277674 0.180251 0.179303
C88   C     C_R   0.319890 0.687373 0.238782 0.210210
C89   C     C_R   0.239618 0.774751 0.343422 0.104776
C90   C     C_R   0.212113 0.226468 0.312793 0.093482
C91   C     C_R   0.761248 0.225920 0.340396 0.114839
C92   C     C_R   0.822566 0.816579 0.258106 0.212314
C93   C     C_R   0.226468 0.212112 0.687207 0.093485
C94   C     C_R   0.225921 0.761247 0.659602 0.114845
C95   C     C_R   0.816576 0.822561 0.741890 0.212315
C96   C     C_R   0.774751 0.239618 0.656579 0.104774
C97   C     C_R   0.247755 0.695236 0.355746 -0.090313
C98   C     C_R   0.292235 0.227460 0.308490 -0.078254
C99   C     C_R   0.754128 0.305005 0.355291 -0.108337
C100  C     C_R   0.790647 0.850992 0.192960 -0.149622
C101  C     C_R   0.227459 0.292235 0.691512 -0.078259
C102  C     C_R   0.305006 0.754129 0.644709 -0.108346
C103  C     C_R   0.850991 0.790645 0.807037 -0.149646
C104  C     C_R   0.695235 0.247753 0.644255 -0.090317
C105  C     C_R   0.651277 0.288946 0.696692 -0.148919
C106  C     C_R   0.805746 0.748201 0.857897 -0.112193
C107  C     C_R   0.350726 0.709787 0.693654 -0.164519
C108  C     C_R   0.253668 0.326832 0.757497 -0.208258
C109  C     C_R   0.748201 0.805746 0.142103 -0.112190
C110  C     C_R   0.709787 0.350724 0.306344 -0.164536
C111  C     C_R   0.326833 0.253669 0.242504 -0.208256
C112  C     C_R   0.288948 0.651278 0.303308 -0.148922
H1    H     H_    0.219431 0.667088 0.403057 0.203285
H2    H     H_    0.327583 0.204614 0.354209 0.208230
H3    H     H_    0.785280 0.331465 0.401836 0.201934
H4    H     H_    0.795401 0.912356 0.183613 0.182187
H5    H     H_    0.204613 0.327583 0.645792 0.208231
H6    H     H_    0.331466 0.785282 0.598165 0.201936
H7    H     H_    0.912354 0.795400 0.816383 0.182191
H8    H     H_    0.667087 0.219426 0.596946 0.203290
H9    H     H_    0.589486 0.293457 0.689040 0.170404
H10   H     H_    0.832877 0.718585 0.905229 0.200484
H11   H     H_    0.411960 0.705182 0.683849 0.181929
H12   H     H_    0.254630 0.389152 0.759771 0.206145
H13   H     H_    0.718582 0.832876 0.094771 0.200483
H14   H     H_    0.705182 0.411959 0.316150 0.181941
H15   H     H_    0.389153 0.254632 0.240231 0.206141
H16   H     H_    0.293461 0.589487 0.310961 0.170400
N1    N     N_R   0.425360 0.368540 0.922560 -0.193140
N2    N     N_R   0.631460 0.425360 0.922560 -0.148230
N3    N     N_R   0.574640 0.631460 0.922560 -0.198979
N4    N     N_R   0.368540 0.574640 0.922560 -0.140982
N5    N     N_R   0.425360 0.631460 0.077440 -0.148235
N6    N     N_R   0.631460 0.574640 0.077440 -0.198991
N7    N     N_R   0.574640 0.368540 0.077440 -0.140978
N8    N     N_R   0.368540 0.425360 0.077440 -0.193142
N9    N     N_R   0.925360 0.868540 0.422560 -0.147823
N10   N     N_R   0.131460 0.925360 0.422560 -0.179585
N11   N     N_R   0.074640 0.131460 0.422560 -0.171927
N12   N     N_R   0.868540 0.074640 0.422560 -0.188198
N13   N     N_R   0.925360 0.131460 0.577440 -0.179583
N14   N     N_R   0.131460 0.074640 0.577440 -0.171928
N15   N     N_R   0.074640 0.868540 0.577440 -0.188200
N16   N     N_R   0.868540 0.925360 0.577440 -0.147827
N17   N     N_R   0.425340 0.631500 0.922560 -0.157518
N18   N     N_R   0.368500 0.425340 0.922560 -0.190182
N19   N     N_R   0.574660 0.368500 0.922560 -0.157740
N20   N     N_R   0.631500 0.574660 0.922560 -0.183216
N21   N     N_R   0.425340 0.368500 0.077440 -0.190189
N22   N     N_R   0.368500 0.574660 0.077440 -0.157745
N23   N     N_R   0.574660 0.631500 0.077440 -0.183227
N24   N     N_R   0.631500 0.425340 0.077440 -0.157509
N25   N     N_R   0.925340 0.131500 0.422560 -0.166959
N26   N     N_R   0.868500 0.925340 0.422560 -0.160430
N27   N     N_R   0.074660 0.868500 0.422560 -0.174410
N28   N     N_R   0.131500 0.074660 0.422560 -0.166235
N29   N     N_R   0.925340 0.868500 0.577440 -0.160425
N30   N     N_R   0.868500 0.074660 0.577440 -0.174413
N31   N     N_R   0.074660 0.131500 0.577440 -0.166236
N32   N     N_R   0.131500 0.925340 0.577440 -0.166961
Ni1   Ni    Ni4+2 0.500000 0.369720 0.000000 0.315565
Ni2   Ni    Ni4+2 0.630280 0.500000 0.000000 0.317698
Ni3   Ni    Ni4+2 0.500000 0.630280 0.000000 0.317694
Ni4   Ni    Ni4+2 0.369720 0.500000 0.000000 0.315560
Ni5   Ni    Ni4+2 1.000000 0.869720 0.500000 0.340680
Ni6   Ni    Ni4+2 0.130280 0.000000 0.500000 0.335456
Ni7   Ni    Ni4+2 1.000000 0.130280 0.500000 0.335456
Ni8   Ni    Ni4+2 0.869720 0.000000 0.500000 0.340671
F1    F     F_    0.423964 0.233010 0.907575 -0.593741
F2    F     F_    0.730514 0.465277 0.837591 -0.666295
F3    F     F_    0.574358 0.767195 0.916500 -0.549875
F4    F     F_    0.277780 0.528864 0.830845 -0.698321
F5    F     F_    0.465273 0.730518 0.162406 -0.666283
F6    F     F_    0.767195 0.574358 0.083503 -0.549863
F7    F     F_    0.528868 0.277776 0.169153 -0.698316
F8    F     F_    0.233010 0.423964 0.092425 -0.593741
F9    F     F_    0.969894 0.776340 0.332418 -0.672563
F10   F     F_    0.266937 0.927077 0.415465 -0.549036
F11   F     F_    0.071790 0.266238 0.403422 -0.557710
F12   F     F_    0.733006 0.075753 0.414607 -0.552035
F13   F     F_    0.927077 0.266936 0.584536 -0.549042
F14   F     F_    0.266238 0.071790 0.596579 -0.557710
F15   F     F_    0.075753 0.733006 0.585392 -0.552031
F16   F     F_    0.776334 0.969889 0.667579 -0.672562
C113  C     C_2   0.876629 0.167118 0.782157 0.437698
H17   H     H_    0.824365 0.132819 0.784597 0.109122
O1    O     O_2   0.938831 0.134294 0.785303 -0.586116
C114  C     C_2   0.653884 0.873499 0.628302 0.654848
H18   H     H_    0.633380 0.920872 0.662960 0.118080
O2    O     O_2   0.651860 0.880289 0.559131 -0.485232
C115  C     C_2   0.119161 0.821263 0.787094 0.489601
H19   H     H_    0.168611 0.859341 0.790758 0.080109
O3    O     O_2   0.054647 0.849009 0.791002 -0.576450
C116  C     C_2   0.146532 0.080348 0.776248 0.440618
H20   H     H_    0.106171 0.127940 0.780590 0.093919
O4    O     O_2   0.121548 0.016017 0.762892 -0.574927
C117  C     C_2   0.873511 0.653890 0.371693 0.654862
H21   H     H_    0.920876 0.633375 0.337032 0.118064
O5    O     O_2   0.880313 0.651883 0.440863 -0.485215
C118  C     C_2   0.821268 0.119156 0.212908 0.489583
H22   H     H_    0.859346 0.168606 0.209238 0.080087
O6    O     O_2   0.849013 0.054642 0.209011 -0.576444
C119  C     C_2   0.080350 0.146531 0.223753 0.440617
H23   H     H_    0.127942 0.106171 0.219410 0.093918
O7    O     O_2   0.016019 0.121546 0.237108 -0.574923
C120  C     C_2   0.167111 0.876629 0.217848 0.437694
H24   H     H_    0.132810 0.824365 0.215415 0.109118
O8    O     O_2   0.134288 0.938832 0.214697 -0.586108
C121  C     C_2   0.367023 0.855704 0.130146 0.688361
H25   H     H_    0.413437 0.876037 0.166458 0.110253
O9    O     O_2   0.374039 0.861570 0.061248 -0.493130
C122  C     C_2   0.099822 0.322695 0.095566 0.717981
H26   H     H_    0.090911 0.377505 0.123794 0.109713
O10   O     O_2   0.079794 0.316120 0.029248 -0.497149
C123  C     C_2   0.622135 0.155000 0.129040 0.662741
H27   H     H_    0.575706 0.134270 0.164926 0.107970
O11   O     O_2   0.613586 0.153266 0.060059 -0.487353
C124  C     C_2   0.676735 0.618616 0.282226 0.428117
H28   H     H_    0.638417 0.668033 0.284258 0.099507
O12   O     O_2   0.649003 0.554075 0.286018 -0.616540
C125  C     C_2   0.322696 0.099822 0.904435 0.717986
H29   H     H_    0.377505 0.090910 0.876206 0.109709
O13   O     O_2   0.316121 0.079796 0.970753 -0.497148
C126  C     C_2   0.155000 0.622126 0.870952 0.662732
H30   H     H_    0.134272 0.575698 0.835063 0.107976
O14   O     O_2   0.153261 0.613574 0.939933 -0.487356
C127  C     C_2   0.618609 0.676732 0.717785 0.428080
H31   H     H_    0.668025 0.638415 0.715723 0.099484
O15   O     O_2   0.554066 0.648996 0.714039 -0.616552
C128  C     C_2   0.855707 0.367037 0.869846 0.688374
H32   H     H_    0.876033 0.413450 0.833529 0.110256
O16   O     O_2   0.861581 0.374055 0.938743 -0.493122
C129  C     C_2   0.949303 0.291899 0.761310 0.714836
H33   H     H_    0.998422 0.273874 0.795398 0.052568
O17   O     O_2   0.957542 0.344202 0.715385 -0.449250
C130  C     C_2   0.717413 0.744284 0.608549 0.628641
H34   H     H_    0.681251 0.726140 0.561488 0.036809
O18   O     O_2   0.781916 0.716955 0.614958 -0.525137
C131  C     C_2   0.056381 0.691724 0.763426 0.795759
H35   H     H_    0.008851 0.700003 0.802353 -0.003405
O19   O     O_2   0.049670 0.644667 0.712327 -0.439989
C132  C     C_2   0.280963 0.024387 0.767689 0.748979
H36   H     H_    0.265989 0.969113 0.792585 0.014566
O20   O     O_2   0.338064 0.028873 0.727518 -0.452395
C133  C     C_2   0.744298 0.717425 0.391451 0.628621
H37   H     H_    0.726187 0.681283 0.438538 0.036875
O21   O     O_2   0.716934 0.781910 0.385012 -0.525118
C134  C     C_2   0.691725 0.056381 0.236571 0.795794
H38   H     H_    0.700003 0.008851 0.197644 -0.003422
O22   O     O_2   0.644668 0.049671 0.287670 -0.439986
C135  C     C_2   0.024387 0.280961 0.232312 0.748984
H39   H     H_    0.969114 0.265986 0.207415 0.014549
O23   O     O_2   0.028873 0.338063 0.272483 -0.452396
C136  C     C_2   0.291893 0.949303 0.238686 0.714820
H40   H     H_    0.273871 0.998419 0.204594 0.052564
O24   O     O_2   0.344194 0.957543 0.284612 -0.449237
C137  C     C_2   0.241175 0.787278 0.105616 0.626808
H41   H     H_    0.221045 0.824628 0.060122 0.036011
O25   O     O_2   0.217851 0.721021 0.108532 -0.533354
C138  C     C_2   0.154894 0.188155 0.088081 0.691928
H42   H     H_    0.108272 0.160116 0.057661 0.015703
O26   O     O_2   0.220230 0.162745 0.082601 -0.541591
C139  C     C_2   0.750552 0.219125 0.106007 0.607625
H43   H     H_    0.766182 0.183984 0.057626 0.046262
O27   O     O_2   0.779639 0.282737 0.112905 -0.539856
C140  C     C_2   0.807076 0.556067 0.262227 0.805017
H44   H     H_    0.798646 0.508673 0.301603 -0.000950
O28   O     O_2   0.854664 0.549361 0.211654 -0.444931
C141  C     C_2   0.188155 0.154892 0.911919 0.691928
H45   H     H_    0.160117 0.108270 0.942339 0.015704
O29   O     O_2   0.162744 0.220228 0.917399 -0.541593
C142  C     C_2   0.219129 0.750540 0.893990 0.607568
H46   H     H_    0.184000 0.766149 0.942387 0.046313
O30   O     O_2   0.282730 0.779650 0.887076 -0.539858
C143  C     C_2   0.556064 0.807076 0.737777 0.805110
H47   H     H_    0.508670 0.798648 0.698401 -0.000988
O31   O     O_2   0.549362 0.854666 0.788349 -0.444940
C144  C     C_2   0.787281 0.241191 0.894387 0.626807
H48   H     H_    0.824630 0.221071 0.939886 0.036028
O32   O     O_2   0.721027 0.217859 0.891470 -0.533356
F17   F     F_    0.449082 0.742719 0.846692 -0.601441
F18   F     F_    0.231872 0.421921 0.914598 -0.559820
F19   F     F_    0.549581 0.257532 0.845860 -0.589040
F20   F     F_    0.768331 0.581315 0.910953 -0.583631
F21   F     F_    0.421921 0.231872 0.085402 -0.559817
F22   F     F_    0.257531 0.549582 0.154139 -0.589037
F23   F     F_    0.581314 0.768331 0.089049 -0.583627
F24   F     F_    0.742719 0.449083 0.153308 -0.601443
F25   F     F_    0.924513 0.266540 0.396469 -0.581669
F26   F     F_    0.756748 0.949331 0.347056 -0.598524
F27   F     F_    0.081314 0.731631 0.411401 -0.584184
F28   F     F_    0.262466 0.070897 0.381804 -0.589505
F29   F     F_    0.949331 0.756747 0.652942 -0.598528
F30   F     F_    0.731631 0.081314 0.588600 -0.584191
F31   F     F_    0.070897 0.262466 0.618197 -0.589511
F32   F     F_    0.266540 0.924513 0.603531 -0.581669

loop_
_geom_bond_atom_site_label_1
_geom_bond_atom_site_label_2
_ccdc_geom_bond_type
C116  O4    D    
C42   F26   S    
C28   C69   S    
C7    C55   A    
C8    C56   A    
C66   C79   A    
C119  O7    D    
C21   C76   S    
C3    N3    A    
C86   C110  A    
C1    N1    A    
C18   C130  S    
C98   H2    S    
C117  O5    D    
C136  O24   D    
C43   C58   A    
C37   C56   A    
C36   N20   A    
C143  H47   S    
C142  H46   S    
C132  O20   D    
N32   Ni6   S    
C100  C109  A    
C133  H37   S    
C26   C71   S    
C108  H12   S    
N5    Ni3   S    
C104  C105  A    
C14   F14   S    
C134  O22   D    
C32   C128  S    
C115  H19   S    
C139  H43   S    
C37   F21   S    
C97   C112  A    
C120  H24   S    
C48   C63   A    
C6    F6    S    
C39   F23   S    
C99   C110  A    
C40   F24   S    
C20   C132  S    
C123  H27   S    
C66   C82   A    
C29   C68   S    
C127  H31   S    
N28   Ni6   S    
C40   C55   A    
C45   N29   A    
C128  O16   D    
C21   C28   S    
C22   C27   S    
C96   C104  A    
C11   F11   S    
C9    F9    S    
N8    Ni4   S    
C68   C77   A    
C139  O27   D    
C16   N16   A    
C21   C117  S    
C72   C73   A    
C30   C126  S    
C16   F16   S    
N20   Ni2   S    
C74   C90   A    
C55   C86   S    
C29   C141  S    
C22   C134  S    
C34   N18   A    
C38   C53   A    
N27   Ni5   S    
N6    N23   A    
N31   Ni7   S    
C58   C89   S    
C122  H26   S    
C94   C102  A    
C118  O6    D    
C62   C93   S    
C23   C119  S    
C17   C32   S    
C26   C122  S    
C18   C31   S    
C10   N10   A    
C19   C30   S    
C50   C81   S    
C19   C115  S    
C32   C65   S    
C14   N14   A    
C67   C83   A    
C57   C92   S    
C11   C59   A    
C47   C62   A    
C61   C96   S    
N15   N32   A    
C4    N4    A    
C47   N31   A    
C33   C52   A    
C5    N5    A    
C48   N32   A    
C63   C94   S    
N4    N17   A    
C49   C84   S    
C10   C58   A    
C78   C94   A    
C113  O1    D    
C39   C54   A    
C44   C59   A    
N7    N24   A    
C46   N30   A    
C39   N23   A    
C130  H34   S    
C40   N24   A    
C69   C76   A    
C114  O2    D    
C137  H41   S    
C18   C114  S    
C2    C50   A    
C2    N2    A    
C43   F27   S    
C47   F31   S    
C129  H33   S    
C30   C67   S    
C48   F32   S    
C75   C91   A    
C25   C137  S    
N2    Ni2   S    
N7    Ni1   S    
C95   C103  A    
C41   N25   A    
C81   C105  A    
C44   N28   A    
C30   C142  S    
N29   Ni5   S    
C34   F18   S    
N17   Ni3   S    
N18   Ni4   S    
C17   C80   S    
C19   C78   S    
C125  H29   S    
C19   C131  S    
N14   Ni6   S    
C124  O12   D    
C106  H10   S    
C121  H25   S    
N1    Ni1   S    
C102  C107  A    
C131  O19   D    
C27   C70   S    
C140  O28   D    
C110  H14   S    
C15   N15   A    
C127  O15   D    
C13   F13   S    
C23   C74   S    
C69   C85   A    
C38   F22   S    
C34   C49   A    
C4    F4    S    
C12   F12   S    
N2    N19   A    
C5    F5    S    
N5    N22   A    
C41   C60   A    
C138  H42   S    
C8    F8    S    
N22   Ni4   S    
C45   C64   A    
N10   Ni6   S    
C24   C120  S    
C35   F19   S    
C82   C106  A    
C117  H21   S    
C26   C138  S    
C142  O30   D    
C70   C75   A    
C144  H48   S    
C46   F30   S    
C91   C99   A    
N16   N29   A    
N10   N27   A    
C8    N8    A    
C131  H35   S    
C100  H4    S    
C107  H11   S    
N14   N31   A    
C31   C143  S    
C126  H30   S    
N9    Ni5   S    
N8    N21   A    
N30   Ni8   S    
C135  H39   S    
C29   C125  S    
C20   C77   S    
C22   C118  S    
C6    C54   A    
C85   C109  A    
C99   H3    S    
C120  O8    D    
C24   C73   S    
C87   C111  A    
C23   C26   S    
C11   N11   A    
N15   Ni5   S    
C23   C135  S    
C9    N9    A    
C17   C113  S    
C18   C79   S    
C15   F15   S    
C12   N12   A    
C13   N13   A    
N12   N25   A    
C101  C108  A    
C116  H20   S    
C141  H45   S    
N25   Ni7   S    
C27   C123  S    
N26   Ni8   S    
C43   N27   A    
C42   C57   A    
C38   N22   A    
N13   Ni7   S    
C46   C61   A    
C68   C84   A    
N19   Ni1   S    
C3    C51   A    
C52   C83   S    
N4    Ni4   S    
C79   C95   A    
C136  H40   S    
C65   C81   A    
N3    Ni3   S    
C27   C139  S    
C132  H36   S    
N1    N18   A    
C2    F2    S    
C71   C87   A    
C4    C52   A    
C133  O21   D    
N21   Ni1   S    
C93   C101  A    
C32   C144  S    
C134  H38   S    
C42   N26   A    
C37   N21   A    
C71   C74   A    
C17   C129  S    
C101  H5    S    
C73   C89   A    
C113  H17   S    
C77   C93   A    
C84   C108  A    
C130  O18   D    
N9    N26   A    
C128  H32   S    
C112  H16   S    
C88   C112  A    
N13   N30   A    
C6    N6    A    
N24   Ni2   S    
C104  H8    S    
C14   C62   A    
N12   Ni8   S    
C31   C66   S    
C119  H23   S    
C31   C127  S    
C115  O3    D    
N16   Ni8   S    
C5    C53   A    
C143  O31   D    
C123  O11   D    
C135  O23   D    
C28   C140  S    
C118  H22   S    
C7    F7    S    
C80   C96   A    
C102  H6    S    
C65   C80   A    
C67   C78   A    
C22   C75   S    
C20   C116  S    
C72   C88   A    
C20   C29   S    
C33   F17   S    
C10   F10   S    
C24   C25   S    
C36   F20   S    
C138  O26   D    
C56   C87   S    
C21   C133  S    
N6    Ni2   S    
C89   C97   A    
C114  H18   S    
C137  O25   D    
C59   C90   S    
C24   C136  S    
C7    N7    A    
N11   Ni7   S    
C35   C50   A    
C105  H9    S    
N3    N20   A    
C25   C72   S    
C35   N19   A    
C25   C121  S    
C129  O17   D    
C51   C82   S    
C36   C51   A    
C33   N17   A    
C76   C92   A    
C109  H13   S    
C53   C88   S    
N23   Ni3   S    
C111  H15   S    
C144  O32   D    
C97   H1    S    
C70   C86   A    
C92   C100  A    
C60   C91   S    
C28   C124  S    
C98   C111  A    
C44   F28   S    
C45   F29   S    
C103  H7    S    
C64   C95   S    
C122  O10   D    
C126  O14   D    
C54   C85   S    
C41   F25   S    
C141  O29   D    
C125  O13   D    
C3    F3    S    
C124  H28   S    
N11   N28   A    
C1    F1    S    
C121  O9    D    
C83   C107  A    
C103  C106  A    
C9    C57   A    
C140  H44   S    
C12   C60   A    
C13   C61   A    
C15   C63   A    
C16   C64   A    
C1    C49   A    
C90   C98   A    
