data_mof_unit_59881.cif
_audit_creation_date              2013-03-05T16:47:54-0500
_audit_creation_method            fapswitch 2.2
_symmetry_space_group_name_H-M    P1
_symmetry_Int_Tables_number       1
_space_group_crystal_system       triclinic
_cell_length_a                    8.098272
_cell_length_b                    8.933406
_cell_length_c                    16.796303
_cell_angle_alpha                 89.993592
_cell_angle_beta                  83.409482
_cell_angle_gamma                 89.978889
_cell_volume                      1207.10114137

loop_
_atom_site_label
_atom_site_type_symbol
_atom_site_description
_atom_site_fract_x
_atom_site_fract_y
_atom_site_fract_z
_atom_type_partial_charge
O1    O     O_R   0.363150 0.714660 0.500000 -0.612089
O2    O     O_R   0.636850 0.285340 0.500000 -0.609189
O3    O     O_R   0.636850 0.714660 0.500000 -0.613149
O4    O     O_R   0.363150 0.285340 0.500000 -0.618787
H1    H     H_    0.181230 0.380675 0.902976 0.143283
H2    H     H_    0.713725 0.560196 0.077388 0.141420
C1    C     C_R   0.500003 0.782055 0.499912 0.942228
C2    C     C_R   0.500029 0.217947 0.499931 0.933912
O5    O     O_R   0.346950 0.500000 0.615800 -0.617831
O6    O     O_R   0.653050 0.500000 0.384200 -0.612965
O7    O     O_R   0.620700 0.500000 0.615800 -0.619699
O8    O     O_R   0.379300 0.500000 0.384200 -0.609715
C3    C     C_R   0.473927 0.497576 0.654062 0.871352
C4    C     C_R   0.525476 0.497373 0.346537 0.862667
Zn1   Zn    Zn3+2 0.317220 0.500000 0.500010 0.986433
Zn2   Zn    Zn3+2 0.682780 0.500000 0.499990 0.992289
H3    H     H_    0.423843 0.169389 0.149631 0.152456
H4    H     H_    0.683220 0.539732 0.895316 0.135320
N1    N     N_1   0.926360 0.500000 0.499990 -0.031406
N2    N     N_1   0.073640 0.500000 0.500010 -0.032283
C5    C     C_R   0.451274 0.488198 0.741568 -0.057655
C6    C     C_R   0.547012 0.453328 0.263344 -0.025338
C7    C     C_R   0.586941 0.526591 0.782401 -0.222586
C8    C     C_R   0.475642 0.317103 0.243867 -0.207665
C9    C     C_R   0.576825 0.511090 0.864679 -0.119860
C10   C     C_R   0.488418 0.269717 0.164942 -0.050222
C11   C     C_R   0.431369 0.455872 0.907165 0.140650
C12   C     C_R   0.568946 0.360825 0.105370 0.113137
C13   C     C_R   0.293192 0.422037 0.868305 -0.060989
C14   C     C_R   0.651744 0.491194 0.124871 -0.120531
C15   C     C_R   0.300708 0.436572 0.785270 0.164995
C16   C     C_R   0.642649 0.538449 0.204425 0.167652
C17   C     C_2   0.424468 0.433133 0.993340 -0.159031
C18   C     C_2   0.535458 0.339687 0.022850 -0.165694
C19   C     C_1   0.500004 0.934826 0.499853 -0.191279
C20   C     C_1   0.500044 0.065187 0.499861 -0.190769
H5    H     H_    0.702068 0.567474 0.750568 0.166395
H6    H     H_    0.406654 0.249215 0.289753 0.147724
C21   C     C_3   0.725717 0.682146 0.224677 -0.885205
H7    H     H_    0.631586 0.760970 0.254038 0.231718
H8    H     H_    0.820440 0.658723 0.265858 0.256231
H9    H     H_    0.789142 0.737374 0.170299 0.254651
C22   C     C_3   0.149408 0.391376 0.746121 -0.844376
H10   H     H_    0.182670 0.301934 0.701207 0.251438
H11   H     H_    0.048799 0.346743 0.790303 0.231376
H12   H     H_    0.097883 0.489956 0.717164 0.251279
C23   C     C_2   0.636042 0.225952 0.973496 0.928166
O9    O     O_2   0.763812 0.177202 0.996249 -0.616929
O10   O     O_R   0.582847 0.170892 0.902763 -0.787602
H13   H     H_    0.661932 0.093873 0.875315 0.346971
C24   C     C_2   0.304651 0.529109 0.045122 0.927625
O11   O     O_2   0.260534 0.649259 0.019682 -0.615663
O12   O     O_R   0.237578 0.480506 0.121145 -0.790130
H14   H     H_    0.156623 0.555186 0.149400 0.347270

loop_
_geom_bond_atom_site_label_1
_geom_bond_atom_site_label_2
_geom_bond_distance
_ccdc_geom_bond_type
C23   O9    1.223421 D    
C8    H6    1.084088 S    
C22   H10   1.110594 S    
O1    Zn1   1.953516 S    
C11   C13   1.391928 A    
O2    Zn2   1.953516 S    
O7    Zn2   1.952433 S    
C15   C22   1.510645 S    
C10   C12   1.392593 A    
C19   C20   1.164561 T    
O8    Zn1   1.952433 S    
O4    C2    1.261118 A    
C4    C6    1.442896 S    
O4    Zn1   1.953247 S    
C12   C14   1.401542 A    
C17   C18   1.360899 D    
O5    Zn1   1.986924 S    
C3    C5    1.462530 S    
C13   C15   1.395062 A    
O6    Zn2   1.986924 S    
O12   H14   1.014127 S    
C11   C17   1.456300 S    
C14   C16   1.395203 A    
C22   H11   1.111255 S    
C5    C15   1.425883 A    
H4    C9    1.083800 S    
C6    C16   1.407747 A    
Zn2   N1    1.972577 S    
H3    C10   1.083593 S    
C23   O10   1.398845 S    
H2    C14   1.084534 S    
C8    C10   1.384144 A    
C21   H9    1.110792 S    
O3    C1    1.261167 A    
C7    C9    1.381914 A    
C5    C7    1.402996 A    
O6    C4    1.272053 A    
Zn1   N2    1.972577 S    
C22   H12   1.110146 S    
C6    C8    1.402162 A    
C17   C24   1.496301 S    
C12   C18   1.454892 S    
C24   O11   1.223500 D    
H1    C13   1.084785 S    
O7    C3    1.284894 A    
C21   H8    1.110093 S    
O10   H13   1.013949 S    
C2    C20   1.364669 S    
C16   C21   1.506449 S    
C21   H7    1.110647 S    
O5    C3    1.273793 A    
C18   C23   1.492512 S    
O1    C1    1.261294 A    
C7    H5    1.083651 S    
C1    C19   1.364768 S    
O2    C2    1.261326 A    
O3    Zn2   1.953246 S    
N1    N2    1.192752 T    
O8    C4    1.276769 A    
C24   O12   1.398171 S    
C9    C11   1.395526 A    
