data_mof_unit_14569.cif
_audit_creation_date              2012-12-10T20:36:38-0500
_audit_creation_method            fapswitch 2.2
_symmetry_space_group_name_H-M    P1
_symmetry_Int_Tables_number       1
_space_group_crystal_system       triclinic
_cell_length_a                    10.496249
_cell_length_b                    10.662635
_cell_length_c                    9.880366
_cell_angle_alpha                 89.80056
_cell_angle_beta                  90.019846
_cell_angle_gamma                 90.000297
_cell_volume                      1105.78079529

loop_
_atom_site_label
_atom_site_type_symbol
_atom_type_description
_atom_site_fract_x
_atom_site_fract_y
_atom_site_fract_z
_atom_type_partial_charge
C1    C     C_R   0.506854 0.259736 0.499794 0.890930
C2    C     C_3   0.958640 0.608287 0.453596 0.612527
C3    C     C_3   0.040502 0.517081 0.371329 -0.216925
C4    C     C_3   0.122550 0.501254 0.499188 -0.043817
C5    C     C_R   0.538563 0.062931 0.621210 0.069048
C6    C     C_R   0.534319 0.128288 0.498869 -0.235395
C7    C     C_R   0.561969 0.063994 0.377101 0.503866
C8    C     C_R   0.558297 0.933605 0.378448 -0.304402
C9    C     C_R   0.533148 0.870426 0.499955 -0.168117
C10   C     C_R   0.538454 0.934989 0.621686 0.137110
C11   C     C_3   0.454129 0.927021 0.743102 -0.458323
C12   C     C_R   0.257422 0.500729 0.499800 0.876136
C13   C     C_3   0.453989 0.068989 0.742695 -0.467375
C14   C     C_R   0.391971 0.471390 0.071186 0.109976
C15   C     C_R   0.600334 0.548722 0.072077 0.555687
C16   C     C_R   0.601573 0.543684 0.927157 -0.272953
C17   C     C_R   0.391381 0.472948 0.929148 0.208265
C18   C     C_3   0.314934 0.355362 0.923742 -0.499806
C19   C     C_3   0.316872 0.353220 0.077671 -0.471123
C20   C     C_R   0.506102 0.739891 0.499807 0.915551
C21   C     C_R   0.742615 0.499486 0.500298 0.905001
C22   C     C_3   0.043372 0.389731 0.548388 -0.157798
C23   C     C_3   0.958487 0.405780 0.421464 -0.230617
C24   C     C_3   0.877609 0.498971 0.501497 -0.041353
C25   C     C_3   0.959830 0.482859 0.628642 -0.210832
C26   C     C_3   0.042023 0.594638 0.580283 -0.276899
H1    H     H_    0.919936 0.328999 0.357965 0.142978
H2    H     H_    0.504136 0.109157 0.831673 0.210286
H3    H     H_    0.221332 0.367842 0.123457 0.196640
H4    H     H_    0.083678 0.300304 0.587256 0.131854
H5    H     H_    0.922828 0.468059 0.732756 0.159220
H6    H     H_    0.080826 0.671316 0.643895 0.137681
H7    H     H_    0.077121 0.531848 0.267070 0.145091
H8    H     H_    0.564867 0.883708 0.283430 0.186788
N1    N     N_R   0.499140 0.499140 0.142800 -0.143265
N2    N     N_R   0.499140 0.499180 0.857150 -0.124135
O1    O     O_R   0.500020 0.316790 0.614690 -0.622035
O2    O     O_R   0.500000 0.316760 0.385350 -0.566949
O3    O     O_R   0.313960 0.499990 0.614650 -0.617940
O4    O     O_R   0.313940 0.499950 0.385310 -0.632944
O5    O     O_R   0.500000 0.683240 0.614650 -0.621113
O6    O     O_R   0.499980 0.683210 0.385310 -0.609267
O7    O     O_R   0.686060 0.500050 0.614690 -0.645403
O8    O     O_R   0.686040 0.500010 0.385350 -0.546434
Zn1   Zn    Zn3+2 0.500010 0.500020 0.653130 0.935962
Zn2   Zn    Zn3+2 0.499990 0.499980 0.346870 1.004173
H9    H     H_    0.504046 0.885782 0.832013 0.201466
H10   H     H_    0.358853 0.109678 0.719479 0.193791
O9    O     O_3   0.702448 0.597448 0.143420 -0.558212
C27   C     C_3   0.734202 0.718208 0.094657 -0.320105
H11   H     H_    0.785598 0.769270 0.175312 0.230104
H12   H     H_    0.799446 0.711288 0.006554 0.149528
H13   H     H_    0.648760 0.775493 0.068324 0.128688
H14   H     H_    0.684457 0.574399 0.871311 0.169179
H15   H     H_    0.218395 0.371477 0.880721 0.200572
H16   H     H_    0.368466 0.277160 0.877842 0.212101
H17   H     H_    0.372272 0.273648 0.120734 0.247871
O10   O     O_3   0.902459 0.720413 0.406670 -0.609799
C28   C     C_3   0.999030 0.804964 0.368168 -0.379027
H18   H     H_    0.056380 0.767368 0.282822 0.166288
H19   H     H_    0.061638 0.829037 0.455122 0.162515
H20   H     H_    0.953633 0.893132 0.332751 0.185808
O11   O     O_3   0.572180 0.126344 0.254578 -0.595112
C29   C     C_3   0.700378 0.122707 0.212351 -0.312522
H21   H     H_    0.730071 0.025603 0.186173 0.145023
H22   H     H_    0.765047 0.162538 0.290573 0.147648
H23   H     H_    0.710208 0.181121 0.119790 0.190418
H24   H     H_    0.359249 0.885660 0.720299 0.194225

loop_
_geom_bond_atom_site_label_1
_geom_bond_atom_site_label_2
_ccdc_geom_bond_type
C25   H5    S    
C13   H10   S    
C27   H12   S    
C23   C24   S    
C2    O10   S    
C13   H2    S    
C12   O4    A    
C6    C7    A    
C17   N2    A    
C1    O1    A    
C4    C12   S    
C21   O8    A    
C4    C22   S    
C9    C10   A    
C9    C20   S    
C20   O6    A    
C11   H9    S    
C18   H16   S    
O3    Zn1   S    
C29   H21   S    
C12   O3    A    
C17   C18   S    
O10   C28   S    
C24   C25   S    
C7    C8    A    
C2    C26   S    
C8    H8    S    
C19   H17   S    
C26   H6    S    
O7    Zn1   S    
C14   C17   A    
C7    O11   S    
C18   H15   S    
N2    Zn1   S    
C5    C10   A    
C1    O2    A    
C15   N1    A    
O8    Zn2   S    
C20   O5    A    
C2    C3    S    
C23   H1    S    
C15   O9    S    
C2    C24   S    
C5    C6    A    
C16   H14   S    
C4    C26   S    
O2    Zn2   S    
C11   C13   S    
C28   H19   S    
C10   C11   S    
O4    Zn2   S    
O1    Zn1   S    
C15   C16   A    
C27   H13   S    
C29   H23   S    
C28   H18   S    
C11   H24   S    
C18   C19   S    
O6    Zn2   S    
C21   C24   S    
C1    C6    S    
O9    C27   S    
C3    C23   S    
C3    H7    S    
C22   C23   S    
C28   H20   S    
O5    Zn1   S    
C22   H4    S    
C27   H11   S    
C25   C26   S    
C21   O7    A    
N1    Zn2   S    
C5    C13   S    
C14   C19   S    
C14   N1    A    
C16   N2    A    
C3    C4    S    
O11   C29   S    
C29   H22   S    
C8    C9    A    
C22   C25   S    
C19   H3    S    
