data_mof_unit_38881.cif
_audit_creation_date              2012-12-11T14:44:23-0500
_audit_creation_method            fapswitch 2.2
_symmetry_space_group_name_H-M    P1
_symmetry_Int_Tables_number       1
_space_group_crystal_system       triclinic
_cell_length_a                    24.964132
_cell_length_b                    16.777901
_cell_length_c                    15.641169
_cell_angle_alpha                 89.816637
_cell_angle_beta                  50.121958
_cell_angle_gamma                 89.920505
_cell_volume                      5027.46315759

loop_
_atom_site_label
_atom_site_type_symbol
_atom_type_description
_atom_site_fract_x
_atom_site_fract_y
_atom_site_fract_z
_atom_type_partial_charge
C1    C     C_R   0.342064 0.132171 0.782479 -0.159178
C2    C     C_3   0.777896 0.821801 0.578522 -0.241182
C3    C     C_1   0.527772 0.847004 0.190360 0.002127
C4    C     C_1   0.044708 0.619895 0.154429 -0.007919
C5    C     C_1   0.971917 0.346401 0.810209 0.002717
C6    C     C_1   0.954995 0.587418 0.850846 0.004936
C7    C     C_1   0.044604 0.401448 0.150400 0.008659
C8    C     C_3   0.880640 0.967622 0.420259 -0.926791
C9    C     C_3   0.156726 0.131660 0.594368 -0.941939
C10   C     C_3   0.208349 0.950513 0.357221 -0.911018
C11   C     C_3   0.738361 0.141861 0.650313 -0.936761
C12   C     C_3   0.394930 0.464540 0.401376 -0.925667
C13   C     C_3   0.696199 0.306460 0.605182 -0.211642
C14   C     C_3   0.663342 0.617204 0.586253 -0.950499
C15   C     C_3   0.717501 0.448604 0.344728 -0.911617
C16   C     C_3   0.244315 0.641040 0.642474 -0.926997
C17   C     C_3   0.252430 0.783024 0.394272 -0.212693
C18   C     C_3   0.770332 0.758113 0.426963 -0.234889
C19   C     C_3   0.285332 0.326536 0.569479 -0.243879
C20   C     C_3   0.195022 0.805910 0.609802 -0.210391
C21   C     C_3   0.756119 0.278586 0.389427 -0.212679
C22   C     C_2   0.696633 0.146283 0.013250 -0.191538
C23   C     C_2   0.304279 0.842842 0.979365 -0.183833
C24   C     C_2   0.340912 0.238421 0.895510 -0.195785
C25   C     C_R   0.647710 0.853109 0.244572 -0.147783
C26   C     C_2   0.643149 0.737472 0.145918 -0.195262
C27   C     C_2   0.157903 0.740982 0.106890 -0.196280
C28   C     C_2   0.857237 0.236556 0.853425 -0.195177
C29   C     C_2   0.803578 0.646224 0.986270 -0.193848
C30   C     C_2   0.195149 0.341623 0.022054 -0.184283
C31   C     C_2   0.765591 0.139763 0.953639 -0.116797
C32   C     C_2   0.235725 0.851566 0.037241 -0.123908
C33   C     C_2   0.308700 0.291718 0.878408 -0.127308
C34   C     C_2   0.689628 0.693006 0.140773 -0.118026
C35   C     C_2   0.190234 0.794070 0.123757 -0.124656
C36   C     C_R   0.666182 0.110719 0.197582 -0.149349
C37   C     C_2   0.810941 0.192116 0.858236 -0.117409
C38   C     C_2   0.734570 0.640536 0.045823 -0.115179
C39   C     C_2   0.263765 0.349502 0.964174 -0.125834
C40   C     C_R   0.590092 0.148753 0.589572 -0.147981
C41   C     C_R   0.382571 0.896088 0.410609 -0.135128
C42   C     C_R   0.412205 0.148207 0.406565 -0.146654
C43   C     C_R   0.612505 0.886961 0.593138 -0.136451
C44   C     C_R   0.088515 0.648401 0.591948 -0.141498
C45   C     C_R   0.885512 0.391037 0.408062 -0.144225
C46   C     C_R   0.910476 0.648467 0.409055 -0.155609
C47   C     C_R   0.335090 0.883955 0.797569 -0.142835
C48   C     C_R   0.116716 0.395660 0.590452 -0.125061
C49   C     C_R   0.665149 0.145612 0.404146 -0.128037
C50   C     C_R   0.310464 0.893257 0.595387 -0.118231
C51   C     C_R   0.335593 0.146472 0.592083 -0.130584
C52   C     C_R   0.688142 0.889821 0.407442 -0.150255
C53   C     C_R   0.167081 0.644163 0.406392 -0.136277
C54   C     C_R   0.810944 0.392665 0.593529 -0.135389
C55   C     C_R   0.837971 0.647914 0.594159 -0.122373
C56   C     C_R   0.189638 0.393945 0.405741 -0.132888
C57   C     C_R   0.578738 0.105063 0.194709 0.042318
C58   C     C_R   0.833811 0.610375 0.802414 -0.153565
C59   C     C_R   0.422031 0.889786 0.802510 0.053115
C60   C     C_R   0.428994 0.126653 0.786967 0.050934
C61   C     C_R   0.561912 0.858072 0.236391 0.066160
C62   C     C_R   0.070651 0.627784 0.213845 0.056947
C63   C     C_R   0.938160 0.357681 0.763509 0.068994
C64   C     C_R   0.921383 0.604966 0.805031 0.039005
C65   C     C_R   0.077720 0.389505 0.198068 0.052211
C66   C     C_R   0.368129 0.166296 0.828923 0.094310
C67   C     C_R   0.617344 0.811986 0.208894 0.085616
C68   C     C_R   0.648318 0.125488 0.131850 0.090697
C69   C     C_R   0.164756 0.383734 0.202909 -0.144893
C70   C     C_R   0.353093 0.866826 0.862537 0.084734
C71   C     C_R   0.851762 0.625166 0.867941 0.093905
C72   C     C_R   0.146580 0.366361 0.138313 0.084640
C73   C     C_R   0.130873 0.668426 0.173270 0.092635
C74   C     C_R   0.882945 0.311408 0.790610 0.086167
C75   C     C_R   0.641871 0.190356 0.495174 0.047801
C76   C     C_R   0.316302 0.878155 0.504317 0.041829
C77   C     C_R   0.361246 0.191281 0.498981 0.048343
C78   C     C_R   0.678589 0.867691 0.500746 0.058662
C79   C     C_R   0.141748 0.689448 0.498272 0.048923
C80   C     C_R   0.157195 0.633756 0.219212 -0.155202
C81   C     C_R   0.818871 0.374000 0.501099 0.053131
C82   C     C_R   0.861785 0.692621 0.502111 0.048908
C83   C     C_R   0.183183 0.378202 0.497605 0.044798
C84   C     C_3   0.340302 0.293750 0.392743 -0.216409
C85   C     C_3   0.710608 0.787304 0.605890 -0.213379
C86   C     C_3   0.664364 0.331410 0.549975 -0.235906
C87   C     C_3   0.286322 0.758161 0.445403 -0.221688
C88   C     C_3   0.837526 0.792913 0.399071 -0.216511
C89   C     C_3   0.215222 0.297371 0.602132 -0.213452
C90   C     C_3   0.160399 0.830536 0.558930 -0.240364
C91   C     C_R   0.852534 0.352768 0.754982 -0.148378
C92   C     C_3   0.787302 0.253515 0.444861 -0.226008
C93   C     C_3   0.795285 0.864298 0.475563 0.260864
C94   C     C_3   0.251772 0.223839 0.529122 0.267247
C95   C     C_3   0.231457 0.863317 0.455088 0.254271
C96   C     C_3   0.715862 0.225339 0.548142 0.262209
C97   C     C_3   0.303031 0.368177 0.465730 0.260757
C98   C     C_3   0.752184 0.716565 0.529454 0.271489
C99   C     C_3   0.737179 0.360359 0.446214 0.253958
C100  C     C_3   0.216588 0.726243 0.548719 0.260884
C101  C     C_3   0.729507 0.830251 0.502441 0.061786
C102  C     C_3   0.270295 0.264392 0.425919 -0.227238
C103  C     C_3   0.320872 0.251452 0.497142 0.069475
C104  C     C_3   0.264985 0.839136 0.505123 0.062086
C105  C     C_3   0.684241 0.248909 0.494191 0.068341
C106  C     C_3   0.234408 0.339449 0.497921 0.061759
C107  C     C_3   0.818603 0.749604 0.502572 0.068985
C108  C     C_3   0.767943 0.335785 0.500553 0.060898
C109  C     C_3   0.182403 0.749522 0.499006 0.068791
C110  C     C_1   0.545484 0.087067 0.148519 0.000491
C111  C     C_1   0.454902 0.902182 0.850430 0.008018
C112  C     C_1   0.455831 0.118641 0.845094 -0.001417
H1    H     H_    0.290563 0.140922 0.809140 0.102244
H2    H     H_    0.399296 0.902619 0.328110 0.128938
H3    H     H_    0.439543 0.163868 0.320726 0.114548
H4    H     H_    0.592017 0.886426 0.678252 0.113745
H5    H     H_    0.060932 0.665162 0.677428 0.123133
H6    H     H_    0.905601 0.390662 0.323121 0.125353
H7    H     H_    0.931709 0.662758 0.325828 0.119793
H8    H     H_    0.099558 0.402972 0.673053 0.116844
H9    H     H_    0.708130 0.158368 0.317668 0.097527
H10   H     H_    0.263678 0.892742 0.681938 0.088968
H11   H     H_    0.289449 0.159169 0.676036 0.100876
H12   H     H_    0.693840 0.837462 0.233258 0.103554
H13   H     H_    0.736523 0.890740 0.322289 0.100938
H14   H     H_    0.213969 0.654674 0.322234 0.090463
H15   H     H_    0.763145 0.393791 0.679186 0.091187
H16   H     H_    0.795439 0.662138 0.680246 0.106697
H17   H     H_    0.236854 0.393621 0.319501 0.098687
H18   H     H_    0.392191 0.292973 0.308099 0.127284
H19   H     H_    0.658243 0.784012 0.689653 0.130195
H20   H     H_    0.614089 0.362557 0.590213 0.135224
H21   H     H_    0.337723 0.728536 0.401072 0.137670
H22   H     H_    0.890151 0.796179 0.315713 0.128852
H23   H     H_    0.718206 0.108993 0.170786 0.093766
H24   H     H_    0.163649 0.297892 0.687242 0.134468
H25   H     H_    0.108822 0.859416 0.602618 0.134133
H26   H     H_    0.837422 0.221752 0.404163 0.134849
H27   H     H_    0.262529 0.238631 0.369242 0.133774
H28   H     H_    0.783255 0.847581 0.637969 0.136575
H29   H     H_    0.672710 0.317187 0.693010 0.124153
H30   H     H_    0.274937 0.774821 0.306478 0.123049
H31   H     H_    0.765371 0.731895 0.367217 0.130346
H32   H     H_    0.293657 0.351434 0.625832 0.133625
H33   H     H_    0.172595 0.814718 0.697455 0.124199
H34   H     H_    0.283797 0.882195 0.821426 0.096404
H35   H     H_    0.779658 0.268413 0.301468 0.127205
H36   H     H_    0.215096 0.885380 0.004797 0.132229
H37   H     H_    0.787301 0.110311 0.987246 0.129100
H38   H     H_    0.704252 0.706826 0.191188 0.129905
H39   H     H_    0.304175 0.282975 0.814385 0.136187
H40   H     H_    0.796576 0.206108 0.807415 0.135091
H41   H     H_    0.194675 0.785051 0.187895 0.136058
H42   H     H_    0.284763 0.383047 0.996012 0.132538
H43   H     H_    0.712610 0.611541 0.012522 0.130020
H44   H     H_    0.324041 0.808034 0.012692 0.134160
H45   H     H_    0.781779 0.608555 0.829234 0.096028
H46   H     H_    0.675672 0.176383 0.978639 0.135071
H47   H     H_    0.629650 0.723492 0.093935 0.137330
H48   H     H_    0.344942 0.246812 0.960110 0.137986
H49   H     H_    0.870455 0.222407 0.905831 0.137047
H50   H     H_    0.154008 0.749618 0.042116 0.137821
H51   H     H_    0.175046 0.307035 0.989313 0.135796
H52   H     H_    0.824773 0.675904 0.020585 0.133736
H53   H     H_    0.775341 0.985152 0.503866 0.165815
H54   H     H_    0.892947 0.031148 0.394351 0.249088
H55   H     H_    0.923602 0.930426 0.350386 0.256649
H56   H     H_    0.216011 0.381759 0.179187 0.097360
H57   H     H_    0.876970 0.958974 0.494341 0.250404
H58   H     H_    0.260338 0.100842 0.509218 0.164035
H59   H     H_    0.138403 0.070095 0.626623 0.248257
H60   H     H_    0.159946 0.140135 0.520694 0.254327
H61   H     H_    0.118123 0.173958 0.661003 0.263016
H62   H     H_    0.233369 0.986752 0.454651 0.167375
H63   H     H_    0.222374 0.009671 0.315849 0.252318
H64   H     H_    0.150742 0.947436 0.423814 0.246666
H65   H     H_    0.225803 0.903904 0.293847 0.253764
H66   H     H_    0.712050 0.101708 0.556015 0.163975
H67   H     H_    0.208402 0.643369 0.193241 0.100424
H68   H     H_    0.723003 0.084320 0.695853 0.255050
H69   H     H_    0.722447 0.190814 0.710061 0.251349
H70   H     H_    0.795974 0.142617 0.583171 0.251256
H71   H     H_    0.290485 0.490475 0.487161 0.165725
H72   H     H_    0.410775 0.526984 0.371572 0.250284
H73   H     H_    0.435002 0.424132 0.333103 0.255653
H74   H     H_    0.392185 0.455984 0.474587 0.250121
H75   H     H_    0.767977 0.594325 0.503665 0.165247
H76   H     H_    0.648288 0.554503 0.615244 0.249985
H77   H     H_    0.667596 0.625376 0.511558 0.254395
H78   H     H_    0.806563 0.337012 0.765929 0.104150
H79   H     H_    0.621823 0.656698 0.654212 0.260972
H80   H     H_    0.747075 0.483454 0.436469 0.168859
H81   H     H_    0.735494 0.505788 0.297941 0.251621
H82   H     H_    0.660051 0.451457 0.412772 0.246643
H83   H     H_    0.730417 0.399797 0.286392 0.257119
H84   H     H_    0.216206 0.602362 0.550107 0.162165
H85   H     H_    0.231141 0.582440 0.684960 0.252678
H86   H     H_    0.228217 0.688605 0.704045 0.257131
H87   H     H_    0.301661 0.643898 0.573537 0.250410
H88   H     H_    0.567131 0.165161 0.672917 0.129074
N1    N     N_R   0.389620 0.081040 0.705440 -0.049378
N2    N     N_R   0.417680 0.920160 0.443370 -0.044287
N3    N     N_R   0.417680 0.079840 0.443370 -0.042002
N4    N     N_R   0.582320 0.920160 0.556630 -0.040722
N5    N     N_R   0.082320 0.579840 0.556630 -0.043245
N6    N     N_R   0.917680 0.420160 0.443370 -0.041641
N7    N     N_R   0.917680 0.579840 0.443370 -0.042320
N8    N     N_R   0.082320 0.420160 0.556630 -0.043511
N9    N     N_R   0.627920 0.078930 0.443400 -0.041397
N10   N     N_R   0.372080 0.921070 0.556600 -0.040639
N11   N     N_R   0.372080 0.078930 0.556600 -0.040870
N12   N     N_R   0.610380 0.918960 0.294560 -0.054099
N13   N     N_R   0.627920 0.921070 0.443400 -0.038881
N14   N     N_R   0.127920 0.578930 0.443400 -0.039260
N15   N     N_R   0.872080 0.421070 0.556600 -0.039320
N16   N     N_R   0.872080 0.578930 0.556600 -0.042780
N17   N     N_R   0.127920 0.421070 0.443400 -0.040247
N18   N     N_R   0.555090 0.077730 0.294590 -0.060456
N19   N     N_R   0.444910 0.922270 0.705410 -0.064059
N20   N     N_R   0.444910 0.077730 0.705410 -0.060350
N21   N     N_R   0.555090 0.922270 0.294590 -0.064813
N22   N     N_R   0.055090 0.577730 0.294590 -0.060128
N23   N     N_R   0.610380 0.081040 0.294560 -0.050136
N24   N     N_R   0.944910 0.422270 0.705410 -0.065334
N25   N     N_R   0.944910 0.577730 0.705410 -0.060905
N26   N     N_R   0.055090 0.422270 0.294590 -0.063992
N27   N     N_1   0.518785 0.072457 0.111394 -0.079360
N28   N     N_1   0.480746 0.912170 0.889970 -0.083960
N29   N     N_1   0.477184 0.112188 0.892134 -0.075286
N30   N     N_1   0.501800 0.837289 0.150962 -0.092431
N31   N     N_1   0.024119 0.613513 0.106291 -0.079981
N32   N     N_1   0.997570 0.336484 0.850146 -0.098071
N33   N     N_1   0.982005 0.573169 0.887636 -0.076394
N34   N     N_R   0.389620 0.918960 0.705440 -0.053700
N35   N     N_1   0.018572 0.411092 0.111047 -0.082167
N36   N     N_2   0.815245 0.947035 0.446897 -0.115258
N37   N     N_2   0.224510 0.143491 0.563531 -0.115258
N38   N     N_2   0.242279 0.940214 0.404283 -0.115828
N39   N     N_2   0.704193 0.150019 0.603317 -0.112026
N40   N     N_2   0.327651 0.449247 0.431921 -0.116113
N41   N     N_2   0.729449 0.634378 0.559124 -0.113154
N42   N     N_2   0.752038 0.435985 0.390398 -0.115676
N43   N     N_2   0.207996 0.649621 0.599167 -0.112919
N44   N     N_R   0.889620 0.581040 0.705440 -0.050449
N45   N     N_R   0.110380 0.418960 0.294560 -0.053549
N46   N     N_R   0.110380 0.581040 0.294560 -0.049475
N47   N     N_R   0.889620 0.418960 0.705440 -0.054295
N48   N     N_R   0.582320 0.079840 0.556630 -0.043234
Ni1   Ni    Ni4+2 0.382970 0.000000 0.629840 0.204504
Ni2   Ni    Ni4+2 0.617030 0.000000 0.370160 0.204016
Ni3   Ni    Ni4+2 0.882970 0.500000 0.629840 0.204751
Ni4   Ni    Ni4+2 0.117030 0.500000 0.370160 0.203792
Ni5   Ni    Ni4+2 0.514540 0.000000 0.629840 0.227271
Ni6   Ni    Ni4+2 0.485460 0.000000 0.370160 0.225085
Ni7   Ni    Ni4+2 0.014540 0.500000 0.629840 0.225454
Ni8   Ni    Ni4+2 0.985460 0.500000 0.370160 0.226115

loop_
_geom_bond_atom_site_label_1
_geom_bond_atom_site_label_2
_ccdc_geom_bond_type
N6    N15   A    
C76   C104  S    
C96   C105  S    
C45   N6    A    
N44   Ni3   S    
C69   C72   A    
C51   H11   S    
C32   C35   S    
C87   H21   S    
C50   H10   S    
C41   H2    S    
H75   N41   S    
N6    Ni8   S    
C51   C77   A    
C34   H38   S    
C16   H86   S    
N18   N23   A    
C48   H8    S    
C13   C96   S    
N46   Ni4   S    
C8    H57   S    
N25   N44   A    
C99   C108  S    
C19   H32   S    
H58   N37   S    
C19   C97   S    
C19   C89   S    
C84   C97   S    
C21   H35   S    
C18   H31   S    
C53   C79   A    
C110  N27   T    
C60   N20   A    
C27   H50   S    
C31   H37   S    
C58   C71   A    
C57   N18   A    
C11   N39   S    
C4    C62   S    
C2    C107  S    
C92   C96   S    
C84   C102  S    
C5    C63   S    
C2    C85   S    
C64   C71   A    
C6    C64   S    
C89   C94   S    
C64   N25   A    
C98   N41   S    
C85   C98   S    
N24   N47   A    
C46   C82   A    
C14   H77   S    
C19   C103  S    
C92   C108  S    
C62   N22   A    
C61   N21   A    
C25   C67   A    
C29   C38   D    
C46   H7    S    
C59   C111  S    
C49   C75   A    
C62   C73   A    
C9    H61   S    
C17   C95   S    
N8    Ni7   S    
C13   H29   S    
C87   C104  S    
C77   C103  S    
N10   Ni1   S    
C56   H17   S    
N5    Ni7   S    
C24   C66   S    
N9    Ni2   S    
C47   N34   A    
C15   H83   S    
N26   Ni8   S    
C15   N42   S    
C28   C74   S    
C100  C109  S    
C45   H6    S    
C89   H24   S    
C34   C38   S    
C23   H44   S    
C78   C101  S    
N15   Ni3   S    
C15   H82   S    
N19   N34   A    
N3    N11   A    
C42   N3    A    
C46   N7    A    
C11   H70   S    
C1    H1    S    
C38   H43   S    
N2    N10   A    
C13   C108  S    
C52   C78   A    
C3    N30   T    
H66   N39   S    
C40   N48   A    
C26   C34   D    
C28   H49   S    
C7    N35   T    
N12   N21   A    
C3    C61   S    
C93   N36   S    
C10   H64   S    
C54   N15   A    
C91   H78   S    
C91   N47   A    
C2    C93   S    
H80   N42   S    
C22   C31   D    
C79   C109  S    
H84   N43   S    
C4    N31   T    
N13   Ni2   S    
C33   H39   S    
C93   C101  S    
C55   N16   A    
C88   C107  S    
N48   Ni5   S    
C22   H46   S    
C37   H40   S    
C27   C35   D    
C47   H34   S    
C20   C90   S    
N4    N13   A    
C18   C88   S    
C98   C107  S    
C31   C37   S    
C17   C109  S    
C17   H30   S    
C43   C78   A    
C95   N38   S    
C74   C91   A    
C89   C106  S    
C25   N12   A    
C30   H51   S    
N7    Ni8   S    
C80   H67   S    
C47   C70   A    
C60   C112  S    
C8    H55   S    
C50   C76   A    
C43   H4    S    
C7    C65   S    
C14   N41   S    
C14   H76   S    
C61   C67   A    
C94   N37   S    
C57   C110  S    
C20   C100  S    
N25   Ni7   S    
N7    N16   A    
N20   Ni5   S    
C48   N8    A    
C36   C68   A    
C1    C66   A    
N18   Ni6   S    
C5    N32   T    
C26   H47   S    
C33   C39   S    
C82   C107  S    
N11   Ni1   S    
C55   C82   A    
C58   N44   A    
C86   C99   S    
C100  N43   S    
C36   N23   A    
C22   C68   S    
C53   N14   A    
C16   H87   S    
C8    H54   S    
H53   N36   S    
C20   C104  S    
C14   H79   S    
C8    N36   S    
N23   Ni2   S    
C69   N45   A    
C11   H69   S    
N17   Ni4   S    
N45   Ni4   S    
C94   C103  S    
C10   N38   S    
N47   Ni3   S    
H71   N40   S    
C9    N37   S    
C96   N39   S    
C80   N46   A    
C9    H59   S    
C86   C105  S    
C83   C106  S    
C111  N28   T    
C57   C68   A    
N12   Ni2   S    
N26   N45   A    
C36   H23   S    
C10   H63   S    
C90   H25   S    
C85   C101  S    
C95   C104  S    
N21   Ni6   S    
C56   C83   A    
C87   C100  S    
C54   H15   S    
N8    N17   A    
C97   N40   S    
C88   C93   S    
C54   C81   A    
C40   H88   S    
N19   Ni5   S    
C17   C87   S    
C10   H65   S    
C63   N24   A    
C6    N33   T    
C44   C79   A    
N34   Ni1   S    
C35   H41   S    
N1    N20   A    
C58   H45   S    
C23   C70   S    
N5    N14   A    
C30   C72   S    
C52   H13   S    
C24   H48   S    
C26   C67   S    
C32   H36   S    
C63   C74   A    
N22   Ni8   S    
C65   C72   A    
C29   H52   S    
C1    N1    A    
N1    Ni1   S    
C24   C33   D    
C90   C109  S    
C40   C75   A    
C12   H74   S    
C2    H28   S    
C23   C32   D    
N3    Ni6   S    
C99   N42   S    
H62   N38   S    
N9    N48   A    
C88   H22   S    
C59   N19   A    
C85   H19   S    
C41   C76   A    
N14   Ni4   S    
N4    Ni5   S    
N22   N46   A    
C86   H20   S    
N2    Ni6   S    
C28   C37   D    
N16   Ni3   S    
C21   C99   S    
C12   H73   S    
C84   H18   S    
C44   N5    A    
C73   C80   A    
C65   N26   A    
C102  C106  S    
C45   C81   A    
C102  H27   S    
C49   H9    S    
C13   C86   S    
N24   Ni7   S    
C12   H72   S    
C25   H12   S    
C52   N13   A    
C81   C108  S    
C69   H56   S    
C53   H14   S    
C112  N29   T    
C59   C70   A    
C60   C66   A    
C39   H42   S    
C15   H81   S    
C16   N43   S    
C51   N11   A    
C42   H3    S    
C12   N40   S    
C44   H5    S    
C55   H16   S    
C50   N10   A    
C42   C77   A    
C92   H26   S    
C49   N9    A    
C43   N4    A    
C84   C103  S    
C48   C83   A    
C20   H33   S    
C9    H60   S    
C11   H68   S    
C18   C98   S    
C75   C105  S    
C41   N2    A    
C27   C73   S    
C56   N17   A    
C18   C101  S    
C90   C95   S    
C21   C105  S    
C16   H85   S    
C94   C102  S    
C30   C39   D    
C29   C71   S    
C21   C92   S    
C97   C106  S    
