data_mof_unit_21802.cif
_audit_creation_date              2012-12-11T15:22:40-0500
_audit_creation_method            fapswitch 2.2
_symmetry_space_group_name_H-M    P1
_symmetry_Int_Tables_number       1
_space_group_crystal_system       triclinic
_cell_length_a                    22.434196
_cell_length_b                    13.016798
_cell_length_c                    26.961599
_cell_angle_alpha                 90.000154
_cell_angle_beta                  90.531665
_cell_angle_gamma                 90.000115
_cell_volume                      7873.0248546

loop_
_atom_site_label
_atom_site_type_symbol
_atom_type_description
_atom_site_fract_x
_atom_site_fract_y
_atom_site_fract_z
_atom_type_partial_charge
C1    C     C_R   0.720917 0.345052 0.178353 0.553748
C2    C     C_R   0.480491 0.254877 0.897231 -0.127144
C3    C     C_R   0.009697 0.586383 0.555131 -0.117022
C4    C     C_R   0.502478 0.083389 0.394307 -0.121503
C5    C     C_R   0.497521 0.083387 0.605693 -0.121503
C6    C     C_R   0.002478 0.583389 0.394307 -0.121502
C7    C     C_R   0.997521 0.583387 0.605693 -0.121504
C8    C     C_R   0.742628 0.952360 0.370629 0.032015
C9    C     C_R   0.257372 0.952359 0.629371 0.032011
C10   C     C_R   0.242629 0.452361 0.370629 0.032015
C11   C     C_R   0.757373 0.452359 0.629371 0.032013
C12   C     C_R   0.695205 0.903716 0.394739 -0.120350
C13   C     C_R   0.019511 0.754875 0.102767 -0.127144
C14   C     C_R   0.304795 0.903715 0.605261 -0.120362
C15   C     C_R   0.195208 0.403708 0.394738 -0.120353
C16   C     C_R   0.804797 0.403721 0.605260 -0.120356
C17   C     C_R   0.698932 0.884383 0.445220 -0.126354
C18   C     C_R   0.301068 0.884382 0.554780 -0.126362
C19   C     C_R   0.198934 0.384374 0.445219 -0.126356
C20   C     C_R   0.801070 0.384389 0.554779 -0.126357
C21   C     C_R   0.750394 0.912143 0.471864 0.040528
C22   C     C_R   0.249606 0.912142 0.528135 0.040527
C23   C     C_R   0.250394 0.412144 0.471865 0.040527
C24   C     C_R   0.980489 0.754878 0.897231 -0.127144
C25   C     C_R   0.749606 0.412142 0.528135 0.040528
C26   C     C_R   0.799956 0.951172 0.446910 -0.122770
C27   C     C_R   0.200044 0.951172 0.553090 -0.122774
C28   C     C_R   0.299954 0.451185 0.446912 -0.122773
C29   C     C_R   0.700044 0.451165 0.553090 -0.122771
C30   C     C_R   0.796165 0.971053 0.396433 -0.128748
C31   C     C_R   0.203835 0.971052 0.603567 -0.128754
C32   C     C_R   0.296163 0.471064 0.396435 -0.128751
C33   C     C_R   0.703835 0.471046 0.603568 -0.128750
C34   C     C_R   0.775034 0.983258 0.555156 -0.146586
C35   C     C_R   0.508055 0.254717 0.051685 0.018475
C36   C     C_R   0.224966 0.983258 0.444845 -0.146586
C37   C     C_R   0.275024 0.483264 0.555157 -0.146588
C38   C     C_R   0.724959 0.483256 0.444845 -0.146585
C39   C     C_R   0.721431 0.347378 0.321692 0.590362
C40   C     C_R   0.278569 0.347377 0.678307 0.590381
C41   C     C_R   0.221431 0.847378 0.321692 0.590369
C42   C     C_R   0.778569 0.847378 0.678307 0.590370
C43   C     C_R   0.779060 0.973026 0.606736 0.002597
C44   C     C_R   0.220940 0.973026 0.393264 0.002597
C45   C     C_R   0.279050 0.473029 0.606737 0.002593
C46   C     C_R   0.491948 0.254717 0.948314 0.018476
C47   C     C_R   0.720934 0.473025 0.393265 0.002599
C48   C     C_R   0.732683 0.803974 0.598864 -0.151464
C49   C     C_R   0.267318 0.803974 0.401136 -0.151464
C50   C     C_R   0.232695 0.303959 0.598861 -0.151465
C51   C     C_R   0.767326 0.303984 0.401134 -0.151464
C52   C     C_R   0.728762 0.815489 0.548115 -0.131739
C53   C     C_R   0.271238 0.815489 0.451885 -0.131739
C54   C     C_R   0.228773 0.315477 0.548112 -0.131739
C55   C     C_R   0.771246 0.315498 0.451883 -0.131739
C56   C     C_R   0.751595 0.903466 0.525842 0.025735
C57   C     C_R   0.008056 0.754716 0.051685 0.018476
C58   C     C_R   0.248406 0.903466 0.474158 0.025736
C59   C     C_R   0.251594 0.403465 0.525841 0.025733
C60   C     C_R   0.748406 0.403468 0.474158 0.025737
C61   C     C_R   0.760337 0.879586 0.628476 0.041366
C62   C     C_R   0.239663 0.879586 0.371524 0.041365
C63   C     C_R   0.260338 0.379580 0.628475 0.041367
C64   C     C_R   0.739664 0.379590 0.371523 0.041364
C65   C     C_R   0.554371 0.158895 0.321608 0.538843
C66   C     C_R   0.445629 0.158895 0.678392 0.538842
C67   C     C_R   0.054371 0.658895 0.321608 0.538843
C68   C     C_R   0.991948 0.754718 0.948313 0.018475
C69   C     C_R   0.945629 0.658895 0.678392 0.538842
C70   C     C_R   0.732046 0.001457 0.322713 0.551371
C71   C     C_R   0.267954 0.001457 0.677287 0.551364
C72   C     C_R   0.232046 0.501457 0.322713 0.551372
C73   C     C_R   0.767954 0.501457 0.677287 0.551366
C74   C     C_R   0.513107 0.069121 0.103591 -0.140297
C75   C     C_R   0.486897 0.069122 0.896408 -0.140298
C76   C     C_R   0.013115 0.569119 0.103588 -0.140292
C77   C     C_R   0.986905 0.569124 0.896405 -0.140303
C78   C     C_R   0.504033 0.066098 0.052131 -0.045896
C79   C     C_R   0.502875 0.160108 0.025944 0.048119
C80   C     C_R   0.495972 0.066098 0.947867 -0.045897
C81   C     C_R   0.004042 0.566096 0.052128 -0.045895
C82   C     C_R   0.995981 0.566099 0.947864 -0.045898
C83   C     C_R   0.499308 0.971209 0.973725 0.009449
C84   C     C_R   0.500698 0.971208 0.026272 0.009448
C85   C     C_R   0.999321 0.471210 0.973722 0.009445
C86   C     C_R   0.000711 0.471207 0.026269 0.009451
C87   C     C_2   0.643926 0.849336 0.131510 0.306728
C88   C     C_2   0.356078 0.849344 0.868490 0.306751
C89   C     C_2   0.143937 0.349311 0.131514 0.306708
C90   C     C_R   0.497130 0.160108 0.974055 0.048120
C91   C     C_2   0.856089 0.349370 0.868495 0.306775
C92   C     C_2   0.802029 0.061584 0.635813 0.234336
C93   C     C_2   0.197970 0.061583 0.364188 0.234334
C94   C     C_2   0.302009 0.561592 0.635815 0.234327
C95   C     C_2   0.697957 0.561578 0.364189 0.234340
C96   C     C_2   0.500431 0.872593 0.945639 0.241331
C97   C     C_2   0.499576 0.872592 0.054358 0.241325
C98   C     C_2   0.000447 0.372595 0.945635 0.241339
C99   C     C_2   0.999593 0.372589 0.054353 0.241320
C100  C     C_2   0.784551 0.102599 0.958439 0.214612
C101  C     C_R   0.002879 0.660107 0.025942 0.048119
C102  C     C_2   0.215404 0.102562 0.041551 0.214600
C103  C     C_2   0.284550 0.602600 0.958438 0.214604
C104  C     C_2   0.715405 0.602566 0.041552 0.214608
C105  C     C_R   0.279083 0.345052 0.821647 0.553751
C106  C     C_R   0.997135 0.660109 0.974053 0.048120
C107  C     C_R   0.504444 0.347667 0.025612 -0.124819
C108  C     C_R   0.495561 0.347668 0.974388 -0.124822
C109  C     C_R   0.004439 0.847667 0.025612 -0.124817
C110  C     C_R   0.995557 0.847668 0.974388 -0.124823
C111  C     C_R   0.740143 0.953650 0.130085 0.032622
C112  C     C_R   0.259855 0.953641 0.869912 0.032615
C113  C     C_R   0.240145 0.453650 0.130086 0.032624
C114  C     C_R   0.759857 0.453645 0.869913 0.032613
C115  C     C_R   0.790880 0.980883 0.102917 -0.146938
C116  C     C_R   0.220917 0.845052 0.178352 0.553751
C117  C     C_R   0.209113 0.980861 0.897078 -0.146939
C118  C     C_R   0.290879 0.480894 0.102916 -0.146941
C119  C     C_R   0.709113 0.480857 0.897078 -0.146935
C120  C     C_R   0.791846 0.968168 0.051668 -0.133255
C121  C     C_R   0.208143 0.968138 0.948326 -0.133246
C122  C     C_R   0.291845 0.468178 0.051668 -0.133256
C123  C     C_R   0.708142 0.468135 0.948326 -0.133247
C124  C     C_R   0.740735 0.934449 0.025992 -0.003840
C125  C     C_R   0.259255 0.934429 0.974004 -0.003831
C126  C     C_R   0.240735 0.434448 0.025993 -0.003844
C127  C     C_R   0.779083 0.845052 0.821647 0.553747
C128  C     C_R   0.759256 0.434435 0.974006 -0.003829
C129  C     C_R   0.691629 0.900235 0.053333 -0.109501
C130  C     C_R   0.308366 0.900227 0.946665 -0.109459
C131  C     C_R   0.191633 0.400222 0.053335 -0.109512
C132  C     C_R   0.808370 0.400243 0.946668 -0.109451
C133  C     C_R   0.553506 0.157101 0.177603 0.541208
C134  C     C_R   0.446495 0.157101 0.822397 0.541208
C135  C     C_R   0.053506 0.657101 0.177602 0.541210
C136  C     C_R   0.946495 0.657101 0.822397 0.541206
C137  C     C_R   0.692623 0.902615 0.105191 0.024237
C138  C     C_R   0.475307 0.161835 0.871585 0.000460
C139  C     C_R   0.307375 0.902611 0.894808 0.024270
C140  C     C_R   0.192629 0.402602 0.105193 0.024225
C141  C     C_R   0.807380 0.402626 0.894811 0.024276
C142  C     C_R   0.717318 0.835620 0.949591 -0.133015
C143  C     C_R   0.282684 0.835619 0.050410 -0.133024
C144  C     C_R   0.217319 0.335617 0.949591 -0.133018
C145  C     C_R   0.782683 0.335621 0.050410 -0.133021
C146  C     C_R   0.725865 0.814199 0.899845 -0.138613
C147  C     C_R   0.274142 0.814206 0.100157 -0.138616
C148  C     C_R   0.225866 0.314197 0.899845 -0.138612
C149  C     C_R   0.524696 0.161834 0.128414 0.000460
C150  C     C_R   0.774141 0.314206 0.100157 -0.138616
C151  C     C_R   0.779406 0.974164 0.890117 -0.080003
C152  C     C_R   0.220578 0.974150 0.109878 -0.080005
C153  C     C_R   0.279405 0.474165 0.890117 -0.080003
C154  C     C_R   0.720580 0.474152 0.109880 -0.080004
C155  C     C_R   0.768626 0.998972 0.939982 0.025743
C156  C     C_R   0.231351 0.998950 0.060011 0.025742
C157  C     C_R   0.268624 0.498972 0.939983 0.025748
C158  C     C_R   0.731352 0.498953 0.060013 0.025738
C159  C     C_R   0.740925 0.925227 0.971054 -0.005479
C160  C     C_R   0.975309 0.661836 0.871583 0.000460
C161  C     C_R   0.259064 0.925212 0.028943 -0.005477
C162  C     C_R   0.240924 0.425226 0.971054 -0.005477
C163  C     C_R   0.759064 0.425215 0.028944 -0.005479
C164  C     C_R   0.759418 0.880798 0.870372 -0.006183
C165  C     C_R   0.240580 0.880797 0.129627 -0.006179
C166  C     C_R   0.259418 0.380798 0.870372 -0.006182
C167  C     C_R   0.740581 0.380798 0.129628 -0.006179
C168  C     C_R   0.527632 0.169048 0.370873 0.024835
C169  C     C_R   0.472368 0.169047 0.629127 0.024833
C170  C     C_R   0.027632 0.669048 0.370873 0.024834
C171  C     C_R   0.024698 0.661832 0.128413 0.000461
C172  C     C_R   0.972368 0.669047 0.629127 0.024834
C173  C     C_R   0.536962 0.259733 0.398143 -0.125693
C174  C     C_R   0.463040 0.259734 0.601858 -0.125694
C175  C     C_R   0.036962 0.759733 0.398143 -0.125694
C176  C     C_R   0.963040 0.759734 0.601858 -0.125693
C177  C     C_R   0.525629 0.262198 0.448744 -0.120492
C178  C     C_R   0.474374 0.262199 0.551257 -0.120493
C179  C     C_R   0.025629 0.762198 0.448744 -0.120493
C180  C     C_R   0.974374 0.762199 0.551257 -0.120492
C181  C     C_R   0.731568 0.000423 0.179593 0.561436
C182  C     C_R   0.519512 0.254876 0.102768 -0.127143
C183  C     C_R   0.268431 0.000422 0.820406 0.561422
C184  C     C_R   0.231569 0.500423 0.179593 0.561446
C185  C     C_R   0.768432 0.500423 0.820407 0.561412
C186  C     C_R   0.503789 0.174621 0.472853 0.035974
C187  C     C_R   0.496211 0.174621 0.527147 0.035974
C188  C     C_R   0.003789 0.674621 0.472853 0.035974
C189  C     C_R   0.996211 0.674621 0.527147 0.035974
C190  C     C_R   0.490302 0.086385 0.444868 -0.117020
C191  C     C_R   0.509697 0.086383 0.555131 -0.117020
C192  C     C_R   0.990301 0.586385 0.444868 -0.117019
Cr1   Cr    Cr6+3 0.756570 0.170940 0.251190 1.023474
Cr2   Cr    Cr6+3 0.374010 0.036240 0.749520 1.065885
Cr3   Cr    Cr6+3 0.125990 0.536240 0.250480 1.065881
Cr4   Cr    Cr6+3 0.874010 0.536240 0.749520 1.065887
Cr5   Cr    Cr6+3 0.243430 0.170940 0.748810 1.023481
Cr6   Cr    Cr6+3 0.256570 0.670940 0.251190 1.023476
Cr7   Cr    Cr6+3 0.743430 0.670940 0.748810 1.023478
Cr8   Cr    Cr6+3 0.623740 0.299110 0.249580 1.055799
Cr9   Cr    Cr6+3 0.376260 0.299110 0.750420 1.055797
Cr10  Cr    Cr6+3 0.123740 0.799110 0.249580 1.055798
Cr11  Cr    Cr6+3 0.876260 0.799110 0.750420 1.055799
Cr12  Cr    Cr6+3 0.625990 0.036240 0.250480 1.065888
H1    H     H_    0.483229 0.998240 0.875787 0.121329
H2    H     H_    0.471701 0.018792 0.462294 0.104599
H3    H     H_    0.028296 0.518789 0.537705 0.104600
H4    H     H_    0.971701 0.518792 0.462294 0.104599
H5    H     H_    0.789948 0.053668 0.537707 0.087743
H6    H     H_    0.210052 0.053668 0.462294 0.087738
H7    H     H_    0.289929 0.553681 0.537709 0.087745
H8    H     H_    0.710040 0.553661 0.462295 0.087739
H9    H     H_    0.710451 0.753211 0.526079 0.106219
H10   H     H_    0.289550 0.753212 0.473921 0.106214
H11   H     H_    0.210470 0.253194 0.526075 0.106222
H12   H     H_    0.516775 0.998240 0.124210 0.121328
H13   H     H_    0.789563 0.253224 0.473918 0.106214
H14   H     H_    0.840702 0.969894 0.466811 0.101564
H15   H     H_    0.159298 0.969894 0.533189 0.101565
H16   H     H_    0.340698 0.469915 0.466813 0.101565
H17   H     H_    0.659296 0.469882 0.533191 0.101564
H18   H     H_    0.472226 0.326863 0.878135 0.133407
H19   H     H_    0.527776 0.326862 0.121865 0.133409
H20   H     H_    0.972221 0.826864 0.878135 0.133410
H21   H     H_    0.027771 0.826861 0.121865 0.133406
H22   H     H_    0.491732 0.420453 0.955102 0.136125
H23   H     H_    0.983239 0.498243 0.875784 0.121326
H24   H     H_    0.508273 0.420453 0.044897 0.136132
H25   H     H_    0.991724 0.920453 0.955103 0.136128
H26   H     H_    0.008265 0.920452 0.044898 0.136131
H27   H     H_    0.828935 0.016612 0.120922 0.138871
H28   H     H_    0.171058 0.016586 0.879071 0.138879
H29   H     H_    0.328931 0.516633 0.120920 0.138875
H30   H     H_    0.671056 0.516574 0.879070 0.138875
H31   H     H_    0.694784 0.778679 0.971709 0.141524
H32   H     H_    0.305224 0.778681 0.028294 0.141530
H33   H     H_    0.194787 0.278674 0.971708 0.141528
H34   H     H_    0.016788 0.498237 0.124207 0.121330
H35   H     H_    0.805222 0.278684 0.028293 0.141530
H36   H     H_    0.832020 0.988255 0.031952 0.134147
H37   H     H_    0.167965 0.988213 0.968040 0.134172
H38   H     H_    0.332016 0.488272 0.031950 0.134158
H39   H     H_    0.667963 0.488203 0.968040 0.134157
H40   H     H_    0.803472 0.027153 0.866622 0.191169
H41   H     H_    0.196505 0.027134 0.133371 0.191163
H42   H     H_    0.303470 0.527155 0.866622 0.191165
H43   H     H_    0.696507 0.527137 0.133373 0.191166
H44   H     H_    0.652792 0.869370 0.034374 0.153892
H45   H     H_    0.556924 0.326760 0.381229 0.135252
H46   H     H_    0.347204 0.869370 0.965626 0.153875
H47   H     H_    0.152797 0.369348 0.034377 0.153920
H48   H     H_    0.847209 0.369393 0.965630 0.153851
H49   H     H_    0.599836 0.845662 0.115150 0.131486
H50   H     H_    0.400168 0.845685 0.884851 0.131460
H51   H     H_    0.099848 0.345621 0.115155 0.131507
H52   H     H_    0.900180 0.345736 0.884854 0.131431
H53   H     H_    0.505304 0.012690 0.625928 0.129718
H54   H     H_    0.494694 0.012692 0.374071 0.129718
H55   H     H_    0.005303 0.512690 0.625928 0.129719
H56   H     H_    0.443080 0.326761 0.618772 0.135255
H57   H     H_    0.994694 0.512692 0.374071 0.129717
H58   H     H_    0.536760 0.331092 0.469343 0.101226
H59   H     H_    0.463244 0.331094 0.530658 0.101229
H60   H     H_    0.036760 0.831092 0.469342 0.101227
H61   H     H_    0.963244 0.831094 0.530658 0.101227
H62   H     H_    0.653539 0.887916 0.375599 0.135764
H63   H     H_    0.346461 0.887915 0.624401 0.135763
H64   H     H_    0.153543 0.387900 0.375596 0.135762
H65   H     H_    0.846464 0.387926 0.624399 0.135765
H66   H     H_    0.826002 0.122715 0.617201 0.089449
H67   H     H_    0.056924 0.826760 0.381229 0.135253
H68   H     H_    0.173997 0.122714 0.382799 0.089446
H69   H     H_    0.325968 0.622739 0.617204 0.089458
H70   H     H_    0.673976 0.622699 0.382801 0.089442
H71   H     H_    0.528832 0.864706 0.913508 0.097117
H72   H     H_    0.471176 0.864705 0.086489 0.097111
H73   H     H_    0.028849 0.364713 0.913504 0.097121
H74   H     H_    0.971194 0.364699 0.086486 0.097107
H75   H     H_    0.660305 0.853521 0.463869 0.099877
H76   H     H_    0.339695 0.853521 0.536131 0.099879
H77   H     H_    0.160309 0.353503 0.463867 0.099878
H78   H     H_    0.943080 0.826761 0.618772 0.135253
H79   H     H_    0.839698 0.353533 0.536130 0.099878
H80   H     H_    0.717959 0.731542 0.614326 0.142254
H81   H     H_    0.282041 0.731542 0.385673 0.142252
H82   H     H_    0.217981 0.231520 0.614322 0.142255
H83   H     H_    0.782056 0.231557 0.385671 0.142253
H84   H     H_    0.833660 0.007340 0.378453 0.129543
H85   H     H_    0.166340 0.007339 0.621547 0.129547
H86   H     H_    0.333657 0.507358 0.378456 0.129545
H87   H     H_    0.666339 0.507328 0.621548 0.129544
H88   H     H_    0.709820 0.741440 0.885460 0.140685
H89   H     H_    0.528296 0.018789 0.537705 0.104599
H90   H     H_    0.290196 0.741457 0.114545 0.140684
H91   H     H_    0.209823 0.241437 0.885461 0.140686
H92   H     H_    0.790194 0.241456 0.114544 0.140683
H93   H     H_    0.765088 0.131212 0.992368 0.101396
H94   H     H_    0.234880 0.131194 0.007630 0.101383
H95   H     H_    0.265080 0.631220 0.992363 0.101401
H96   H     H_    0.734869 0.631188 0.007626 0.101381
O1    O     O_R   0.769900 0.064540 0.196060 -0.529995
O2    O     O_R   0.433710 0.069580 0.694600 -0.517454
O3    O     O_R   0.066290 0.569580 0.305400 -0.517455
O4    O     O_R   0.933710 0.569580 0.694600 -0.517454
O5    O     O_R   0.680760 0.993330 0.302620 -0.492477
O6    O     O_R   0.319240 0.993330 0.697380 -0.492477
O7    O     O_R   0.180760 0.493330 0.302620 -0.492476
O8    O     O_R   0.819240 0.493330 0.697380 -0.492479
O9    O     O_3   0.668770 0.168760 0.250420 -0.261521
O10   O     O_3   0.331230 0.168760 0.749580 -0.261523
O11   O     O_3   0.168770 0.668760 0.250420 -0.261522
O12   O     O_R   0.230100 0.064540 0.803940 -0.529993
O13   O     O_3   0.831230 0.668760 0.749580 -0.261521
O14   O     O_R   0.750800 0.274080 0.199250 -0.504216
O15   O     O_R   0.249200 0.274080 0.800750 -0.504212
O16   O     O_R   0.250800 0.774080 0.199250 -0.504216
O17   O     O_R   0.749200 0.774080 0.800750 -0.504212
O18   O     O_R   0.669990 0.371670 0.194150 -0.497265
O19   O     O_R   0.330010 0.371670 0.805850 -0.497261
O20   O     O_R   0.169990 0.871670 0.194150 -0.497263
O21   O     O_R   0.830010 0.871670 0.805850 -0.497263
O22   O     O_R   0.574600 0.238480 0.197800 -0.501600
O23   O     O_R   0.269900 0.564540 0.196060 -0.529996
O24   O     O_R   0.425400 0.238480 0.802200 -0.501601
O25   O     O_R   0.074600 0.738480 0.197800 -0.501599
O26   O     O_R   0.925400 0.738480 0.802200 -0.501602
O27   O     O_R   0.566130 0.068680 0.194240 -0.520520
O28   O     O_R   0.433870 0.068680 0.805760 -0.520520
O29   O     O_R   0.066130 0.568680 0.194240 -0.520523
O30   O     O_R   0.933870 0.568680 0.805760 -0.520520
O31   O     O_R   0.680610 0.992490 0.199570 -0.460280
O32   O     O_R   0.319390 0.992490 0.800430 -0.460285
O33   O     O_R   0.180610 0.492490 0.199570 -0.460282
O34   O     O_R   0.730100 0.564540 0.803940 -0.529992
O35   O     O_R   0.819390 0.492490 0.800430 -0.460290
O36   O     O_R   0.770060 0.065440 0.307230 -0.528225
O37   O     O_R   0.229940 0.065440 0.692770 -0.528227
O38   O     O_R   0.270060 0.565440 0.307230 -0.528227
O39   O     O_R   0.729940 0.565440 0.692770 -0.528225
O40   O     O_R   0.750960 0.274920 0.302300 -0.517258
O41   O     O_R   0.249040 0.274920 0.697700 -0.517256
O42   O     O_R   0.250960 0.774920 0.302300 -0.517258
O43   O     O_R   0.749040 0.774920 0.697700 -0.517257
O44   O     O_R   0.670160 0.372580 0.305320 -0.473418
O45   O     O_R   0.574760 0.239320 0.300850 -0.509491
O46   O     O_R   0.329840 0.372580 0.694680 -0.473418
O47   O     O_R   0.170160 0.872580 0.305320 -0.473418
O48   O     O_R   0.829840 0.872580 0.694680 -0.473419
O49   O     O_2   0.653473 0.804171 0.170479 -0.462839
O50   O     O_2   0.346536 0.804174 0.829521 -0.462828
O51   O     O_2   0.153490 0.304154 0.170485 -0.462855
O52   O     O_2   0.846550 0.304183 0.829530 -0.462811
O53   O     O_2   0.792407 0.069892 0.680122 -0.470496
O54   O     O_2   0.207592 0.069892 0.319878 -0.470491
O55   O     O_2   0.292392 0.569886 0.680126 -0.470497
O56   O     O_R   0.425240 0.239320 0.699150 -0.509493
O57   O     O_2   0.707582 0.569895 0.319880 -0.470491
O58   O     O_2   0.468724 0.800462 0.957343 -0.471929
O59   O     O_2   0.531281 0.800461 0.042653 -0.471911
O60   O     O_2   0.968742 0.300462 0.957336 -0.471917
O61   O     O_2   0.031299 0.300462 0.042647 -0.471915
O62   O     O_2   0.819142 0.157282 0.935819 -0.498977
O63   O     O_2   0.180779 0.157209 0.064154 -0.498984
O64   O     O_2   0.319150 0.657274 0.935824 -0.498995
O65   O     O_2   0.680793 0.657224 0.064163 -0.498974
O66   O     O_R   0.074760 0.739320 0.300850 -0.509492
O67   O     O_R   0.925240 0.739320 0.699150 -0.509492
O68   O     O_R   0.566290 0.069580 0.305400 -0.517455

loop_
_geom_bond_atom_site_label_1
_geom_bond_atom_site_label_2
_ccdc_geom_bond_type
C135  O25   A    
C21   C26   A    
C65   O68   A    
C34   C56   A    
C53   H10   S    
C69   O4    A    
C153  C166  A    
C26   H14   S    
C184  O23   A    
C142  C146  A    
C7    H55   S    
C132  C141  A    
C16   H65   S    
C48   H80   S    
C43   C61   A    
C182  H19   S    
C41   O47   A    
C154  C158  A    
C3    C189  A    
Cr8   O22   S    
Cr6   O38   S    
C99   H74   S    
C113  C184  S    
C1    C167  S    
C29   C33   A    
C37   H7    S    
C79   C90   A    
C131  C140  A    
C190  H2    S    
C57   C109  A    
C152  C156  A    
C169  C174  A    
C25   C60   S    
C151  C155  A    
C105  O19   A    
C81   C86   A    
C24   H20   S    
C28   H16   S    
C7    C172  A    
Cr11  O13   S    
C80   C83   A    
C87   O49   D    
C152  C165  A    
C25   C29   A    
C125  C161  S    
C27   C31   A    
C2    C138  A    
C28   C32   A    
C133  O27   A    
C15   H64   S    
Cr9   O24   S    
C47   C64   A    
Cr2   O2    S    
C179  C188  A    
C155  C159  A    
Cr4   O8    S    
C17   C21   A    
C177  C186  A    
C4    C168  A    
C67   O3    A    
C71   O37   A    
C69   C172  S    
C186  C190  A    
C19   C23   A    
C109  H26   S    
C16   C20   A    
C153  H42   S    
C68   C110  A    
C86   C99   S    
C152  H41   S    
C103  H95   S    
Cr11  O21   S    
C100  C155  S    
Cr4   O13   S    
Cr7   O39   S    
C22   C27   A    
C149  C182  A    
C154  C167  A    
C36   C44   A    
C37   C45   A    
C111  C137  A    
C49   C62   A    
C92   O53   D    
C51   C64   A    
C98   H73   S    
C22   C58   S    
C53   C58   A    
C103  O64   D    
C119  C123  A    
C82   C85   A    
C117  H28   S    
C40   O46   A    
C136  O30   A    
Cr2   O32   S    
C13   H21   S    
C116  O16   A    
C52   C56   A    
C77   C82   A    
C49   C53   A    
C45   C63   A    
C51   C55   A    
C12   H62   S    
C35   C107  A    
C48   C52   A    
C129  C137  A    
C38   H8    S    
C100  H93   S    
C185  O34   A    
C143  C161  A    
C133  O22   A    
C40   O41   A    
Cr10  O66   S    
C127  C164  S    
C75   H1    S    
C2    H18   S    
C94   H69   S    
C123  H39   S    
Cr4   O4    S    
C81   C101  A    
C85   C86   A    
C121  H37   S    
C65   C168  S    
C95   H70   S    
C39   O44   A    
C180  C189  A    
C174  H56   S    
C13   C57   A    
C183  O32   A    
C105  C166  S    
C118  C122  A    
C176  H78   S    
Cr1   O14   S    
C147  C165  A    
C46   C108  A    
C124  C129  A    
C107  C108  A    
C20   H79   S    
C145  C150  A    
Cr3   O33   S    
C104  H96   S    
C1    O14   A    
C50   C63   A    
C69   O67   A    
C94   O55   D    
Cr7   O13   S    
C71   O6    A    
Cr8   O18   S    
C131  H47   S    
Cr9   O46   S    
C54   C59   A    
C19   H77   S    
Cr4   O30   S    
C114  C141  A    
C4    C190  A    
C11   C33   A    
C5    C191  A    
Cr12  O5    S    
C9    C14   A    
C145  C163  A    
C173  H45   S    
C146  C164  A    
C93   O54   D    
C143  H32   S    
C121  C125  A    
C92   H66   S    
C83   C84   A    
C8    C12   A    
C89   C140  S    
Cr4   O35   S    
C5    H53   S    
Cr5   O41   S    
C23   C28   A    
C37   C59   A    
C158  C163  A    
C38   C60   A    
C142  H31   S    
C156  C161  A    
C26   C30   A    
C104  O65   D    
C102  C156  S    
C14   H63   S    
C6    C170  A    
Cr11  O26   S    
C101  C106  A    
C148  H91   S    
Cr1   O40   S    
C18   C22   A    
C34   C43   A    
C104  C158  S    
C102  H94   S    
C31   H85   S    
C147  H90   S    
C57   C101  A    
C8    C70   S    
C43   C92   S    
Cr5   O10   S    
C188  C192  A    
C186  C187  S    
C118  H29   S    
Cr7   O43   S    
C83   C96   S    
C157  C162  A    
C35   C79   A    
C127  O21   A    
C99   O61   D    
C136  C160  S    
C191  H89   S    
C154  H43   S    
C135  O29   A    
C151  C164  A    
C172  C176  A    
C91   C141  S    
C10   C72   S    
C30   H84   S    
C27   H15   S    
C148  C166  A    
C66   C169  S    
C136  O26   A    
C142  C159  A    
C116  O20   A    
C55   H13   S    
C29   H17   S    
C39   C64   S    
C50   C54   A    
C40   C63   S    
C84   C97   S    
C51   H83   S    
Cr8   O9    S    
C3    C7    A    
C112  C117  A    
Cr5   O37   S    
C20   C25   A    
C111  C181  S    
C76   H34   S    
C67   O66   A    
C12   C17   A    
Cr9   O56   S    
C74   C149  A    
C135  C171  S    
C174  C178  A    
C100  O62   D    
C144  C162  A    
C55   C60   A    
C134  O28   A    
Cr9   O10   S    
C41   C62   S    
C98   O60   D    
C130  C139  A    
C112  C183  S    
C42   O48   A    
C170  C175  A    
C67   C170  S    
C54   H11   S    
Cr5   O12   S    
Cr6   O11   S    
C11   C73   S    
C88   H50   S    
C89   O51   D    
C72   O38   A    
C23   C59   S    
C177  H58   S    
C70   O5    A    
Cr3   O29   S    
C110  H25   S    
C96   O58   D    
C179  H60   S    
C1    O18   A    
Cr1   O9    S    
Cr7   O17   S    
C65   O45   A    
C114  C185  S    
C17   H75   S    
Cr3   O11   S    
C120  H36   S    
C18   H76   S    
C178  C187  A    
Cr8   O44   S    
C77   H23   S    
C116  C165  S    
Cr12  O9    S    
C66   O2    A    
C91   O52   D    
C103  C157  S    
C9    C71   S    
Cr6   O23   S    
Cr12  O27   S    
Cr10  O47   S    
C21   C56   S    
C46   C90   A    
C10   C15   A    
C8    C30   A    
C109  C110  A    
C127  O17   A    
C150  C167  A    
C144  H33   S    
C153  C157  A    
C97   H72   S    
Cr2   O28   S    
C24   C68   A    
C77   C160  A    
Cr6   O42   S    
C87   H49   S    
C74   C78   A    
C6    C192  A    
C5    C169  A    
Cr10  O11   S    
C129  H44   S    
C32   H86   S    
C14   C18   A    
C13   C171  A    
Cr11  O67   S    
Cr10  O25   S    
C144  C148  A    
C105  O15   A    
C180  H61   S    
C123  C128  A    
Cr12  O31   S    
C102  O63   D    
C122  H38   S    
C2    C46   A    
C35   C182  A    
C143  C147  A    
Cr8   O45   S    
C49   H81   S    
C97   O59   D    
Cr10  O20   S    
C126  C131  A    
C36   C58   A    
C178  H59   S    
C91   H52   S    
C124  C159  S    
C11   C16   A    
C117  C121  A    
C52   H9    S    
C44   C93   S    
C72   O7    A    
Cr1   O1    S    
C151  H40   S    
C15   C19   A    
C146  H88   S    
C125  C130  A    
Cr7   O34   S    
C176  C180  A    
Cr3   O3    S    
C85   C98   S    
C75   C80   A    
C185  O35   A    
C115  H27   S    
C82   C106  A    
C50   H82   S    
C192  H4    S    
C112  C139  A    
C68   C106  A    
C87   C137  S    
C45   C94   S    
C128  C132  A    
C33   H87   S    
C130  H46   S    
C168  C173  A    
C133  C149  S    
C78   C79   A    
C175  C179  A    
C42   O43   A    
C44   C62   A    
C73   O39   A    
C128  C163  S    
C95   O57   D    
C188  C189  S    
C122  C126  A    
C76   C171  A    
C88   C139  S    
C41   O42   A    
C34   H5    S    
C10   C32   A    
Cr2   O6    S    
C119  H30   S    
C173  C177  A    
C183  O12   A    
C107  H24   S    
C134  O24   A    
C113  C140  A    
C181  O1    A    
Cr1   O36   S    
C42   C61   S    
C38   C47   A    
C181  O31   A    
C39   O40   A    
C175  H67   S    
C132  H48   S    
C66   O56   A    
C4    H54   S    
C74   H12   S    
C187  C191  A    
C184  O33   A    
C114  C119  A    
C76   C81   A    
C134  C138  S    
C24   C160  A    
Cr5   O15   S    
Cr6   O16   S    
Cr12  O68   S    
C150  H92   S    
Cr2   O10   S    
Cr3   O7    S    
C48   C61   A    
C93   H68   S    
C108  H22   S    
Cr11  O48   S    
Cr9   O19   S    
C145  H35   S    
C3    H3    S    
C6    H57   S    
C80   C90   A    
C88   O50   D    
C9    C31   A    
C70   O36   A    
C113  C118  A    
C75   C138  A    
C78   C84   A    
C115  C120  A    
C89   H51   S    
C96   H71   S    
C47   C95   S    
C111  C115  A    
C126  C162  S    
C73   O8    A    
C120  C124  A    
C36   H6    S    
