data_mof_unit_55370.cif
_audit_creation_date              2012-12-10T18:04:39-0500
_audit_creation_method            fapswitch 2.2
_symmetry_space_group_name_H-M    P1
_symmetry_Int_Tables_number       1
_space_group_crystal_system       triclinic
_cell_length_a                    19.519072
_cell_length_b                    17.59423
_cell_length_c                    12.606427
_cell_angle_alpha                 89.951764
_cell_angle_beta                  99.138213
_cell_angle_gamma                 90.041986
_cell_volume                      4274.38771136

loop_
_atom_site_label
_atom_site_type_symbol
_atom_type_description
_atom_site_fract_x
_atom_site_fract_y
_atom_site_fract_z
_atom_type_partial_charge
C1    C     C_R   0.411964 0.103694 0.444341 0.839776
C2    C     C_R   0.781568 0.787613 0.648086 0.046387
C3    C     C_R   0.192504 0.812415 0.582222 0.072474
C4    C     C_R   0.281567 0.287609 0.648091 0.046390
C5    C     C_R   0.221921 0.884509 0.577026 -0.182772
C6    C     C_R   0.348714 0.258070 0.671405 -0.160217
C7    C     C_R   0.721920 0.384510 0.577019 -0.182771
C8    C     C_R   0.848716 0.758076 0.671397 -0.160216
C9    C     C_R   0.273172 0.896331 0.514152 -0.221342
C10   C     C_R   0.377939 0.221498 0.592047 -0.199124
C11   C     C_R   0.773171 0.396330 0.514147 -0.221347
C12   C     C_R   0.408291 0.900450 0.441779 0.857351
C13   C     C_R   0.877939 0.721501 0.592040 -0.199127
C14   C     C_R   0.684936 0.180991 0.524815 -0.231947
C15   C     C_R   0.678641 0.812062 0.518240 -0.251452
C16   C     C_R   0.184935 0.680992 0.524812 -0.231945
C17   C     C_R   0.178645 0.312066 0.518239 -0.251456
C18   C     C_R   0.611887 0.226344 0.648864 -0.220745
C19   C     C_R   0.683113 0.852845 0.701919 -0.203380
C20   C     C_R   0.111889 0.726342 0.648870 -0.220747
C21   C     C_R   0.183109 0.352839 0.701921 -0.203374
C22   C     C_R   0.355550 0.843744 0.404543 -0.117284
C23   C     C_R   0.911963 0.603694 0.444340 0.839773
C24   C     C_R   0.363819 0.165536 0.410409 -0.113664
C25   C     C_R   0.855551 0.343743 0.404544 -0.117282
C26   C     C_R   0.863816 0.665532 0.410406 -0.113659
C27   C     C_R   0.643529 0.002915 0.134438 -0.225448
C28   C     C_R   0.143529 0.502913 0.134438 -0.225449
C29   C     C_R   0.378678 0.000675 0.762298 0.046944
C30   C     C_R   0.878678 0.500676 0.762298 0.046947
C31   C     C_R   0.352987 0.001028 0.858558 -0.215010
C32   C     C_R   0.852987 0.501028 0.858558 -0.215012
C33   C     C_R   0.590755 0.899349 0.557476 0.901125
C34   C     C_R   0.908291 0.400450 0.441779 0.857349
C35   C     C_R   0.589237 0.102261 0.556421 0.886207
C36   C     C_R   0.090755 0.399349 0.557476 0.901126
C37   C     C_R   0.089237 0.602261 0.556421 0.886208
C38   C     C_R   0.399271 0.000930 0.954446 -0.157882
C39   C     C_R   0.899271 0.500931 0.954446 -0.157882
C40   C     C_R   0.471844 0.000677 0.953871 0.017225
C41   C     C_R   0.971844 0.500677 0.953871 0.017226
C42   C     C_R   0.495080 0.000506 0.853679 0.172263
C43   C     C_R   0.995080 0.500506 0.853679 0.172263
C44   C     C_R   0.521919 0.000838 0.048007 -0.061052
C45   C     C_R   0.712265 0.253238 0.516254 0.033836
C46   C     C_R   0.021919 0.500837 0.048007 -0.061052
C47   C     C_R   0.594194 0.002424 0.040614 0.083679
C48   C     C_R   0.094194 0.502423 0.040614 0.083681
C49   C     C_R   0.615456 0.003361 0.939812 0.330997
C50   C     C_R   0.115457 0.503359 0.939812 0.330998
C51   C     C_R   0.566057 0.001500 0.848239 -0.267880
C52   C     C_R   0.066057 0.501499 0.848239 -0.267881
C53   C     C_R   0.503004 0.999513 0.150207 -0.009463
C54   C     C_R   0.003005 0.499513 0.150207 -0.009459
C55   C     C_R   0.621098 0.001685 0.232876 -0.013376
C56   C     C_R   0.746271 0.785140 0.540265 0.035126
C57   C     C_R   0.121098 0.501684 0.232876 -0.013380
C58   C     C_R   0.642960 0.297852 0.650255 0.391571
C59   C     C_R   0.748747 0.820364 0.729235 0.412809
C60   C     C_R   0.142962 0.797850 0.650262 0.391567
C61   C     C_R   0.248743 0.320357 0.729240 0.412811
C62   C     C_R   0.631855 0.168936 0.583535 -0.101105
C63   C     C_R   0.649355 0.850530 0.595515 -0.132956
C64   C     C_R   0.131856 0.668935 0.583535 -0.101105
C65   C     C_R   0.149356 0.350530 0.595514 -0.132958
C66   C     C_R   0.368742 0.790371 0.327653 -0.184769
C67   C     C_R   0.212265 0.753239 0.516253 0.033837
C68   C     C_R   0.334472 0.171196 0.301597 -0.176701
C69   C     C_R   0.868745 0.290368 0.327658 -0.184771
C70   C     C_R   0.834465 0.671186 0.301596 -0.176703
C71   C     C_R   0.325948 0.727517 0.305645 -0.120369
C72   C     C_R   0.279805 0.220711 0.269911 -0.109889
C73   C     C_R   0.825952 0.227513 0.305652 -0.120371
C74   C     C_R   0.779794 0.720696 0.269911 -0.109892
C75   C     C_R   0.272936 0.714722 0.365283 -0.174802
C76   C     C_R   0.250797 0.260538 0.346998 -0.186362
C77   C     C_R   0.772941 0.214719 0.365290 -0.174803
C78   C     C_R   0.246274 0.285143 0.540267 0.035126
C79   C     C_R   0.750787 0.760525 0.346997 -0.186360
C80   C     C_R   0.259991 0.767216 0.445216 0.115288
C81   C     C_R   0.278527 0.253730 0.457695 0.110839
C82   C     C_R   0.759993 0.267214 0.445219 0.115289
C83   C     C_R   0.778522 0.753724 0.457693 0.110839
C84   C     C_R   0.296359 0.836471 0.454549 0.100399
C85   C     C_R   0.340825 0.213471 0.487013 0.084574
C86   C     C_R   0.796360 0.336470 0.454548 0.100401
C87   C     C_R   0.840822 0.713469 0.487009 0.084574
C88   C     C_R   0.692503 0.312415 0.582217 0.072475
Cl1   Cl    Cl    0.703555 0.007454 0.923372 -0.577669
Cl2   Cl    Cl    0.203555 0.507450 0.923372 -0.577672
Cl3   Cl    Cl    0.615507 0.368054 0.733937 -0.609149
Cl4   Cl    Cl    0.788607 0.824719 0.864788 -0.563553
Cl5   Cl    Cl    0.115511 0.868052 0.733951 -0.609144
Cl6   Cl    Cl    0.288598 0.324704 0.864797 -0.563566
H1    H     H_    0.698761 0.004138 0.132811 0.205578
H2    H     H_    0.878680 0.761487 0.751190 0.210587
H3    H     H_    0.413297 0.796055 0.286799 0.165745
H4    H     H_    0.352594 0.135952 0.241305 0.162974
H5    H     H_    0.913301 0.296053 0.286805 0.165746
H6    H     H_    0.852586 0.635940 0.241306 0.162970
H7    H     H_    0.335643 0.686883 0.245311 0.164458
H8    H     H_    0.257932 0.225893 0.185746 0.174296
H9    H     H_    0.835649 0.186878 0.245322 0.164460
H10   H     H_    0.757918 0.725872 0.185747 0.174288
H11   H     H_    0.570077 0.216846 0.694529 0.186058
H12   H     H_    0.198761 0.504136 0.132811 0.205577
H13   H     H_    0.659900 0.882313 0.762619 0.208037
H14   H     H_    0.070080 0.716844 0.694537 0.186060
H15   H     H_    0.159895 0.382304 0.762623 0.208036
H16   H     H_    0.450123 0.998052 0.164367 0.121284
H17   H     H_    0.950123 0.498053 0.164367 0.121283
H18   H     H_    0.343265 0.001371 0.687218 0.132795
H19   H     H_    0.843265 0.501371 0.687218 0.132796
H20   H     H_    0.297556 0.001569 0.858902 0.175560
H21   H     H_    0.797556 0.501570 0.858902 0.175559
H22   H     H_    0.702322 0.132973 0.482991 0.154891
H23   H     H_    0.376514 0.001598 0.026836 0.138769
H24   H     H_    0.647831 0.805685 0.439760 0.163042
H25   H     H_    0.202321 0.632974 0.482984 0.154891
H26   H     H_    0.147837 0.305694 0.439756 0.163047
H27   H     H_    0.741870 0.164476 0.345234 0.135799
H28   H     H_    0.707918 0.797555 0.317566 0.141123
H29   H     H_    0.241865 0.664481 0.345224 0.135800
H30   H     H_    0.207931 0.297573 0.317567 0.141123
H31   H     H_    0.293842 0.953222 0.511301 0.158079
H32   H     H_    0.430319 0.200333 0.613689 0.172768
H33   H     H_    0.793841 0.453222 0.511295 0.158078
H34   H     H_    0.876514 0.501599 0.026836 0.138767
H35   H     H_    0.930320 0.700338 0.613678 0.172765
H36   H     H_    0.658252 0.002219 0.306359 0.137689
H37   H     H_    0.158252 0.502218 0.306359 0.137688
H38   H     H_    0.584780 0.001179 0.773388 0.234156
H39   H     H_    0.084780 0.501179 0.773388 0.234157
H40   H     H_    0.206679 0.931924 0.622650 0.196611
H41   H     H_    0.378675 0.261477 0.751201 0.210585
H42   H     H_    0.706676 0.431925 0.622639 0.196613
N1    N     N_R   0.552340 0.000000 0.237260 -0.103685
N2    N     N_R   0.052340 0.500000 0.237260 -0.103685
N3    N     N_R   0.448170 1.000000 0.762060 -0.122649
N4    N     N_R   0.948170 0.500000 0.762060 -0.122649
O1    O     O_R   0.448200 0.076800 0.373930 -0.608306
O2    O     O_R   0.585240 0.076800 0.457600 -0.611392
O3    O     O_R   0.085240 0.423200 0.457600 -0.615339
O4    O     O_R   0.085240 0.576800 0.457600 -0.611393
O5    O     O_R   0.551780 0.923190 0.626070 -0.626498
O6    O     O_R   0.551780 0.076810 0.626070 -0.637080
O7    O     O_R   0.051780 0.423190 0.626070 -0.626499
O8    O     O_R   0.051780 0.576810 0.626070 -0.637079
O9    O     O_R   0.448200 0.923200 0.373930 -0.617129
O10   O     O_R   0.948200 0.576800 0.373930 -0.608306
O11   O     O_R   0.948200 0.423200 0.373930 -0.617129
O12   O     O_R   0.414750 0.076790 0.542400 -0.628293
O13   O     O_R   0.414750 0.923210 0.542400 -0.604606
O14   O     O_R   0.914750 0.576790 0.542400 -0.628291
O15   O     O_R   0.914750 0.423210 0.542400 -0.604605
O16   O     O_R   0.585240 0.923200 0.457600 -0.615337
Zn1   Zn    Zn3+2 0.522330 1.000000 0.387520 0.945881
Zn2   Zn    Zn3+2 0.022330 0.500000 0.387520 0.945881
Zn3   Zn    Zn3+2 0.477660 0.000000 0.612480 0.939298
Zn4   Zn    Zn3+2 0.977660 0.500000 0.612480 0.939299

loop_
_geom_bond_atom_site_label_1
_geom_bond_atom_site_label_2
_ccdc_geom_bond_type
C53   H16   S    
C83   C87   A    
C10   C85   A    
O13   Zn3   S    
C8    C13   A    
C37   O4    A    
C29   H18   S    
C27   H1    S    
C45   C82   A    
C8    H2    S    
C12   O13   A    
C80   C84   A    
C33   O16   A    
C39   C41   A    
C28   C57   A    
C5    C9    A    
O3    Zn2   S    
C53   N1    A    
C66   H3    S    
O16   Zn1   S    
C38   C40   A    
C36   O3    A    
O5    Zn3   S    
C27   C55   A    
C43   C52   A    
C32   C39   A    
C11   C86   A    
C14   C62   A    
C12   C22   S    
C1    O12   A    
O8    Zn4   S    
C23   C26   S    
C22   C66   A    
C17   H26   S    
C38   H23   S    
C44   C53   A    
C50   Cl2   S    
C7    C88   A    
C19   C63   A    
C26   C87   A    
C49   C51   A    
C70   C74   A    
C50   C52   A    
C41   C46   A    
C69   C73   A    
C20   C60   A    
C58   Cl3   S    
C31   H20   S    
C21   C61   A    
C44   C47   A    
C68   C72   A    
C42   C51   A    
C60   Cl5   S    
C40   C42   A    
O15   Zn4   S    
O12   Zn3   S    
N3    Zn3   S    
C32   H21   S    
C52   H39   S    
C41   C43   A    
C46   C54   A    
O7    Zn4   S    
C70   H6    S    
C81   C85   A    
C7    C11   A    
C14   C45   A    
C5    H40   S    
C29   N3    A    
C79   H28   S    
C46   C48   A    
C30   N4    A    
O14   Zn4   S    
C76   H30   S    
O11   Zn2   S    
C45   C88   A    
C1    O1    A    
C47   C49   A    
C16   H25   S    
C28   H12   S    
C2    C59   A    
C18   C62   A    
O6    Zn3   S    
C9    C84   A    
C19   C59   A    
C34   O15   A    
C4    C61   A    
C9    H31   S    
C35   O6    A    
C22   C84   A    
C20   C64   A    
C11   H33   S    
C4    C78   A    
C6    H41   S    
C30   C32   A    
C25   C86   A    
N2    Zn2   S    
C36   O7    A    
C66   C71   A    
C40   C44   A    
C33   C63   S    
C55   H36   S    
C13   C87   A    
C43   N4    A    
C16   C67   A    
C33   O5    A    
C69   H5    S    
C34   O11   A    
O1    Zn1   S    
C23   O10   A    
C74   C79   A    
C26   C70   A    
C75   H29   S    
C4    C6    A    
C25   C69   A    
O2    Zn1   S    
O4    Zn2   S    
C37   C64   S    
C56   C83   A    
C74   H10   S    
C24   C85   A    
C27   C47   A    
C28   C48   A    
C73   C77   A    
C39   H34   S    
O10   Zn2   S    
C21   C65   A    
C42   N3    A    
C61   Cl6   S    
C12   O9    A    
C57   H37   S    
C3    C67   A    
C67   C80   A    
C49   Cl1   S    
C3    C5    A    
C58   C88   A    
C76   C81   A    
C6    C10   A    
C21   H15   S    
C51   H38   S    
C31   C38   A    
C25   C34   S    
C17   C65   A    
C55   N1    A    
C15   H24   S    
N1    Zn1   S    
C15   C56   A    
C36   C65   S    
C18   H11   S    
C7    H42   S    
C29   C31   A    
C82   C86   A    
N4    Zn4   S    
C57   N2    A    
C71   C75   A    
C78   C81   A    
C54   N2    A    
C72   H8    S    
C77   C82   A    
C72   C76   A    
C14   H22   S    
C48   C50   A    
C17   C78   A    
C18   C58   A    
C54   H17   S    
C35   C62   S    
C59   Cl4   S    
C37   O8    A    
C71   H7    S    
C68   H4    S    
C77   H27   S    
C24   C68   A    
C35   O2    A    
C79   C83   A    
C73   H9    S    
C75   C80   A    
C1    C24   S    
C23   O14   A    
C2    C8    A    
C15   C63   A    
C2    C56   A    
C16   C64   A    
C10   H32   S    
C3    C60   A    
O9    Zn1   S    
C13   H35   S    
C20   H14   S    
C30   H19   S    
C19   H13   S    
