data_mof_unit_5022.cif
_audit_creation_date              2012-10-26T20:21:45-0400
_audit_creation_method            fapswitch 2.2
_symmetry_space_group_name_H-M    P1
_symmetry_Int_Tables_number       1
_space_group_crystal_system       triclinic
_cell_length_a                    15.529278
_cell_length_b                    15.159686
_cell_length_c                    9.540243
_cell_angle_alpha                 90.650029
_cell_angle_beta                  90.101737
_cell_angle_gamma                 90.636002
_cell_volume                      2245.66729913

loop_
_atom_site_label
_atom_site_type_symbol
_atom_type_description
_atom_site_fract_x
_atom_site_fract_y
_atom_site_fract_z
_atom_type_partial_charge
C1    C     C_R   0.124219 0.386708 0.499535 0.584538
C2    C     C_R   0.002340 0.577724 0.927076 0.321156
C3    C     C_R   0.002123 0.577762 0.075531 0.324209
C4    C     C_R   0.997877 0.422238 0.924469 0.324210
C5    C     C_R   0.497660 0.922276 0.072924 0.321157
C6    C     C_R   0.502340 0.077724 0.927076 0.321156
C7    C     C_R   0.502123 0.077762 0.075531 0.324209
C8    C     C_R   0.497877 0.922238 0.924469 0.324209
C9    C     C_R   0.773466 0.286244 0.370003 0.021787
C10   C     C_R   0.226536 0.713754 0.629996 0.021787
C11   C     C_R   0.235840 0.701722 0.374957 0.016358
C12   C     C_R   0.875780 0.613292 0.500465 0.584540
C13   C     C_R   0.764161 0.298276 0.625042 0.016358
C14   C     C_R   0.230156 0.293666 0.627364 -0.022383
C15   C     C_R   0.769843 0.706333 0.372636 -0.022383
C16   C     C_R   0.775663 0.714477 0.629647 -0.020547
C17   C     C_R   0.224337 0.285523 0.370353 -0.020546
C18   C     C_R   0.273466 0.786244 0.370004 0.021787
C19   C     C_R   0.726536 0.213755 0.629996 0.021787
C20   C     C_R   0.735840 0.201722 0.374957 0.016357
C21   C     C_R   0.264161 0.798276 0.625043 0.016358
C22   C     C_R   0.730156 0.793666 0.627364 -0.022382
C23   C     C_R   0.874343 0.388297 0.499239 0.529545
C24   C     C_R   0.269844 0.206334 0.372636 -0.022382
C25   C     C_R   0.275663 0.214477 0.629646 -0.020547
C26   C     C_R   0.724337 0.785523 0.370354 -0.020547
C27   C     C_R   0.200343 0.672718 0.502757 -0.097702
C28   C     C_R   0.799658 0.327281 0.497243 -0.097702
C29   C     C_R   0.802799 0.675319 0.501502 0.025830
C30   C     C_R   0.197201 0.324680 0.498498 0.025829
C31   C     C_R   0.700343 0.172718 0.502757 -0.097701
C32   C     C_R   0.299658 0.827281 0.497243 -0.097703
C33   C     C_R   0.302799 0.175319 0.501502 0.025830
C34   C     C_R   0.125657 0.611703 0.500761 0.529544
C35   C     C_R   0.697201 0.824680 0.498498 0.025830
C36   C     C_2   0.768789 0.338051 0.237508 0.373833
C37   C     C_2   0.231213 0.661946 0.762491 0.373832
C38   C     C_2   0.248602 0.637943 0.256244 0.358909
C39   C     C_2   0.751399 0.362055 0.743756 0.358908
C40   C     C_2   0.221176 0.345001 0.760550 0.290853
C41   C     C_2   0.778822 0.654998 0.239451 0.290855
C42   C     C_2   0.790500 0.672152 0.767503 0.284654
C43   C     C_2   0.209499 0.327847 0.232497 0.284652
C44   C     C_2   0.268789 0.838052 0.237509 0.373831
C45   C     C_R   0.624219 0.886708 0.499535 0.584539
C46   C     C_2   0.731213 0.161947 0.762491 0.373833
C47   C     C_2   0.748602 0.137943 0.256243 0.358909
C48   C     C_2   0.251399 0.862055 0.743757 0.358908
C49   C     C_2   0.721176 0.845001 0.760550 0.290852
C50   C     C_2   0.278824 0.154999 0.239449 0.290853
C51   C     C_2   0.290500 0.172152 0.767503 0.284655
C52   C     C_2   0.709500 0.827848 0.232498 0.284653
C53   C     C_R   0.375780 0.113292 0.500464 0.584539
C54   C     C_R   0.374343 0.888297 0.499239 0.529544
C55   C     C_R   0.625657 0.111703 0.500761 0.529545
C56   C     C_R   0.997660 0.422276 0.072924 0.321156
Cl1   Cl    Cl    0.993845 0.320129 0.159319 -0.461437
Cl2   Cl    Cl    0.006155 0.679871 0.840680 -0.461437
Cl3   Cl    Cl    0.004237 0.680209 0.164999 -0.456921
Cl4   Cl    Cl    0.995763 0.319791 0.835000 -0.456919
Cl5   Cl    Cl    0.493845 0.820129 0.159319 -0.461433
Cl6   Cl    Cl    0.506155 0.179871 0.840680 -0.461437
Cl7   Cl    Cl    0.504236 0.180209 0.164999 -0.456922
Cl8   Cl    Cl    0.495764 0.819791 0.835000 -0.456919
Cu1   Cu    Cu3+1 0.000000 0.500000 0.640660 1.132743
Cu2   Cu    Cu3+1 0.000000 0.500000 0.359340 1.132742
Cu3   Cu    Cu3+1 0.500000 1.000000 0.640660 1.132742
Cu4   Cu    Cu3+1 0.500000 1.000000 0.359340 1.132742
H1    H     H_    0.792640 0.405123 0.232604 0.169320
H2    H     H_    0.707359 0.094876 0.767397 0.169319
H3    H     H_    0.715792 0.074825 0.252620 0.168412
H4    H     H_    0.284206 0.925176 0.747375 0.168411
H5    H     H_    0.701823 0.812681 0.856568 0.125953
H6    H     H_    0.298176 0.187320 0.143431 0.125953
H7    H     H_    0.315194 0.210401 0.855883 0.132764
H8    H     H_    0.684805 0.789599 0.144119 0.132764
H9    H     H_    0.207359 0.594876 0.767397 0.169319
H10   H     H_    0.215792 0.574824 0.252620 0.168411
H11   H     H_    0.784205 0.425176 0.747374 0.168410
H12   H     H_    0.201823 0.312680 0.856568 0.125952
H13   H     H_    0.798173 0.687318 0.143431 0.125951
H14   H     H_    0.815195 0.710402 0.855883 0.132765
H15   H     H_    0.184802 0.289598 0.144118 0.132767
H16   H     H_    0.292639 0.905124 0.232605 0.169319
N1    N     N_R   0.000000 0.500000 0.852070 -0.280182
N2    N     N_R   0.000000 0.500000 0.147930 -0.280182
N3    N     N_R   0.500000 1.000000 0.852070 -0.280182
N4    N     N_R   0.500000 1.000000 0.147930 -0.280182
O1    O     O_R   0.090170 0.409820 0.618740 -0.453391
O2    O     O_R   0.409830 0.090180 0.381260 -0.453390
O3    O     O_R   0.409830 0.090180 0.618740 -0.454701
O4    O     O_R   0.590170 0.909820 0.381260 -0.454703
O5    O     O_R   0.409830 0.909820 0.381260 -0.483740
O6    O     O_R   0.590170 0.090180 0.618740 -0.483741
O7    O     O_R   0.590170 0.090180 0.381260 -0.480677
O8    O     O_R   0.409830 0.909820 0.618740 -0.480675
O9    O     O_2   0.731107 0.309241 0.134055 -0.338202
O10   O     O_2   0.268900 0.690755 0.865941 -0.338201
O11   O     O_2   0.302339 0.652014 0.165691 -0.349347
O12   O     O_R   0.909830 0.590180 0.381260 -0.453389
O13   O     O_2   0.697666 0.347982 0.834315 -0.349349
O14   O     O_2   0.238384 0.423751 0.764391 -0.480816
O15   O     O_2   0.761616 0.576247 0.235612 -0.480818
O16   O     O_2   0.771413 0.594729 0.784677 -0.480816
O17   O     O_2   0.228589 0.405270 0.215322 -0.480813
O18   O     O_2   0.231108 0.809240 0.134054 -0.338201
O19   O     O_2   0.768899 0.190756 0.865942 -0.338201
O20   O     O_2   0.802338 0.152014 0.165689 -0.349349
O21   O     O_2   0.197667 0.847982 0.834316 -0.349349
O22   O     O_2   0.738386 0.923752 0.764390 -0.480816
O23   O     O_R   0.909830 0.590180 0.618740 -0.454702
O24   O     O_2   0.261616 0.076248 0.235609 -0.480818
O25   O     O_2   0.271412 0.094728 0.784676 -0.480816
O26   O     O_2   0.728589 0.905270 0.215323 -0.480815
O27   O     O_R   0.090170 0.409820 0.381260 -0.454704
O28   O     O_R   0.909830 0.409820 0.381260 -0.483740
O29   O     O_R   0.090170 0.590180 0.618740 -0.483741
O30   O     O_R   0.090170 0.590180 0.381260 -0.480677
O31   O     O_R   0.909830 0.409820 0.618740 -0.480675
O32   O     O_R   0.590170 0.909820 0.618740 -0.453392

loop_
_geom_bond_atom_site_label_1
_geom_bond_atom_site_label_2
_ccdc_geom_bond_type
C10   C27   A    
C34   O30   A    
C11   C18   A    
C12   C29   S    
C43   H15   S    
C42   H14   S    
C19   C31   A    
C25   C51   S    
C19   C46   S    
Cu1   O1    S    
C22   C35   A    
C51   O25   D    
Cu2   O28   S    
C10   C37   S    
C48   H4    S    
C26   C52   S    
C50   H6    S    
C23   O31   A    
Cu2   O12   S    
C56   Cl1   S    
C2    N1    A    
C43   O17   D    
C32   C54   S    
C45   O4    A    
Cu1   O23   S    
C54   O5    A    
C23   O28   A    
C5    N4    A    
C53   O3    A    
C9    C36   S    
Cu4   O2    S    
C40   H12   S    
C13   C28   A    
C39   O13   D    
C36   O9    D    
Cu3   O32   S    
C54   O8    A    
C21   C48   S    
C34   O29   A    
C48   O21   D    
C10   C21   A    
C4    C56   A    
C3    N2    A    
C24   C50   S    
C17   C30   A    
C14   C30   A    
C55   O6    A    
C50   O24   D    
C37   O10   D    
C15   C29   A    
C27   C34   S    
C33   C53   S    
C21   C32   A    
C17   C24   A    
C13   C39   S    
Cu2   O27   S    
C13   C19   A    
Cu3   Cu4   S    
Cu4   O7    S    
C15   C41   S    
C55   O7    A    
C7    Cl7   S    
C15   C26   A    
C4    N1    A    
C38   H10   S    
C40   O14   D    
C52   H8    S    
C16   C29   A    
C37   H9    S    
C6    N3    A    
C41   O15   D    
C16   C22   A    
C39   H11   S    
C11   C38   S    
C17   C43   S    
C18   C44   S    
Cu3   O6    S    
C9    C20   A    
C56   N2    A    
C7    N4    A    
C11   C27   A    
C41   H13   S    
C46   O19   D    
C4    Cl4   S    
Cu3   O3    S    
Cu1   O31   S    
C5    Cl5   S    
C23   C28   S    
C47   H3    S    
C8    Cl8   S    
C22   C49   S    
C45   O32   A    
Cu1   Cu2   S    
C44   O18   D    
Cu3   O8    S    
Cu4   N4    S    
C49   H5    S    
C18   C32   A    
C35   C45   S    
C16   C42   S    
C46   H2    S    
C36   H1    S    
C1    O1    A    
C24   C33   A    
C51   H7    S    
C38   O11   D    
C44   H16   S    
C42   O16   D    
Cu2   N2    S    
C5    C8    A    
C2    Cl2   S    
Cu1   N1    S    
C6    C7    A    
C52   O26   D    
Cu3   N3    S    
Cu4   O5    S    
C8    N3    A    
C6    Cl6   S    
C2    C3    A    
C1    C30   S    
Cu4   O4    S    
C14   C25   A    
C12   O12   A    
C20   C47   S    
C14   C40   S    
C26   C35   A    
C47   O20   D    
Cu2   O30   S    
C53   O2    A    
Cu1   O29   S    
C1    O27   A    
C31   C55   S    
C12   O23   A    
C9    C28   A    
C25   C33   A    
C49   O22   D    
C20   C31   A    
C3    Cl3   S    
