data_mof_unit_42399.cif
_audit_creation_date              2013-03-05T15:43:50-0500
_audit_creation_method            fapswitch 2.2
_symmetry_space_group_name_H-M    P1
_symmetry_Int_Tables_number       1
_space_group_crystal_system       triclinic
_cell_length_a                    10.057429
_cell_length_b                    10.744517
_cell_length_c                    15.378967
_cell_angle_alpha                 90.712024
_cell_angle_beta                  68.592191
_cell_angle_gamma                 90.045449
_cell_volume                      1547.09330971

loop_
_atom_site_label
_atom_site_type_symbol
_atom_site_description
_atom_site_fract_x
_atom_site_fract_y
_atom_site_fract_z
_atom_type_partial_charge
O1    O     O_R   0.386950 0.680940 0.500010 -0.615207
O2    O     O_R   0.613110 0.680900 0.499990 -0.617460
C1    C     C_R   0.498996 0.737256 0.502132 0.924324
O3    O     O_R   0.322330 0.500030 0.632270 -0.613546
O4    O     O_R   0.548480 0.499990 0.632240 -0.602028
C2    C     C_R   0.411198 0.496511 0.676003 0.855694
Zn1   Zn    Zn3+2 0.349000 0.500030 0.500020 1.012257
Zn2   Zn    Zn3+2 0.651000 0.499970 0.499980 1.016094
O5    O     O_R   0.386890 0.319100 0.500010 -0.569092
O6    O     O_R   0.613050 0.319060 0.499990 -0.566570
O7    O     O_R   0.451520 0.500010 0.367760 -0.582504
O8    O     O_R   0.677670 0.499970 0.367730 -0.581889
C3    C     C_R   0.501178 0.262756 0.497951 0.963133
C4    C     C_R   0.589127 0.498517 0.323866 0.890117
C5    C     C_R   0.360877 0.466335 0.775151 -0.061318
C6    C     C_R   0.644254 0.484308 0.222196 -0.075156
C7    C     C_R   0.194926 0.364064 0.910882 -0.211502
C8    C     C_R   0.227629 0.411179 0.821174 -0.189496
C9    C     C_R   0.460386 0.471984 0.818706 -0.204520
C10   C     C_R   0.436681 0.411611 0.902410 0.110856
C11   C     C_R   0.297697 0.367129 0.952882 0.146946
C12   C     C_R   0.543972 0.406523 0.941235 0.014552
C13   C     C_R   0.499797 0.394038 0.038962 0.012599
C14   C     C_R   0.360783 0.348539 0.089047 -0.152854
C15   C     C_R   0.263068 0.330409 0.045124 -0.185533
C16   C     C_R   0.692715 0.414397 0.887387 0.127642
C17   C     C_R   0.789102 0.437482 0.931606 -0.247919
C18   C     C_R   0.741442 0.450678 0.028391 0.132477
C19   C     C_R   0.596192 0.428221 0.082833 0.086465
C20   C     C_R   0.837213 0.485214 0.071694 -0.194286
C21   C     C_R   0.789131 0.500506 0.168395 -0.136983
C22   C     C_R   0.549271 0.449681 0.179053 -0.207499
H1    H     H_    0.157746 0.294824 0.084941 0.191351
H2    H     H_    0.437261 0.444390 0.221052 0.200509
H3    H     H_    0.864310 0.527316 0.200719 0.195953
H4    H     H_    0.901688 0.445621 0.890009 0.161410
H5    H     H_    0.090455 0.324368 0.946935 0.150154
H6    H     H_    0.150574 0.402633 0.787376 0.174200
H7    H     H_    0.557560 0.524224 0.786498 0.178994
H8    H     H_    0.326985 0.322755 0.161506 0.214400
H9    H     H_    0.948535 0.502420 0.030807 0.149812
C23   C     C_2   0.610434 0.067154 0.502923 -0.112256
C24   C     C_2   0.506162 0.131065 0.489203 -0.303342
H10   H     H_    0.696399 0.113211 0.517538 0.214357
H11   H     H_    0.424174 0.087933 0.468948 0.182695
C25   C     C_2   0.613668 0.933154 0.497376 -0.147357
C26   C     C_2   0.494256 0.868988 0.510871 -0.326537
H12   H     H_    0.715909 0.887313 0.483022 0.190382
H13   H     H_    0.389699 0.911999 0.530918 0.163500
C27   C     C_2   0.096508 0.416715 0.457483 0.264851
N1    N     N_2   0.148330 0.498670 0.499030 -0.249075
H14   H     H_    0.093362 0.581631 0.517259 0.128444
C28   C     C_2   0.959849 0.437760 0.440495 0.248160
N2    N     N_2   0.852680 0.498640 0.499000 -0.250661
H15   H     H_    0.864282 0.530061 0.559327 0.149809
N3    N     N_R   0.170948 0.301858 0.424203 0.257160
O9    O     O_R   0.102729 0.197443 0.448736 -0.372601
O10   O     O_R   0.292002 0.301592 0.354084 -0.389956
N4    N     N_R   0.949450 0.384816 0.357262 0.246004
O11   O     O_R   0.048954 0.408160 0.277087 -0.440846
O12   O     O_R   0.863015 0.292778 0.362815 -0.342705
I1    I     I_    0.788954 0.359940 0.743865 -0.404603

loop_
_geom_bond_atom_site_label_1
_geom_bond_atom_site_label_2
_geom_bond_distance
_ccdc_geom_bond_type
O4    Zn2   1.915559 S    
Zn1   O7    1.915558 S    
C13   C14   1.417440 A    
C20   H9    1.082467 S    
C22   H2    1.076629 S    
C17   H4    1.082354 S    
C6    C22   1.395423 A    
N2    H15   1.029336 S    
C5    C8    1.401729 A    
C9    C10   1.389669 A    
O8    C4    1.298685 A    
Zn2   O8    1.952001 S    
C18   C20   1.403768 A    
C27   N1    1.297577 D    
C28   N4    1.432677 S    
C14   C15   1.393229 A    
Zn1   N1    2.023872 S    
N4    O11   1.300481 A    
C26   H13   1.083962 S    
C7    H5    1.083144 S    
C28   N2    1.295266 D    
C10   C11   1.414550 A    
C6    C21   1.400389 A    
C5    C9    1.393640 A    
C24   H11   1.083998 S    
C16   C17   1.392984 A    
O4    C2    1.297258 A    
C23   H10   1.086891 S    
O3    Zn1   1.952004 S    
C9    H7    1.080837 S    
C1    C26   1.419289 S    
C18   C19   1.415932 A    
C14   H8    1.079384 S    
C10   C12   1.412500 A    
O2    C1    1.287617 A    
C19   C22   1.395516 A    
C21   H3    1.082707 S    
O1    Zn1   1.980603 S    
C16   I1    2.135481 S    
C20   C21   1.393395 A    
O7    C4    1.299646 A    
C4    C6    1.461793 S    
N4    O12   1.299022 A    
C27   C28   1.507494 S    
C15   H1    1.083921 S    
C23   C24   1.334970 D    
N1    H14   1.029664 S    
C25   H12   1.086767 S    
C13   C19   1.414503 A    
C3    C24   1.418860 S    
N3    O9    1.300793 A    
C7    C8    1.397729 A    
O3    C2    1.300832 A    
C12   C16   1.424096 A    
Zn2   N2    2.022991 S    
C17   C18   1.392607 A    
Zn1   O5    1.981288 S    
O5    C3    1.289488 A    
C25   C26   1.334555 D    
O2    Zn2   1.981287 S    
C11   C15   1.393685 A    
C23   C25   1.440922 S    
C2    C5    1.461134 S    
C8    H6    1.082570 S    
Zn2   O6    1.980603 S    
C27   N3    1.432287 S    
C12   C13   1.411259 A    
N3    O10   1.298719 A    
O1    C1    1.289328 A    
O6    C3    1.287291 A    
C7    C11   1.404788 A    
