data_mof_unit_19549.cif
_audit_creation_date              2012-12-10T20:27:52-0500
_audit_creation_method            fapswitch 2.2
_symmetry_space_group_name_H-M    P1
_symmetry_Int_Tables_number       1
_space_group_crystal_system       triclinic
_cell_length_a                    12.857457
_cell_length_b                    10.689677
_cell_length_c                    9.904321
_cell_angle_alpha                 90.268185
_cell_angle_beta                  97.013406
_cell_angle_gamma                 91.239114
_cell_volume                      1350.73203728

loop_
_atom_site_label
_atom_site_type_symbol
_atom_type_description
_atom_site_fract_x
_atom_site_fract_y
_atom_site_fract_z
_atom_type_partial_charge
C1    C     C_R   0.501488 0.260309 0.500126 0.957873
C2    C     C_R   0.026688 0.462344 0.555169 -0.052309
C3    C     C_R   0.975179 0.546787 0.459703 -0.176986
C4    C     C_R   0.868647 0.563987 0.455973 0.659661
C5    C     C_R   0.862356 0.417559 0.641646 -0.376970
C6    C     C_R   0.969595 0.401490 0.650991 0.029344
C7    C     C_R   0.491621 0.063285 0.617929 0.102323
C8    C     C_R   0.512784 0.128970 0.503172 -0.119072
C9    C     C_R   0.552126 0.066653 0.396219 -0.296591
C10   C     C_R   0.554529 0.937184 0.396672 0.692646
C11   C     C_R   0.518276 0.871765 0.505446 -0.226218
C12   C     C_R   0.298423 0.500347 0.473445 1.029904
C13   C     C_R   0.497794 0.936319 0.621316 -0.080538
C14   C     C_3   0.409314 0.922382 0.706126 -0.239400
C15   C     C_3   0.401449 0.064714 0.701621 -0.317439
C16   C     C_R   0.440098 0.414910 0.061012 -0.093105
C17   C     C_R   0.568413 0.573538 0.084938 0.772482
C18   C     C_R   0.570149 0.573489 0.940815 -0.129219
C19   C     C_R   0.440305 0.414712 0.918951 -0.046380
C20   C     C_3   0.324627 0.397364 0.893059 -0.369757
C21   C     C_3   0.323786 0.399445 0.045986 1.167746
C22   C     C_R   0.503907 0.739814 0.500892 0.921461
C23   C     C_R   0.701380 0.501095 0.526617 0.914280
C24   C     C_R   0.812866 0.496205 0.543563 -0.163682
C25   C     C_R   0.186598 0.507951 0.458436 -0.312750
C26   C     C_R   0.030170 0.610961 0.366846 -0.181187
C27   C     C_R   0.136187 0.592990 0.367454 0.591605
C28   C     C_R   0.132135 0.439703 0.547973 0.551384
H1    H     H_    0.423112 0.113357 0.800983 0.146225
H2    H     H_    0.285669 0.478909 0.841080 0.253883
H3    H     H_    0.302108 0.304665 0.846062 0.211185
H4    H     H_    0.816808 0.367737 0.710474 0.179529
H5    H     H_    0.991728 0.676470 0.295032 0.253339
H6    H     H_    0.576049 0.117017 0.310044 0.196998
H7    H     H_    0.340652 0.869618 0.652228 0.191019
N1    N     N_R   0.499290 0.499140 0.142710 -0.180573
N2    N     N_R   0.499290 0.499180 0.857070 -0.135100
O1    O     O_R   0.500010 0.316790 0.614690 -0.622165
O2    O     O_R   0.500000 0.316760 0.385350 -0.623388
O3    O     O_R   0.346360 0.499990 0.595720 -0.602608
O4    O     O_R   0.346350 0.499960 0.366370 -0.526288
O5    O     O_R   0.500000 0.683240 0.614650 -0.671781
O6    O     O_R   0.499990 0.683210 0.385310 -0.502056
O7    O     O_R   0.653650 0.500040 0.633630 -0.674599
O8    O     O_R   0.653640 0.500010 0.404280 -0.547099
Zn1   Zn    Zn3+2 0.500010 0.500020 0.653130 0.971896
Zn2   Zn    Zn3+2 0.499990 0.499980 0.346870 1.138366
F1    F     F_    0.818505 0.644852 0.365626 -0.589891
C29   C     C_2   0.445088 0.873808 0.845860 0.492913
H8    H     H_    0.515605 0.912035 0.904486 0.101559
O9    O     O_2   0.394809 0.790969 0.894468 -0.522378
C30   C     C_2   0.297092 0.104398 0.629806 0.541417
H9    H     H_    0.229849 0.104857 0.686126 0.107469
O10   O     O_2   0.285936 0.133753 0.509995 -0.503573
F2    F     F_    0.633605 0.650409 0.167062 -0.512132
C31   C     C_2   0.648533 0.655267 0.883809 0.472993
H10   H     H_    0.643152 0.675111 0.777438 0.115583
O11   O     O_2   0.722616 0.702538 0.956639 -0.477421
F3    F     F_    0.273639 0.502127 0.090873 -0.572440
F4    F     F_    0.291134 0.287142 0.097589 -0.626978
C32   C     C_2   0.016179 0.323440 0.764490 0.578374
H11   H     H_    0.978648 0.234988 0.785757 0.040812
O12   O     O_2   0.091353 0.361715 0.841700 -0.503210
F5    F     F_    0.190146 0.662066 0.283406 -0.570334
F6    F     F_    0.182396 0.348331 0.622726 -0.669281
F7    F     F_    0.586638 0.877175 0.288545 -0.569369

loop_
_geom_bond_atom_site_label_1
_geom_bond_atom_site_label_2
_ccdc_geom_bond_type
C17   C18   A    
C12   O3    A    
C23   C24   S    
C16   C21   S    
C21   F3    S    
C12   O4    A    
C23   O8    A    
C17   N1    A    
C22   O6    A    
C31   O11   D    
C25   C27   A    
C1    C8    S    
C9    C10   A    
C17   F2    S    
C11   C22   S    
C19   C20   S    
C18   C31   S    
C12   C25   S    
C30   H9    S    
C5    H4    S    
C7    C15   S    
C28   F6    S    
O4    Zn2   S    
C7    C8    A    
C20   H2    S    
C15   C30   S    
C16   N1    A    
C25   C28   A    
O3    Zn1   S    
C11   C13   A    
C26   C27   A    
C22   O5    A    
C5    C24   A    
C1    O1    A    
N1    Zn2   S    
C16   C19   A    
C5    C6    A    
C6    C32   S    
C18   N2    A    
C30   O10   D    
C9    H6    S    
C15   H1    S    
C2    C3    A    
C10   F7    S    
C4    F1    S    
C32   H11   S    
C4    C24   A    
O1    Zn1   S    
C14   C29   S    
C10   C11   A    
C1    O2    A    
C3    C4    A    
C7    C13   A    
C20   C21   S    
C21   F4    S    
O2    Zn2   S    
C29   H8    S    
O5    Zn1   S    
O8    Zn2   S    
C14   H7    S    
C31   H10   S    
C14   C15   S    
C2    C28   A    
C19   N2    A    
C29   O9    D    
N2    Zn1   S    
C13   C14   S    
O6    Zn2   S    
C27   F5    S    
C3    C26   A    
C23   O7    A    
C2    C6    A    
C26   H5    S    
O7    Zn1   S    
C8    C9    A    
C32   O12   D    
C20   H3    S    
