data_mof_unit_35977.cif
_audit_creation_date              2012-10-26T21:05:42-0400
_audit_creation_method            fapswitch 2.2
_symmetry_space_group_name_H-M    P1
_symmetry_Int_Tables_number       1
_space_group_crystal_system       triclinic
_cell_length_a                    12.962928
_cell_length_b                    9.087675
_cell_length_c                    7.835167
_cell_angle_alpha                 89.977357
_cell_angle_beta                  95.910623
_cell_angle_gamma                 89.998197
_cell_volume                      918.098203831

loop_
_atom_site_label
_atom_site_type_symbol
_atom_type_description
_atom_site_fract_x
_atom_site_fract_y
_atom_site_fract_z
_atom_type_partial_charge
C1    C     C_R   0.500075 0.220232 0.500035 0.544470
C2    C     C_R   0.868994 0.450142 0.710184 -0.060162
C3    C     C_R   0.125620 0.545380 0.561223 0.035162
C4    C     C_R   0.866695 0.419335 0.405995 -0.034657
C5    C     C_R   0.025353 0.490588 0.572288 -0.007731
C6    C     C_R   0.976090 0.415542 0.428855 -0.071856
C7    C     C_1   0.499983 0.065442 0.500023 -0.002139
C8    C     C_1   0.499932 0.934583 0.499958 0.002554
C9    C     C_2   0.811854 0.403206 0.233457 0.232440
C10   C     C_2   0.156079 0.688945 0.645414 0.300868
C11   C     C_2   0.835615 0.348223 0.841589 0.258838
C12   C     C_R   0.499960 0.779767 0.499972 0.568666
C13   C     C_2   0.217087 0.261863 0.254716 0.343797
C14   C     C_2   0.991552 0.202571 0.230057 0.229603
C15   C     C_2   0.028328 0.522423 0.897109 0.221725
C16   C     C_R   0.300223 0.497272 0.468381 0.565651
C17   C     C_R   0.699496 0.484118 0.530930 0.574331
C18   C     C_R   0.812408 0.453795 0.548001 0.022950
C19   C     C_R   0.188082 0.473164 0.449722 -0.015152
C20   C     C_R   0.037421 0.335082 0.321603 -0.005257
C21   C     C_R   0.973409 0.495953 0.723405 -0.040552
C22   C     C_R   0.145733 0.360820 0.337644 0.008613
Cu1   Cu    Cu3+1 0.500010 0.500000 0.669080 1.149636
Cu2   Cu    Cu3+1 0.499990 0.500000 0.330920 1.124976
H1    H     H_    0.824535 0.484476 0.136780 0.081942
H2    H     H_    0.104499 0.742898 0.726225 0.133491
H3    H     H_    0.888770 0.322240 0.951962 0.143926
H4    H     H_    0.275680 0.200374 0.333934 0.075899
H5    H     H_    0.924675 0.149354 0.275610 0.151868
H6    H     H_    0.984537 0.556100 0.001242 0.083015
N1    N     N_1   0.499980 0.500000 0.076820 -0.044937
N2    N     N_1   0.500020 0.500000 0.923180 -0.045384
O1    O     O_R   0.500000 0.288400 0.642760 -0.479950
O2    O     O_2   0.235226 0.753686 0.618020 -0.486447
O3    O     O_2   0.753566 0.281334 0.821359 -0.438592
O4    O     O_2   0.215048 0.255160 0.098885 -0.375582
O5    O     O_2   0.026421 0.151212 0.104148 -0.450956
O6    O     O_2   0.121466 0.502245 0.927419 -0.432911
O7    O     O_R   0.500000 0.711600 0.357240 -0.504284
O8    O     O_R   0.500000 0.288400 0.357240 -0.491104
O9    O     O_R   0.500000 0.711600 0.642760 -0.486415
O10   O     O_R   0.349000 0.500000 0.619590 -0.459960
O11   O     O_R   0.651000 0.500000 0.380410 -0.491912
O12   O     O_R   0.348990 0.500000 0.334020 -0.496271
O13   O     O_R   0.651010 0.500000 0.665980 -0.478796
O14   O     O_2   0.750735 0.302295 0.200874 -0.453416

loop_
_geom_bond_atom_site_label_1
_geom_bond_atom_site_label_2
_ccdc_geom_bond_type
Cu1   Cu2   S    
C17   O11   A    
C13   H4    S    
C3    C19   A    
C12   O9    A    
Cu1   O13   S    
C16   O10   A    
C2    C18   A    
C6    C20   A    
C16   O12   A    
N1    N2    T    
Cu1   O9    S    
C11   H3    S    
C8    C12   S    
C4    C18   A    
Cu1   N2    S    
C10   H2    S    
C2    C21   A    
C11   O3    D    
C17   C18   S    
Cu2   N1    S    
C9    H1    S    
C9    O14   D    
C15   O6    D    
C3    C10   S    
C14   O5    D    
Cu1   O10   S    
C15   H6    S    
C16   C19   S    
C2    C11   S    
C4    C6    A    
Cu2   O8    S    
C17   O13   A    
C13   C22   S    
C5    C6    A    
Cu2   O12   S    
C15   C21   S    
C14   H5    S    
C1    O1    A    
C14   C20   S    
C7    C8    T    
C19   C22   A    
C5    C21   A    
C13   O4    D    
C10   O2    D    
Cu2   O11   S    
C1    O8    A    
C3    C5    A    
C4    C9    S    
C1    C7    S    
Cu2   O7    S    
C12   O7    A    
C20   C22   A    
Cu1   O1    S    
