data_mof_unit_21816.cif
_audit_creation_date              2012-10-26T20:21:30-0400
_audit_creation_method            fapswitch 2.2
_symmetry_space_group_name_H-M    P1
_symmetry_Int_Tables_number       1
_space_group_crystal_system       triclinic
_cell_length_a                    10.808641
_cell_length_b                    9.528093
_cell_length_c                    11.6998
_cell_angle_alpha                 90.051289
_cell_angle_beta                  90.30437
_cell_angle_gamma                 92.312074
_cell_volume                      1203.91389188

loop_
_atom_site_label
_atom_site_type_symbol
_atom_type_description
_atom_site_fract_x
_atom_site_fract_y
_atom_site_fract_z
_atom_type_partial_charge
C1    C     C_R   0.262082 0.496523 0.500921 0.621669
C2    C     C_R   0.936095 0.500822 0.605052 0.141247
C3    C     C_R   0.936460 0.520684 0.394627 0.125800
C4    C     C_R   0.063166 0.473768 0.603978 0.184596
C5    C     C_R   0.872580 0.512050 0.499789 -0.086039
C6    C     C_R   0.127524 0.486359 0.499450 -0.066410
C7    C     C_R   0.426502 0.070961 0.425723 0.047082
C8    C     C_R   0.573036 0.929184 0.574547 0.037955
C9    C     C_R   0.573206 0.077851 0.574484 0.033896
C10   C     C_R   0.426641 0.922235 0.425600 0.045087
C11   C     C_R   0.737939 0.503247 0.499470 0.620622
C12   C     C_R   0.500253 0.499988 0.283940 0.596657
C13   C     C_R   0.499736 0.500023 0.716057 0.635312
C14   C     C_1   0.500106 0.499951 0.162298 0.109069
C15   C     C_1   0.499908 0.500086 0.837700 0.099360
C16   C     C_1   0.500034 0.499981 0.059859 0.072098
C17   C     C_1   0.499988 0.500046 0.940142 0.058512
C18   C     C_R   0.064111 0.495803 0.393891 0.128935
Cu1   Cu    Cu3+1 0.500000 0.640660 0.500000 1.069140
Cu2   Cu    Cu3+1 0.500000 0.359340 0.500000 1.068740
H1    H     H_    0.367532 0.124126 0.366261 0.164317
H2    H     H_    0.631164 0.876328 0.634593 0.144175
H3    H     H_    0.631938 0.136544 0.634225 0.149471
H4    H     H_    0.367820 0.863637 0.365953 0.119201
H5    H     H_    0.247427 0.655731 0.274546 0.321854
H6    H     H_    0.811701 0.750362 0.695567 0.339519
H7    H     H_    0.755994 0.373597 0.262892 0.328576
H8    H     H_    0.280276 0.262642 0.768994 0.364671
N1    N     N_R   0.500000 0.852070 0.500000 -0.232308
N2    N     N_R   0.500000 0.147930 0.500000 -0.238677
O1    O     O_R   0.319640 0.618740 0.499990 -0.529571
O2    O     O_2   0.054181 0.393586 0.176571 -0.105353
O3    O     O_3   0.206546 0.607161 0.208840 -0.455560
O4    O     O_2   0.786981 0.408207 0.774424 -0.232068
O5    O     O_2   0.946109 0.586706 0.828582 -0.130582
O6    O     O_3   0.758663 0.666975 0.715848 -0.530617
O7    O     O_2   0.758203 0.673575 0.293071 -0.272082
O8    O     O_2   0.946417 0.647646 0.186368 -0.112623
O9    O     O_3   0.794401 0.431070 0.201117 -0.450531
O10   O     O_2   0.205645 0.531149 0.788394 -0.257877
O11   O     O_2   0.048580 0.339781 0.809567 -0.150861
O12   O     O_R   0.680360 0.381260 0.500010 -0.516071
O13   O     O_3   0.242368 0.289124 0.695233 -0.511868
O14   O     O_R   0.680360 0.618740 0.500010 -0.443157
O15   O     O_R   0.319640 0.381260 0.499990 -0.420035
O16   O     O_R   0.500010 0.618790 0.337200 -0.492337
O17   O     O_R   0.499990 0.381210 0.662800 -0.491685
O18   O     O_R   0.499990 0.618790 0.662800 -0.469103
O19   O     O_R   0.500010 0.381210 0.337200 -0.502388
O20   O     O_2   0.241864 0.355324 0.282793 -0.306544
S1    S     S_3+6 0.142443 0.458133 0.263192 0.094460
S2    S     S_3+6 0.857900 0.538242 0.735576 0.093317
S3    S     S_3+6 0.858025 0.573597 0.266988 0.100775
S4    S     S_3+6 0.139508 0.409808 0.728938 0.088233

loop_
_geom_bond_atom_site_label_1
_geom_bond_atom_site_label_2
_ccdc_geom_bond_type
C8    C9    A    
C7    C10   A    
C2    C4    A    
O2    S1    D    
C5    C11   S    
Cu2   O19   S    
O3    S1    S    
O13   S4    S    
C8    H2    S    
Cu1   Cu2   S    
O6    S2    S    
O7    S3    D    
C12   O19   A    
Cu1   O16   S    
Cu1   O1    S    
C11   O14   A    
C7    N2    A    
Cu2   N2    S    
Cu2   O12   S    
C3    S3    S    
C10   N1    A    
C1    O15   A    
O9    S3    S    
O8    S3    D    
C2    S2    S    
C9    N2    A    
C3    C18   A    
C8    N1    A    
C12   O16   A    
C13   O17   A    
C12   C14   S    
C18   S1    S    
O20   S1    D    
O10   S4    D    
C13   C15   S    
C6    C18   A    
C14   C16   T    
O11   S4    D    
C2    C5    A    
H5    O3    S    
C1    C6    S    
Cu2   O17   S    
C1    O1    A    
Cu1   O14   S    
C11   O12   A    
C4    C6    A    
H6    O6    S    
O5    S2    D    
C15   C17   T    
Cu1   O18   S    
C9    H3    S    
H8    O13   S    
C10   H4    S    
C7    H1    S    
O4    S2    D    
C4    S4    S    
Cu2   O15   S    
H7    O9    S    
C16   C17   S    
C3    C5    A    
C13   O18   A    
Cu1   N1    S    
