data_mof_unit_59839.cif
_audit_creation_date              2012-12-10T17:52:06-0500
_audit_creation_method            fapswitch 2.2
_symmetry_space_group_name_H-M    P1
_symmetry_Int_Tables_number       1
_space_group_crystal_system       triclinic
_cell_length_a                    14.694205
_cell_length_b                    14.639523
_cell_length_c                    19.350104
_cell_angle_alpha                 76.739738
_cell_angle_beta                  102.951704
_cell_angle_gamma                 115.481236
_cell_volume                      3619.96207556

loop_
_atom_site_label
_atom_site_type_symbol
_atom_type_description
_atom_site_fract_x
_atom_site_fract_y
_atom_site_fract_z
_atom_type_partial_charge
C1    C     C_R   0.879853 0.311472 0.512011 0.820221
C2    C     C_R   0.120200 0.688287 0.488981 0.815685
C3    C     C_R   0.812393 0.201825 0.523413 -0.115729
C4    C     C_R   0.188687 0.796087 0.492680 -0.135472
C5    C     C_R   0.786636 0.022420 0.551402 0.276720
C6    C     C_R   0.220153 0.966370 0.512356 0.285019
C7    C     C_R   0.851375 0.126184 0.538605 -0.260444
C8    C     C_R   0.152066 0.867577 0.498024 -0.220919
C9    C     C_R   0.708248 0.172871 0.521481 -0.197354
C10   C     C_R   0.293247 0.823903 0.499428 -0.199902
C11   C     C_R   0.642912 0.070276 0.540548 0.032837
C12   C     C_R   0.363285 0.916089 0.522857 0.046632
C13   C     C_R   0.681728 0.994022 0.551312 0.074003
C14   C     C_R   0.326248 0.989860 0.525911 0.035521
C15   C     C_R   0.538395 0.041538 0.544494 -0.001692
C16   C     C_R   0.469575 0.938256 0.540539 0.000371
C17   C     C_R   0.510324 0.861751 0.556492 0.224195
C18   C     C_R   0.500381 0.111293 0.554534 0.245792
C19   C     C_R   0.615158 0.890913 0.561413 -0.269184
C20   C     C_R   0.395697 0.084775 0.544942 -0.283594
C21   C     C_R   0.709119 0.657052 0.372250 -0.318693
C22   C     C_R   0.298120 0.354758 0.632633 -0.317785
C23   C     C_R   0.999170 0.499311 0.632455 0.805306
C24   C     C_R   0.000534 0.500277 0.367539 0.799319
C25   C     C_R   0.792275 0.630033 0.393596 0.074629
C26   C     C_R   0.209615 0.371943 0.607238 0.066813
C27   C     C_R   0.719345 0.518076 0.494876 0.002634
C28   C     C_R   0.284015 0.489494 0.508250 0.013855
C29   C     C_R   0.633350 0.544202 0.476905 -0.020330
C30   C     C_R   0.376102 0.474396 0.530673 -0.027813
C31   C     C_R   0.628853 0.613476 0.413114 0.168512
C32   C     C_R   0.381971 0.406584 0.595149 0.167484
C33   C     C_R   0.551078 0.502300 0.518429 0.079507
C34   C     C_R   0.461818 0.523581 0.492017 0.068511
C35   C     C_R   0.461431 0.592975 0.427923 -0.244348
C36   C     C_R   0.555505 0.440693 0.585729 -0.262284
C37   C     C_R   0.543990 0.637997 0.390064 -0.194331
C38   C     C_R   0.471924 0.392324 0.622531 -0.207487
C39   C     C_R   0.070899 0.478927 0.761788 -0.194193
C40   C     C_R   0.927534 0.519645 0.238406 -0.192128
C41   C     C_R   0.067266 0.475837 0.833551 -0.217043
C42   C     C_R   0.929103 0.520134 0.166702 -0.216716
C43   C     C_R   0.988634 0.490171 0.853488 0.032395
C44   C     C_R   0.005455 0.502337 0.146537 0.031387
C45   C     C_R   0.911337 0.505644 0.799873 0.276264
C46   C     C_R   0.082601 0.485956 0.199916 0.276423
C47   C     C_R   0.916482 0.509829 0.727786 -0.258791
C48   C     C_R   0.079463 0.484354 0.271998 -0.256897
C49   C     C_R   0.995949 0.496569 0.708307 -0.062522
C50   C     C_R   0.002273 0.501141 0.291685 -0.064429
C51   C     C_R   0.001392 0.499156 0.070211 0.405459
C52   C     C_R   0.990975 0.491689 0.929795 0.405868
Cu1   Cu    Cu3+1 0.081740 0.475680 0.518680 0.933591
Cu2   Cu    Cu3+1 0.918260 0.524320 0.481320 0.934864
H1    H     H_    0.132919 0.468188 0.748239 0.156738
H2    H     H_    0.867199 0.533058 0.252070 0.158578
H3    H     H_    0.540391 0.691109 0.341251 0.139727
H4    H     H_    0.477899 0.343152 0.673086 0.144924
H5    H     H_    0.273858 0.541969 0.461268 0.121729
H6    H     H_    0.726709 0.462649 0.540721 0.128280
H7    H     H_    0.145624 0.333725 0.636962 0.126839
H8    H     H_    0.854337 0.663813 0.362122 0.126259
H9    H     H_    0.707239 0.711156 0.323768 0.137871
H10   H     H_    0.301494 0.302310 0.681831 0.139817
H11   H     H_    0.398317 0.614657 0.405446 0.131922
H12   H     H_    0.623101 0.428169 0.611446 0.138094
H13   H     H_    0.127429 0.464012 0.873512 0.164104
H14   H     H_    0.869152 0.532838 0.126982 0.164824
H15   H     H_    0.856841 0.521573 0.687151 0.147292
H16   H     H_    0.138789 0.471642 0.312460 0.149569
H17   H     H_    0.644092 0.831510 0.572862 0.185607
H18   H     H_    0.369429 0.139434 0.553551 0.166897
H19   H     H_    0.318583 0.772046 0.485853 0.190014
H20   H     H_    0.678426 0.231266 0.502700 0.193375
H21   H     H_    0.070659 0.845571 0.491083 0.167718
H22   H     H_    0.931929 0.147246 0.539797 0.156062
N1    N     N_R   0.038274 0.440635 0.981738 -0.251115
N2    N     N_R   0.953883 0.550017 0.018256 -0.251295
N3    N     N_R   0.042987 0.443953 0.050596 -0.191154
N4    N     N_R   0.949108 0.546653 0.949394 -0.191906
N5    N     N_R   0.795420 0.560800 0.453240 -0.176191
N6    N     N_R   0.204580 0.439200 0.546760 -0.176974
O1    O     O_R   0.977910 0.338110 0.524620 -0.582750
O2    O     O_R   0.022090 0.661890 0.475380 -0.584720
O3    O     O_R   0.839850 0.379180 0.493080 -0.580229
O4    O     O_R   0.160150 0.620820 0.506920 -0.574010
O5    O     O_R   0.069040 0.479450 0.615630 -0.587527
O6    O     O_R   0.930960 0.520550 0.384370 -0.587983
O7    O     O_R   0.930990 0.520520 0.584090 -0.586703
O8    O     O_R   0.069010 0.479480 0.415910 -0.588417
N7    N     N_2   0.827191 0.514972 0.817750 -0.416839
H23   H     H_    0.799540 0.562270 0.779478 0.247859
C53   C     C_3   0.746635 0.418058 0.839282 -0.672540
H24   H     H_    0.776417 0.372904 0.885648 0.239217
H25   H     H_    0.686518 0.432015 0.855648 0.230460
H26   H     H_    0.712250 0.373384 0.793838 0.207928
N8    N     N_2   0.164556 0.472958 0.181813 -0.416542
H27   H     H_    0.191511 0.425497 0.220475 0.248669
C54   C     C_3   0.246116 0.567902 0.158524 -0.667357
H28   H     H_    0.216714 0.613032 0.111913 0.238061
H29   H     H_    0.283006 0.613999 0.203105 0.210767
H30   H     H_    0.304106 0.550956 0.141885 0.230763
N9    N     N_2   0.827008 0.946804 0.562690 -0.446278
H31   H     H_    0.879034 0.962994 0.529085 0.253098
C55   C     C_3   0.863636 0.919096 0.636889 -0.713404
H32   H     H_    0.888042 0.855675 0.641472 0.230729
H33   H     H_    0.802223 0.892683 0.670522 0.240278
H34   H     H_    0.929812 0.985669 0.657005 0.228545
N10   N     N_2   0.184542 0.042922 0.513507 -0.432496
H35   H     H_    0.214915 0.110155 0.479190 0.249128
C56   C     C_3   0.079444 0.013609 0.520773 -0.722110
H36   H     H_    0.070233 0.080389 0.531285 0.229576
H37   H     H_    0.057130 0.951264 0.566807 0.243231
H38   H     H_    0.029148 0.989080 0.470420 0.219528
N11   N     N_2   0.449026 0.755649 0.574521 -0.445772
H39   H     H_    0.476818 0.706757 0.564620 0.255631
C57   C     C_3   0.417434 0.726981 0.644755 -0.650583
H40   H     H_    0.365555 0.644636 0.652159 0.232123
H41   H     H_    0.375787 0.772105 0.650381 0.239906
H42   H     H_    0.484904 0.739649 0.687061 0.218332
N12   N     N_2   0.565900 0.204525 0.581176 -0.450360
H43   H     H_    0.538234 0.260948 0.565484 0.258118
C58   C     C_3   0.603544 0.192811 0.657028 -0.688671
H44   H     H_    0.658597 0.268392 0.671889 0.215125
H45   H     H_    0.643515 0.140236 0.670305 0.245845
H46   H     H_    0.539473 0.162419 0.688776 0.225038

loop_
_geom_bond_atom_site_label_1
_geom_bond_atom_site_label_2
_ccdc_geom_bond_type
C15   C18   A    
C42   H14   S    
C5    N9    S    
C53   H24   S    
C27   C29   A    
C19   H17   S    
C56   H36   S    
C4    C8    A    
Cu2   O2    S    
N8    H27   S    
C58   H44   S    
C47   C49   A    
Cu1   Cu2   S    
C55   H33   S    
C22   C32   A    
C35   C37   A    
C26   H7    S    
C3    C7    A    
C27   H6    S    
C57   H41   S    
C10   H19   S    
C36   H12   S    
C43   C52   S    
C23   C49   S    
N7    C53   S    
C35   H11   S    
C15   C16   A    
C29   C33   A    
C33   C36   A    
C18   C20   A    
C34   C35   A    
C45   C47   A    
C47   H15   S    
C38   H4    S    
C11   C15   A    
N9    C55   S    
C39   H1    S    
C56   H37   S    
C12   C16   A    
C16   C17   A    
N11   C57   S    
C23   O7    A    
Cu1   O4    S    
C32   C38   A    
C5    C13   A    
C48   C50   A    
C26   N6    A    
C23   O5    A    
C25   N5    A    
C41   C43   A    
C42   C44   A    
N8    C54   S    
C44   C46   A    
N1    N3    A    
C1    O3    A    
C55   H34   S    
C46   C48   A    
N12   C58   S    
C30   C34   A    
C28   N6    A    
C14   C20   A    
C27   N5    A    
Cu2   O7    S    
C41   H13   S    
C57   H42   S    
N7    H23   S    
C5    C7    A    
C13   C19   A    
C58   H46   S    
C6    C8    A    
C40   H2    S    
C8    H21   S    
C31   C37   A    
C24   O8    A    
Cu1   N6    S    
C1    C3    S    
C2    C4    S    
C3    C9    A    
C6    C14   A    
C21   C31   A    
C54   H28   S    
C33   C34   A    
Cu1   O5    S    
C43   C45   A    
C24   C50   S    
N12   H43   S    
C10   C12   A    
C44   C51   S    
C39   C49   A    
C46   N8    S    
C12   C14   A    
C53   H26   S    
C9    C11   A    
C6    N10   S    
C9    H20   S    
C4    C10   A    
C52   N1    A    
N9    H31   S    
C17   N11   S    
C28   H5    S    
C21   C25   A    
C54   H29   S    
C24   O6    A    
C48   H16   S    
C2    O2    A    
Cu2   O3    S    
C7    H22   S    
C1    O1    A    
C55   H32   S    
Cu1   O1    S    
Cu2   O6    S    
N10   C56   S    
C51   N2    A    
C28   C30   A    
C29   C31   A    
C57   H40   S    
C36   C38   A    
C30   C32   A    
C11   C13   A    
C40   C50   A    
C40   C42   A    
C17   C19   A    
C2    O4    A    
C56   H38   S    
N2    N4    A    
C25   H8    S    
C45   N7    S    
C51   N3    A    
C21   H9    S    
C58   H45   S    
C18   N12   S    
C22   H10   S    
C54   H30   S    
C39   C41   A    
C53   H25   S    
C22   C26   A    
N10   H35   S    
Cu1   O8    S    
C20   H18   S    
C52   N4    A    
Cu2   N5    S    
C37   H3    S    
N11   H39   S    
