data_mof_unit_10577.cif
_audit_creation_date              2013-03-05T15:51:27-0500
_audit_creation_method            fapswitch 2.2
_symmetry_space_group_name_H-M    P1
_symmetry_Int_Tables_number       1
_space_group_crystal_system       triclinic
_cell_length_a                    6.933309
_cell_length_b                    23.299698
_cell_length_c                    25.726874
_cell_angle_alpha                 104.377343
_cell_angle_beta                  89.825186
_cell_angle_gamma                 90.248908
_cell_volume                      4025.81526237

loop_
_atom_site_label
_atom_site_type_symbol
_atom_site_description
_atom_site_fract_x
_atom_site_fract_y
_atom_site_fract_z
_atom_type_partial_charge
O1    O     O_R   0.494330 0.439230 0.438150 -0.576222
O2    O     O_R   0.820190 0.446230 0.546380 -0.612042
O3    O     O_R   0.994320 0.560770 0.561850 -0.590527
C1    C     C_R   0.651172 0.434091 0.563070 1.009560
O4    O     O_R   0.823790 0.432220 0.437600 -0.559512
O5    O     O_R   0.997940 0.546660 0.452300 -0.577676
C2    C     C_R   0.654502 0.414499 0.418463 1.080316
O6    O     O_R   0.490700 0.453340 0.547700 -0.577106
O7    O     O_3   0.662060 0.537560 0.504950 -0.268855
V1    V     V_3+5 0.935420 0.493030 0.499080 1.288804
O8    O     O_R   0.327880 0.553770 0.453620 -0.592119
C3    C     C_R   0.159108 0.564678 0.436042 0.997532
O9    O     O_R   0.324280 0.567780 0.562400 -0.567028
C4    C     C_R   0.155794 0.583356 0.583289 0.993213
V2    V     V_3+5 0.435890 0.506970 0.500920 1.298399
O10   O     O_3   0.159380 0.462440 0.495050 -0.247755
C5    C     C_R   0.946492 0.858795 0.828449 -0.084516
C6    C     C_R   0.085054 0.865618 0.869045 -0.169198
C7    C     C_R   0.236145 0.824689 0.863139 -0.121021
C8    C     C_R   0.251481 0.777078 0.817025 -0.042614
C9    C     C_R   0.113158 0.771101 0.775775 0.059398
C10   C     C_R   0.959891 0.812135 0.781951 0.157052
C11   C     C_R   0.397646 0.734263 0.812427 0.207491
C12   C     C_R   0.408279 0.686260 0.766647 0.217745
C13   C     C_R   0.276033 0.681338 0.723294 -0.145042
C14   C     C_R   0.125816 0.723968 0.728778 0.026785
C15   C     C_R   0.985950 0.719334 0.687638 0.043278
C16   C     C_R   0.834333 0.761291 0.694225 0.349506
C17   C     C_R   0.821581 0.806320 0.741596 -0.300208
C18   C     C_R   0.287469 0.635314 0.674829 0.391040
C19   C     C_R   0.147537 0.631063 0.634089 -0.316165
C20   C     C_R   0.997372 0.672146 0.641513 -0.085401
H1    H     H_    0.829214 0.890304 0.832820 0.121033
H2    H     H_    0.338675 0.829750 0.895580 0.176358
H3    H     H_    0.889627 0.666855 0.610390 0.190273
H4    H     H_    0.704772 0.838008 0.746313 0.178844
C21   C     C_R   0.252005 0.892476 0.133159 0.414398
C22   C     C_R   0.249628 0.858549 0.171308 -0.222132
H5    H     H_    0.377318 0.858211 0.195384 0.166096
C23   C     C_R   0.090227 0.823512 0.177178 0.054307
C24   C     C_R   0.930763 0.822543 0.143462 -0.097460
H6    H     H_    0.806814 0.794860 0.145816 0.133492
C25   C     C_R   0.929719 0.856851 0.105746 -0.091896
H7    H     H_    0.808202 0.852851 0.079123 0.196156
C26   C     C_R   0.085832 0.893935 0.100805 -0.320834
N1    N     N_R   0.948540 0.749318 0.220975 -0.070900
N2    N     N_R   0.956853 0.715564 0.255884 -0.069852
C27   C     C_R   0.112535 0.717607 0.288395 0.150298
N3    N     N_R   0.259184 0.755178 0.284571 -0.066011
N4    N     N_R   0.250942 0.788868 0.249661 -0.063191
C28   C     C_R   0.095840 0.786637 0.216952 0.155476
C29   C     C_R   0.281172 0.682041 0.361371 -0.093382
H8    H     H_    0.396004 0.713862 0.362064 0.137239
C30   C     C_R   0.292387 0.644507 0.396194 -0.096321
H9    H     H_    0.414147 0.649079 0.423215 0.163229
C31   C     C_R   0.147626 0.602184 0.396775 -0.300344
C32   C     C_R   0.990356 0.597757 0.360644 0.376568
C33   C     C_R   0.978759 0.636638 0.326861 -0.240442
H10   H     H_    0.858420 0.632311 0.299396 0.169784
C34   C     C_R   0.123747 0.678731 0.326392 0.052143
C35   C     C_R   0.463861 0.377476 0.618791 -0.048469
H11   H     H_    0.329713 0.391266 0.604270 0.134640
C36   C     C_R   0.456446 0.341443 0.655150 -0.115339
H12   H     H_    0.316774 0.328559 0.667497 0.118812
C37   C     C_R   0.626900 0.322453 0.675323 0.110224
C38   C     C_R   0.804769 0.340492 0.658004 -0.099787
H13   H     H_    0.939162 0.326837 0.672487 0.121179
C39   C     C_R   0.812202 0.376307 0.621594 -0.118928
H14   H     H_    0.952124 0.389210 0.609411 0.135528
C40   C     C_R   0.641965 0.395371 0.601421 -0.127124
N5    N     N_R   0.785165 0.267963 0.734996 -0.057503
N6    N     N_R   0.780110 0.232881 0.768823 -0.037577
C41   C     C_R   0.609896 0.211670 0.782830 0.199844
N7    N     N_R   0.444499 0.228279 0.762372 -0.043456
N8    N     N_R   0.449542 0.263458 0.728572 -0.061213
C42   C     C_R   0.620160 0.283879 0.713857 0.124622
C43   C     C_R   0.445455 0.175920 0.855660 -0.073834
H15   H     H_    0.327853 0.205959 0.854289 0.142676
C44   C     C_R   0.436612 0.141550 0.893220 -0.113064
H16   H     H_    0.311608 0.145432 0.919198 0.132616
C45   C     C_R   0.588246 0.103399 0.897818 -0.177384
C46   C     C_R   0.747368 0.099579 0.863165 -0.261736
H17   H     H_    0.862398 0.068824 0.865004 0.171882
C47   C     C_R   0.754825 0.132130 0.823709 0.367313
C48   C     C_R   0.603887 0.172262 0.820656 -0.067768
C49   C     C_R   0.428532 0.137413 0.173006 0.351397
C50   C     C_R   0.577350 0.131528 0.133918 -0.323318
C51   C     C_R   0.731508 0.171611 0.142933 -0.184613
C52   C     C_R   0.743433 0.216693 0.190183 0.199928
C53   C     C_R   0.596973 0.222929 0.229606 0.012714
C54   C     C_R   0.437355 0.183041 0.221657 -0.138817
C55   C     C_R   0.901988 0.255497 0.198629 -0.170141
C56   C     C_R   0.916971 0.300481 0.245665 -0.180568
C57   C     C_R   0.772810 0.307937 0.285012 0.133909
C58   C     C_R   0.612041 0.269267 0.277193 0.047138
C59   C     C_R   0.468221 0.276580 0.317165 -0.064573
C60   C     C_R   0.313597 0.236532 0.309606 -0.206107
C61   C     C_R   0.295838 0.190580 0.263271 0.352161
C62   C     C_R   0.786982 0.353863 0.331816 -0.136084
C63   C     C_R   0.642238 0.362710 0.371235 -0.322850
C64   C     C_R   0.483844 0.322995 0.364499 0.315854
H18   H     H_    0.842079 0.168114 0.112440 0.165679
H19   H     H_    0.015807 0.250726 0.168904 0.134730
H20   H     H_    0.041629 0.329583 0.251233 0.145835
H21   H     H_    0.909800 0.383594 0.337057 0.204714
H22   H     H_    0.203840 0.240206 0.340208 0.212850
O11   O     O_R   0.738220 0.046730 0.952360 -0.611833
O12   O     O_R   0.404950 0.067790 0.062410 -0.570523
O13   O     O_R   0.230980 0.953320 0.047680 -0.545211
C65   C     C_R   0.572575 0.083551 0.083270 1.034413
O14   O     O_R   0.408720 0.053790 0.953630 -0.607365
O15   O     O_R   0.234780 0.939210 0.938130 -0.604982
C66   C     C_R   0.577829 0.065820 0.936952 0.924043
O16   O     O_R   0.734430 0.060840 0.061910 -0.566782
O17   O     O_3   0.566930 0.962480 0.995080 -0.234868
V3    V     V_3+5 0.293490 0.006960 0.000910 1.254056
O18   O     O_R   0.904820 0.932150 0.937550 -0.591663
C67   C     C_R   0.073893 0.915588 0.917566 0.926621
O19   O     O_R   0.901050 0.946150 0.046320 -0.554742
C68   C     C_R   0.071195 0.933463 0.062721 1.035614
V4    V     V_3+5 0.793050 0.992940 0.999010 1.262258
O20   O     O_3   0.069480 0.037520 0.004920 -0.274888
N9    N     N_R   0.847504 0.551895 0.355164 0.233627
O21   O     O_R   0.901432 0.497074 0.347725 -0.439623
O22   O     O_R   0.667833 0.563053 0.347146 -0.418526
N10   N     N_R   0.909418 0.120752 0.785173 0.232948
O23   O     O_R   0.872451 0.113451 0.734379 -0.346452
O24   O     O_R   0.079087 0.106296 0.799144 -0.407272
N11   N     N_R   0.271850 0.096131 0.163030 0.253018
O25   O     O_R   0.289212 0.045016 0.174238 -0.322972
O26   O     O_R   0.120380 0.106858 0.137373 -0.398168
N12   N     N_R   0.531177 0.737238 0.855608 0.254892
O27   O     O_R   0.654258 0.780694 0.868463 -0.407803
O28   O     O_R   0.537040 0.694751 0.880188 -0.303523
N13   N     N_R   0.344272 0.328202 0.406753 0.234049
O29   O     O_R   0.167339 0.342786 0.399557 -0.410813
O30   O     O_R   0.397592 0.322904 0.453780 -0.405922
Br1   Br    Br    0.072027 0.141350 0.264023 -0.392769
N14   N     N_R   0.551617 0.641990 0.766111 0.280888
O31   O     O_R   0.501045 0.592168 0.776534 -0.284187
O32   O     O_R   0.733600 0.656033 0.766790 -0.339257
N15   N     N_R   0.438152 0.592069 0.666597 0.245885
O33   O     O_R   0.396806 0.537041 0.664647 -0.389877
O34   O     O_R   0.608712 0.605537 0.651979 -0.381837
N16   N     N_R   0.693606 0.759748 0.653001 0.239873
O35   O     O_R   0.749461 0.760367 0.604809 -0.380383
O36   O     O_R   0.513191 0.770023 0.665927 -0.399597
N17   N     N_R   0.428838 0.922005 0.126442 0.238195
O37   O     O_R   0.517151 0.906963 0.080510 -0.412248
O38   O     O_R   0.528183 0.948357 0.168522 -0.342321

loop_
_geom_bond_atom_site_label_1
_geom_bond_atom_site_label_2
_geom_bond_distance
_ccdc_geom_bond_type
C35   C40   1.408223 A    
C38   C39   1.401402 A    
C9    C14   1.420012 A    
C36   C37   1.408588 A    
C56   C57   1.400674 A    
O17   V4    1.710977 S    
C10   C17   1.396749 A    
C24   H6    1.082813 S    
C58   C59   1.410342 A    
C4    C19   1.491826 S    
C1    O6    1.300182 A    
C1    C40   1.494206 S    
N16   O35   1.301233 A    
C53   C54   1.424202 A    
N9    O21   1.300102 A    
C50   C65   1.491679 S    
C43   H15   1.083209 S    
C17   H4    1.084346 S    
C14   C15   1.421571 A    
N10   O23   1.301364 A    
C37   C42   1.494842 S    
V3    O20   1.703528 S    
C61   Br1   1.928573 S    
C16   C17   1.399646 A    
N17   O38   1.301628 A    
C49   C54   1.428153 A    
O5    C3    1.296192 A    
N5    C42   1.360051 A    
N9    O22   1.301138 A    
C33   C34   1.403499 A    
O17   V3    2.151494 S    
C60   C61   1.395855 A    
C31   C32   1.421718 A    
C6    C7    1.402013 A    
C41   N7    1.360326 A    
C35   C36   1.404202 A    
O18   V4    1.999163 S    
O11   C66   1.298524 A    
C29   C34   1.406371 A    
O13   V3    1.984073 S    
C30   H9    1.083190 S    
O16   V4    2.004220 S    
O8    V2    1.975415 S    
C7    C8    1.412802 A    
N12   O27   1.300268 A    
N2    C27   1.360960 A    
C11   C12   1.410519 A    
O14   V3    1.988464 S    
O1    V2    1.999723 S    
O9    C4    1.299280 A    
O7    V1    2.151497 S    
C6    C67   1.482637 S    
C55   H19   1.083879 S    
C64   N13   1.435965 S    
C38   H13   1.082526 S    
C43   C48   1.407655 A    
C21   N17   1.434167 S    
C59   C64   1.417723 A    
C24   C25   1.402080 A    
C35   H11   1.082687 S    
C5    H1    1.084627 S    
C56   H20   1.083840 S    
N16   O36   1.301198 A    
C29   C30   1.401270 A    
C27   C34   1.490936 S    
O19   V4    1.975416 S    
C12   N14   1.433019 S    
C47   N10   1.437879 S    
C22   H5    1.083203 S    
C62   H21   1.082744 S    
N14   O31   1.301090 A    
C30   C31   1.406651 A    
C2    C63   1.487019 S    
C20   H3    1.080827 S    
N13   O29   1.300330 A    
C12   C13   1.428163 A    
N7    N8    1.335184 A    
O4    C2    1.299563 A    
C49   C50   1.421659 A    
C39   H14   1.082667 S    
N4    C28   1.360359 A    
C13   C14   1.424672 A    
N1    C28   1.358722 A    
C45   C46   1.405449 A    
C44   H16   1.083106 S    
O2    C1    1.300756 A    
N8    C42   1.360487 A    
C21   C22   1.404798 A    
C32   N9    1.435106 S    
C62   C63   1.403505 A    
C8    C11   1.409124 A    
O19   C68   1.313413 A    
C59   C60   1.400100 A    
C8    C9    1.413160 A    
C5    C6    1.400481 A    
C16   N16   1.437069 S    
C43   C44   1.400831 A    
O14   C66   1.300464 A    
C47   C48   1.421670 A    
C52   C55   1.402995 A    
C25   C26   1.407074 A    
C41   C48   1.494975 S    
V4    O20   2.163638 S    
C3    C31   1.493324 S    
O3    C4    1.299632 A    
C60   H22   1.081523 S    
C26   C68   1.506003 S    
C39   C40   1.408030 A    
C27   N3    1.358025 A    
N3    N4    1.332989 A    
O6    V2    1.976863 S    
C46   C47   1.410654 A    
O9    V2    1.999289 S    
C25   H7    1.076468 S    
N15   O34   1.300382 A    
O11   V4    1.977255 S    
C21   C26   1.428849 A    
O2    V1    1.988356 S    
O15   V3    1.999617 S    
C29   H8    1.082718 S    
C44   C45   1.403743 A    
N11   O25   1.299231 A    
C13   C18   1.430709 A    
N13   O30   1.301132 A    
C65   O16   1.303185 A    
N1    N2    1.334134 A    
C23   C24   1.403997 A    
N10   O24   1.301010 A    
C15   C20   1.405522 A    
O1    C2    1.295768 A    
C19   C20   1.397636 A    
N6    C41   1.359276 A    
C7    H2    1.081584 S    
C53   C58   1.420842 A    
O5    V1    1.984106 S    
C51   H18   1.083931 S    
O8    C3    1.304311 A    
C49   N11   1.428692 S    
C23   C28   1.491270 S    
C5    C10   1.405667 A    
C18   N15   1.432966 S    
O12   V3    1.998412 S    
C33   H10   1.083081 S    
O4    V1    1.998314 S    
O3    V1    1.999588 S    
V1    O10   1.703471 S    
O18   C67   1.299654 A    
C22   C23   1.401086 A    
N14   O32   1.301186 A    
C32   C33   1.405210 A    
C18   C19   1.415437 A    
C57   C62   1.401614 A    
C55   C56   1.394149 A    
O12   C65   1.294524 A    
C11   N12   1.436485 S    
N17   O37   1.298428 A    
C37   C38   1.407535 A    
C54   C61   1.428792 A    
O7    V2    1.712393 S    
C57   C58   1.413287 A    
C36   H12   1.082474 S    
N5    N6    1.334016 A    
C51   C52   1.397714 A    
C50   C51   1.397727 A    
N12   O28   1.301110 A    
C46   H17   1.083442 S    
C45   C66   1.490732 S    
C15   C16   1.419499 A    
O15   C67   1.296443 A    
N15   O33   1.301345 A    
C63   C64   1.415989 A    
C52   C53   1.415189 A    
C9    C10   1.414532 A    
V2    O10   2.163640 S    
O13   C68   1.293420 A    
N11   O26   1.299813 A    
