data_mof_unit_54780.cif
_audit_creation_date              2012-12-10T20:27:15-0500
_audit_creation_method            fapswitch 2.2
_symmetry_space_group_name_H-M    P1
_symmetry_Int_Tables_number       1
_space_group_crystal_system       triclinic
_cell_length_a                    10.78955
_cell_length_b                    10.690625
_cell_length_c                    9.892524
_cell_angle_alpha                 89.512713
_cell_angle_beta                  104.137295
_cell_angle_gamma                 90.621996
_cell_volume                      1106.42851507

loop_
_atom_site_label
_atom_site_type_symbol
_atom_type_description
_atom_site_fract_x
_atom_site_fract_y
_atom_site_fract_z
_atom_type_partial_charge
C1    C     C_R   0.504363 0.259852 0.501460 0.889592
C2    C     C_R   0.600088 0.547856 0.098993 -0.132749
C3    C     C_R   0.599482 0.551063 0.955556 0.437634
C4    C     C_R   0.259041 0.504015 0.441690 0.955426
C5    C     C_R   0.392631 0.466100 0.900724 0.048142
C6    C     C_3   0.324334 0.342789 0.880121 0.267621
C7    C     C_3   0.324906 0.342665 0.034338 -0.538767
C8    C     C_R   0.505188 0.739927 0.500772 0.867021
C9    C     C_R   0.741109 0.504267 0.558207 0.938608
C10   C     C_2   0.122414 0.519017 0.408437 -0.358098
C11   C     C_2   0.068417 0.549739 0.510921 -0.114940
C12   C     C_R   0.526632 0.128468 0.506693 -0.106328
C13   C     C_2   0.877998 0.520896 0.590785 -0.333589
C14   C     C_2   0.932238 0.547340 0.486394 -0.161070
C15   C     C_R   0.539974 0.062341 0.631265 0.143182
C16   C     C_R   0.540593 0.065919 0.386984 -0.216031
C17   C     C_R   0.541419 0.936533 0.386516 -0.217309
C18   C     C_R   0.528359 0.871152 0.505783 -0.099776
C19   C     C_R   0.540893 0.934548 0.630688 0.134821
C20   C     C_3   0.464039 0.923656 0.736972 -0.469564
C21   C     C_3   0.462454 0.065162 0.737314 -0.493698
C22   C     C_R   0.393088 0.465289 0.043207 0.117086
H1    H     H_    0.876629 0.557135 0.379239 0.184508
H2    H     H_    0.541056 0.115505 0.291152 0.170150
H3    H     H_    0.542093 0.888888 0.290484 0.174836
H4    H     H_    0.368048 0.880846 0.694961 0.210705
H5    H     H_    0.519868 0.882531 0.836628 0.209157
H6    H     H_    0.365362 0.103859 0.694721 0.221929
H7    H     H_    0.667138 0.648191 0.827036 0.370411
H8    H     H_    0.155603 0.420824 0.820604 0.330944
H9    H     H_    0.517483 0.105160 0.837705 0.197311
H10   H     H_    0.680965 0.586118 0.174816 0.162905
H11   H     H_    0.382338 0.268263 0.850749 0.137492
H12   H     H_    0.228836 0.351416 0.055548 0.212805
H13   H     H_    0.385393 0.267954 0.095041 0.186259
H14   H     H_    0.124374 0.566701 0.616622 0.190094
H15   H     H_    0.934047 0.510544 0.697607 0.162474
H16   H     H_    0.066096 0.502649 0.302779 0.155196
N1    N     N_R   0.499160 0.499140 0.142600 -0.128653
N2    N     N_R   0.499160 0.499180 0.856960 -0.175944
O1    O     O_R   0.500020 0.316790 0.614700 -0.612528
O2    O     O_3   0.201183 0.349937 0.790674 -0.733203
O3    O     O_R   0.500000 0.316760 0.385350 -0.619295
O4    O     O_R   0.317820 0.500020 0.571850 -0.587065
O5    O     O_R   0.317800 0.499980 0.342510 -0.609634
O6    O     O_R   0.500000 0.683240 0.614650 -0.649197
O7    O     O_R   0.499980 0.683210 0.385300 -0.620058
O8    O     O_R   0.682200 0.500020 0.657490 -0.603733
O9    O     O_R   0.682180 0.499980 0.428150 -0.625841
O10   O     O_3   0.700769 0.609019 0.919110 -0.774245
Zn1   Zn    Zn3+2 0.500010 0.500020 0.653140 0.960094
Zn2   Zn    Zn3+2 0.499990 0.499980 0.346860 0.944910

loop_
_geom_bond_atom_site_label_1
_geom_bond_atom_site_label_2
_ccdc_geom_bond_type
C14   H1    S    
C6    H11   S    
O7    Zn2   S    
C20   H5    S    
N2    Zn1   S    
C13   H15   S    
C19   C20   S    
C12   C15   A    
C10   H16   S    
O9    Zn2   S    
C17   H3    S    
C2    C3    A    
C8    O7    A    
C16   H2    S    
C13   C14   D    
C15   C19   A    
C21   H9    S    
C6    C7    S    
C1    C12   S    
C20   H4    S    
C22   N1    A    
C2    N1    A    
O4    Zn1   S    
C1    O1    A    
C11   H14   S    
C7    H12   S    
C21   H6    S    
O1    Zn1   S    
C3    N2    A    
N1    Zn2   S    
H7    O10   S    
C17   C18   A    
C5    C6    S    
C11   C14   S    
C8    O6    A    
O3    Zn2   S    
C10   C11   D    
C4    C10   S    
C4    O5    A    
C7    C22   S    
C3    O10   S    
C15   C21   S    
C9    O9    A    
C20   C21   S    
C9    O8    A    
C2    H10   S    
C18   C19   A    
C6    O2    S    
C5    N2    A    
C9    C13   S    
H8    O2    S    
C4    O4    A    
O5    Zn2   S    
C7    H13   S    
O6    Zn1   S    
C1    O3    A    
O8    Zn1   S    
C8    C18   S    
C5    C22   A    
C12   C16   A    
C16   C17   A    
