data_mof_unit_13773.cif
_audit_creation_date              2012-12-10T20:20:47-0500
_audit_creation_method            fapswitch 2.2
_symmetry_space_group_name_H-M    P1
_symmetry_Int_Tables_number       1
_space_group_crystal_system       triclinic
_cell_length_a                    19.034641
_cell_length_b                    18.611767
_cell_length_c                    10.782993
_cell_angle_alpha                 88.50644
_cell_angle_beta                  91.812382
_cell_angle_gamma                 89.150977
_cell_volume                      3816.39670297

loop_
_atom_site_label
_atom_site_type_symbol
_atom_type_description
_atom_site_fract_x
_atom_site_fract_y
_atom_site_fract_z
_atom_type_partial_charge
C1    C     C_R   0.365724 0.500117 0.501331 0.902583
C2    C     C_R   0.634601 0.499200 0.494651 0.906246
C3    C     C_R   0.822504 0.516280 0.388053 -0.078322
C4    C     C_R   0.172005 0.504882 0.560248 -0.074100
C5    C     C_R   0.749489 0.531032 0.394983 -0.049345
C6    C     C_R   0.244963 0.512848 0.582122 -0.047309
C7    C     C_R   0.710955 0.493236 0.485374 -0.140158
C8    C     C_R   0.290279 0.498050 0.485205 -0.118215
C9    C     C_R   0.962056 0.442359 0.331708 -0.213764
C10   C     C_R   0.034251 0.452339 0.331496 -0.119301
C11   C     C_R   0.074063 0.444134 0.442814 0.136141
C12   C     C_R   0.928222 0.436196 0.445246 0.142367
C13   C     C_R   0.041375 0.417729 0.548989 -0.218368
C14   C     C_R   0.968800 0.419563 0.553304 -0.107601
C15   C     C_R   0.559185 0.726204 0.542165 0.051838
C16   C     C_R   0.439204 0.729915 0.473559 0.034035
C17   C     C_R   0.560253 0.803213 0.542831 -0.123349
C18   C     C_R   0.438558 0.806682 0.474509 -0.121622
C19   C     C_R   0.499811 0.844118 0.506767 -0.000940
C20   C     C_R   0.475974 0.966003 0.400081 -0.211494
C21   C     C_R   0.523175 0.963497 0.610000 -0.209467
C22   C     C_R   0.497125 0.500547 0.260099 0.878521
C23   C     C_R   0.500339 0.499314 0.739368 0.896412
C24   C     C_R   0.471325 0.041673 0.400289 -0.000944
C25   C     C_R   0.528409 0.038944 0.606468 -0.003076
C26   C     C_R   0.499933 0.079376 0.502653 -0.008082
C27   C     C_R   0.499827 0.925771 0.505648 0.103655
C28   C     C_R   0.467162 0.198337 0.595055 -0.269330
C29   C     C_R   0.532814 0.199453 0.407312 -0.271056
C30   C     C_R   0.467689 0.273738 0.592401 0.013885
C31   C     C_R   0.532396 0.274839 0.408449 0.015992
C32   C     C_R   0.499931 0.160142 0.501547 0.118021
C33   C     C_R   0.476254 0.559545 0.055303 0.141672
C34   C     C_R   0.481317 0.559495 0.931838 0.151588
C35   C     C_R   0.495054 0.499507 0.128206 -0.115991
C36   C     C_R   0.499983 0.498257 0.870151 -0.114615
C37   C     C_R   0.515240 0.436063 0.068436 -0.243634
C38   C     C_R   0.517132 0.435298 0.939580 -0.258349
C39   C     C_3   0.455350 0.634888 0.912349 -0.477349
C40   C     C_3   0.448589 0.635002 0.053041 -0.534750
C41   C     C_R   0.743162 0.437205 0.555963 -0.306888
C42   C     C_R   0.264834 0.470028 0.374170 -0.302720
C43   C     C_R   0.810982 0.414347 0.533610 0.458916
C44   C     C_R   0.195118 0.450500 0.360548 0.465367
C45   C     C_R   0.852779 0.455454 0.454230 -0.079902
C46   C     C_R   0.147675 0.468051 0.453086 -0.085445
H1    H     H_    0.530559 0.387478 0.120504 0.171720
H2    H     H_    0.532619 0.386238 0.895168 0.175303
H3    H     H_    0.457965 0.938087 0.318527 0.143066
H4    H     H_    0.540439 0.933819 0.693245 0.145666
H5    H     H_    0.441037 0.169981 0.669019 0.135491
H6    H     H_    0.559020 0.171961 0.334073 0.135525
H7    H     H_    0.442163 0.302941 0.664282 0.121336
H8    H     H_    0.558191 0.304841 0.336194 0.117623
H9    H     H_    0.495321 0.673266 0.881269 0.183491
H10   H     H_    0.392473 0.638156 0.076556 0.192517
H11   H     H_    0.404463 0.638600 0.859375 0.220424
H12   H     H_    0.484838 0.672610 0.100353 0.212693
H13   H     H_    0.713432 0.406660 0.622814 0.171635
H14   H     H_    0.300641 0.457822 0.300992 0.151274
H15   H     H_    0.932227 0.447508 0.244964 0.143539
H16   H     H_    0.057426 0.470493 0.246174 0.181485
H17   H     H_    0.071701 0.403627 0.632787 0.139305
H18   H     H_    0.945391 0.412726 0.642845 0.180144
N1    N     N_R   0.500000 0.689440 0.500000 -0.132294
N2    N     N_R   0.500000 0.310560 0.500000 -0.092611
O1    O     O_R   0.398180 0.560840 0.499970 -0.604882
O2    O     O_R   0.601820 0.560840 0.500030 -0.595148
O3    O     O_R   0.398180 0.439210 0.499910 -0.629468
O4    O     O_R   0.601820 0.439210 0.500090 -0.630548
O5    O     O_R   0.499990 0.560820 0.316770 -0.613354
O6    O     O_R   0.500010 0.560820 0.683230 -0.632517
O7    O     O_R   0.499990 0.439200 0.316710 -0.637732
O8    O     O_R   0.500010 0.439200 0.683290 -0.632566
Zn1   Zn    Zn3+2 0.500000 0.581210 0.500000 0.951620
Zn2   Zn    Zn3+2 0.500000 0.418790 0.500000 0.927717
C47   C     C_R   0.623807 0.688105 0.592488 0.190007
C48   C     C_R   0.688180 0.698471 0.534978 -0.131675
C49   C     C_R   0.750799 0.669333 0.587743 -0.137325
C50   C     C_R   0.749673 0.628291 0.697581 -0.099320
C51   C     C_R   0.686492 0.619238 0.757561 -0.181799
C52   C     C_R   0.624539 0.651152 0.707578 -0.125904
H19   H     H_    0.689749 0.732142 0.452010 0.118717
H20   H     H_    0.800279 0.678683 0.543880 0.119925
H21   H     H_    0.797878 0.604725 0.737370 0.125362
H22   H     H_    0.685877 0.588619 0.843948 0.133606
H23   H     H_    0.577920 0.648298 0.759828 0.130905
C53   C     C_R   0.371284 0.696155 0.443979 0.202293
C54   C     C_R   0.314776 0.702116 0.524332 -0.138478
C55   C     C_R   0.246930 0.683858 0.483804 -0.141768
C56   C     C_R   0.235432 0.657581 0.364820 -0.084072
C57   C     C_R   0.291673 0.650254 0.285805 -0.169935
C58   C     C_R   0.359064 0.670328 0.325378 -0.135986
H24   H     H_    0.322816 0.723997 0.615693 0.108676
H25   H     H_    0.203065 0.690871 0.543852 0.122324
H26   H     H_    0.183030 0.642981 0.333906 0.120962
H27   H     H_    0.282691 0.630374 0.193492 0.118283
H28   H     H_    0.402456 0.668008 0.265097 0.129052
C59   C     C_R   0.625159 0.841454 0.582384 0.122882
C60   C     C_R   0.649340 0.837777 0.707014 -0.160819
C61   C     C_R   0.709087 0.875347 0.744286 -0.122234
C62   C     C_R   0.745013 0.916843 0.657751 -0.104117
C63   C     C_R   0.721405 0.920643 0.533661 -0.147293
C64   C     C_R   0.661762 0.883047 0.495848 -0.145078
H29   H     H_    0.621366 0.806601 0.775228 0.113714
H30   H     H_    0.727335 0.872575 0.840397 0.121763
H31   H     H_    0.791114 0.946119 0.686878 0.118853
H32   H     H_    0.749250 0.952856 0.466801 0.121418
H33   H     H_    0.643799 0.886528 0.399533 0.121341
C65   C     C_R   0.372122 0.848118 0.445848 0.132434
C66   C     C_R   0.342425 0.850555 0.324787 -0.155642
C67   C     C_R   0.280847 0.890547 0.297926 -0.121575
C68   C     C_R   0.248571 0.928350 0.391461 -0.108787
C69   C     C_R   0.277741 0.926103 0.512115 -0.146120
C70   C     C_R   0.339263 0.886092 0.539463 -0.138589
H34   H     H_    0.367483 0.822240 0.251230 0.117186
H35   H     H_    0.258308 0.892474 0.204470 0.122253
H36   H     H_    0.200992 0.959445 0.370422 0.117682
H37   H     H_    0.252716 0.955443 0.584434 0.121593
H38   H     H_    0.361486 0.884780 0.633226 0.118501
C71   C     C_R   0.432727 0.079582 0.295378 0.135508
C72   C     C_R   0.377200 0.127718 0.318243 -0.116848
C73   C     C_R   0.340759 0.163393 0.219777 -0.147824
C74   C     C_R   0.358532 0.150550 0.097591 -0.111427
C75   C     C_R   0.412509 0.101647 0.073725 -0.136675
C76   C     C_R   0.449354 0.066026 0.172029 -0.186996
H39   H     H_    0.361829 0.137369 0.412263 0.123845
H40   H     H_    0.298542 0.200760 0.238289 0.121088
H41   H     H_    0.330178 0.178131 0.021395 0.118672
H42   H     H_    0.425634 0.091352 0.978932 0.126217
H43   H     H_    0.490950 0.028163 0.152152 0.112409
C77   C     C_R   0.568474 0.073560 0.708569 0.138172
C78   C     C_R   0.624783 0.118969 0.681605 -0.116579
C79   C     C_R   0.663216 0.150988 0.777287 -0.147422
C80   C     C_R   0.646659 0.137105 0.900746 -0.114473
C81   C     C_R   0.591848 0.090922 0.928664 -0.136174
C82   C     C_R   0.552922 0.059051 0.833183 -0.187353
H44   H     H_    0.639310 0.129191 0.586550 0.122843
H45   H     H_    0.706080 0.186269 0.755695 0.130714
H46   H     H_    0.676590 0.161755 0.974838 0.118095
H47   H     H_    0.579765 0.079786 0.024447 0.124060
H48   H     H_    0.510621 0.023333 0.856287 0.112737
O9    O     O_3   0.836957 0.352377 0.593240 -0.628643
C83   C     C_3   0.813198 0.292536 0.526884 0.102496
H49   H     H_    0.829102 0.296104 0.428275 0.135545
H50   H     H_    0.754946 0.288330 0.529992 0.138152
C84   C     C_3   0.845863 0.224380 0.586041 -0.845750
H51   H     H_    0.831119 0.219207 0.684661 0.252333
H52   H     H_    0.826738 0.176770 0.535802 0.199851
H53   H     H_    0.904034 0.226161 0.581545 0.258559
O10   O     O_3   0.173521 0.415561 0.254759 -0.629249
C85   C     C_3   0.189749 0.341604 0.270725 0.097873
H54   H     H_    0.163656 0.318423 0.353461 0.139302
H55   H     H_    0.247618 0.332305 0.281075 0.137829
C86   C     C_3   0.163201 0.302507 0.156800 -0.845701
H56   H     H_    0.174637 0.244019 0.168633 0.199134
H57   H     H_    0.105511 0.310925 0.143846 0.259225
H58   H     H_    0.189632 0.323209 0.073017 0.254580
C87   C     C_R   0.867052 0.565569 0.314774 0.134854
C88   C     C_R   0.862558 0.567602 0.184249 -0.156482
C89   C     C_R   0.905249 0.613685 0.116758 -0.143698
C90   C     C_R   0.953062 0.657567 0.178697 -0.119400
C91   C     C_R   0.957972 0.655696 0.308380 -0.154357
C92   C     C_R   0.915071 0.609957 0.376336 -0.153007
H59   H     H_    0.826342 0.533217 0.135153 0.132377
H60   H     H_    0.901231 0.615223 0.016458 0.120218
H61   H     H_    0.986282 0.693025 0.126196 0.119316
H62   H     H_    0.994986 0.689732 0.356231 0.119041
H63   H     H_    0.919251 0.608815 0.476724 0.129192
C93   C     C_R   0.121201 0.538954 0.643974 0.141595
C94   C     C_R   0.114017 0.513951 0.767186 -0.150835
C95   C     C_R   0.065970 0.547140 0.843622 -0.133422
C96   C     C_R   0.024563 0.605096 0.797638 -0.121624
C97   C     C_R   0.030810 0.629710 0.675052 -0.161670
C98   C     C_R   0.078732 0.596677 0.598312 -0.152440
H64   H     H_    0.145348 0.468695 0.803615 0.140735
H65   H     H_    0.060821 0.527930 0.938474 0.139206
H66   H     H_    0.987626 0.630989 0.856868 0.114025
H67   H     H_    0.998562 0.674484 0.639512 0.120288
H68   H     H_    0.083102 0.616243 0.503459 0.119568
C99   C     C_R   0.713258 0.575301 0.294335 0.142616
C100  C     C_R   0.729991 0.647899 0.272774 -0.124091
C101  C     C_R   0.701421 0.686322 0.169758 -0.146752
C102  C     C_R   0.659359 0.651542 0.082708 -0.125322
C103  C     C_R   0.646401 0.578366 0.098679 -0.141183
C104  C     C_R   0.671404 0.540760 0.205311 -0.162424
H69   H     H_    0.767757 0.674142 0.332171 0.123508
H70   H     H_    0.714103 0.742335 0.155085 0.122363
H71   H     H_    0.638758 0.680670 0.000969 0.120914
H72   H     H_    0.618442 0.550301 0.026768 0.143406
H73   H     H_    0.661259 0.483813 0.215229 0.114626
C105  C     C_R   0.273482 0.522067 0.710768 0.112707
C106  C     C_R   0.259533 0.584509 0.776940 -0.129931
C107  C     C_R   0.274773 0.586024 0.904564 -0.176446
C108  C     C_R   0.305567 0.526024 0.966480 -0.079185
C109  C     C_R   0.322313 0.464888 0.900595 -0.123056
C110  C     C_R   0.306264 0.462760 0.773446 -0.194384
H74   H     H_    0.233351 0.630417 0.731850 0.128658
H75   H     H_    0.262159 0.633561 0.955605 0.124462
H76   H     H_    0.316933 0.526935 0.065368 0.120665
H77   H     H_    0.346590 0.418635 0.948518 0.140016
H78   H     H_    0.316746 0.413733 0.724835 0.131803

loop_
_geom_bond_atom_site_label_1
_geom_bond_atom_site_label_2
_ccdc_geom_bond_type
C95   H65   S    
C31   N2    A    
C90   H61   S    
C94   C95   A    
C26   C32   S    
C61   C62   A    
C78   C79   A    
C86   H57   S    
C1    C8    S    
C73   C74   A    
C72   H39   S    
C43   O9    S    
C66   C67   A    
C82   H48   S    
C89   C90   A    
C103  C104  A    
C80   C81   A    
C4    C46   A    
C47   C48   A    
O2    Zn1   S    
C22   C35   S    
C60   H29   S    
C37   C38   A    
C4    C93   S    
C9    H15   S    
C76   H43   S    
C84   H52   S    
C24   C26   A    
C90   C91   A    
C29   C32   A    
C2    O2    A    
O6    Zn1   S    
C87   C88   A    
C49   H20   S    
C97   C98   A    
C28   H5    S    
C109  C110  A    
C93   C94   A    
C106  H74   S    
C15   N1    A    
C104  H73   S    
C102  C103  A    
O3    Zn2   S    
C105  C110  A    
C18   C19   A    
C54   H24   S    
O9    C83   S    
C65   C66   A    
C24   C71   S    
C84   H51   S    
C33   C35   A    
C56   H26   S    
C100  C101  A    
C48   H19   S    
C39   H9    S    
C2    C7    S    
C96   H66   S    
C77   C78   A    
C40   H10   S    
O10   C85   S    
C109  H77   S    
C63   H32   S    
C37   H1    S    
C19   C27   S    
C9    C10   A    
C38   H2    S    
C51   H22   S    
C56   C57   A    
C68   H36   S    
C59   C64   A    
C21   C27   A    
C14   H18   S    
C78   H44   S    
C96   C97   A    
C13   C14   A    
C86   H58   S    
C3    C87   S    
C41   C43   A    
C92   H63   S    
C10   H16   S    
C42   C44   A    
C83   C84   S    
C75   H42   S    
C5    C99   S    
C67   C68   A    
C44   C46   A    
C57   H27   S    
C69   C70   A    
C93   C98   A    
C80   H46   S    
C30   H7    S    
C86   H56   S    
C44   O10   S    
C40   H12   S    
C34   C39   S    
C33   C40   S    
C20   C24   A    
C28   C32   A    
C84   H53   S    
C41   H13   S    
C4    C6    A    
C42   H14   S    
C79   H45   S    
C5    C7    A    
C48   C49   A    
C12   C45   S    
C6    C8    A    
C25   C26   A    
C99   C100  A    
C3    C45   A    
C51   C52   A    
C108  C109  A    
C101  C102  A    
C50   H21   S    
C20   H3    S    
C43   C45   A    
C107  H75   S    
C13   H17   S    
C85   C86   S    
N2    Zn2   S    
C33   C34   A    
C62   H31   S    
C88   H59   S    
C53   C54   A    
C17   C59   S    
C71   C72   A    
C30   N2    A    
O8    Zn2   S    
C83   H50   S    
C12   C14   A    
C70   H38   S    
C23   C36   S    
O4    Zn2   S    
C75   C76   A    
O7    Zn2   S    
O1    Zn1   S    
C23   O8    A    
C8    C42   A    
C22   O5    A    
C39   C40   S    
C95   C96   A    
C68   C69   A    
C61   H30   S    
C15   C17   A    
C21   C25   A    
C53   C58   A    
C35   C37   A    
C87   C92   A    
C23   O6    A    
C18   C65   S    
C85   H55   S    
C50   C51   A    
C3    C5    A    
C55   H25   S    
C99   C104  A    
C72   C73   A    
C98   H68   S    
C20   C27   A    
C94   H64   S    
C79   C80   A    
N1    Zn1   S    
C59   C60   A    
C110  H78   S    
C67   H35   S    
C83   H49   S    
C66   H34   S    
C88   C89   A    
C58   H28   S    
C28   C30   A    
C91   H62   S    
C77   C82   A    
C71   C76   A    
C29   C31   A    
C101  H70   S    
C105  C106  A    
O5    Zn1   S    
C11   C13   A    
C6    C105  S    
C55   C56   A    
C15   C47   S    
C69   H37   S    
C47   C52   A    
C97   H67   S    
C36   C38   A    
C57   C58   A    
C1    O1    A    
C81   H47   S    
C103  H72   S    
C74   H41   S    
C107  C108  A    
C34   C36   A    
C100  H69   S    
C7    C41   A    
C31   H8    S    
C62   C63   A    
C108  H76   S    
C9    C12   A    
C1    O3    A    
C91   C92   A    
C10   C11   A    
C89   H60   S    
C49   C50   A    
C17   C19   A    
C85   H54   S    
C16   C18   A    
C106  C107  A    
C73   H40   S    
C63   C64   A    
C16   C53   S    
C64   H33   S    
C81   C82   A    
C11   C46   S    
C60   C61   A    
C16   N1    A    
C21   H4    S    
C22   O7    A    
C54   C55   A    
C2    O4    A    
C25   C77   S    
C65   C70   A    
C102  H71   S    
C52   H23   S    
C74   C75   A    
C29   H6    S    
C39   H11   S    
