data_mof_unit_40364.cif
_audit_creation_date              2013-03-05T16:04:21-0500
_audit_creation_method            fapswitch 2.2
_symmetry_space_group_name_H-M    P1
_symmetry_Int_Tables_number       1
_space_group_crystal_system       triclinic
_cell_length_a                    9.5346
_cell_length_b                    10.827244
_cell_length_c                    13.438571
_cell_angle_alpha                 90.449961
_cell_angle_beta                  72.233306
_cell_angle_gamma                 89.913767
_cell_volume                      1321.09302836

loop_
_atom_site_label
_atom_site_type_symbol
_atom_site_description
_atom_site_fract_x
_atom_site_fract_y
_atom_site_fract_z
_atom_type_partial_charge
O1    O     O_R   0.381250 0.680340 0.500010 -0.556177
O2    O     O_R   0.618820 0.680370 0.500010 -0.501024
C1    C     C_R   0.499631 0.737672 0.500624 0.941703
O3    O     O_R   0.323240 0.499950 0.650980 -0.579213
O4    O     O_R   0.560810 0.499980 0.650980 -0.555762
C2    C     C_R   0.421133 0.492767 0.700153 0.856113
Cu1   Cu    Cu3+1 0.359340 0.499980 0.500000 1.085564
Cu2   Cu    Cu3+1 0.640660 0.500020 0.500000 1.185740
O5    O     O_R   0.381180 0.319630 0.499990 -0.553807
O6    O     O_R   0.618750 0.319660 0.499990 -0.478570
O7    O     O_R   0.439190 0.500020 0.349020 -0.573662
O8    O     O_R   0.676760 0.500050 0.349020 -0.498731
C3    C     C_R   0.498845 0.262242 0.502232 0.993124
C4    C     C_R   0.579257 0.499619 0.299655 0.838422
C5    C     C_R   0.789430 0.397914 0.026688 -0.177756
H1    H     H_    0.894702 0.355524 0.986386 0.233597
C6    C     C_R   0.625794 0.485501 0.185498 -0.203148
C7    C     C_R   0.230665 0.527851 0.868793 -0.245564
C8    C     C_R   0.186079 0.540245 0.976368 -0.145802
C9    C     C_R   0.284370 0.518366 0.032273 0.705063
C10   C     C_R   0.431621 0.478852 0.980281 -0.069442
C11   C     C_R   0.467726 0.445341 0.872608 -0.166757
C12   C     C_R   0.542729 0.467544 0.030942 0.030956
C13   C     C_R   0.679953 0.411312 0.977253 -0.133610
C14   C     C_R   0.704177 0.362687 0.877099 0.580186
C15   C     C_R   0.596600 0.373041 0.826676 0.256306
C16   C     C_R   0.523531 0.511736 0.132923 -0.148375
C17   C     C_R   0.761750 0.432351 0.130748 0.630350
C18   C     C_R   0.372043 0.483996 0.815203 -0.010930
H2    H     H_    0.429820 0.566685 0.174489 0.241738
H3    H     H_    0.154295 0.554511 0.827313 0.200272
H4    H     H_    0.074806 0.570538 0.016839 0.194088
C19   C     C_R   0.627320 0.935864 0.452962 0.522061
C20   C     C_R   0.626413 0.063444 0.454507 0.581751
C21   C     C_R   0.496671 0.128257 0.506359 -0.435729
C22   C     C_R   0.366001 0.063576 0.558233 0.210790
C23   C     C_R   0.368151 0.934828 0.554949 0.523494
C24   C     C_R   0.498316 0.871334 0.502575 -0.437705
C25   C     C_R   0.898832 0.579579 0.562997 0.658810
C26   C     C_R   0.047600 0.579682 0.562672 -0.132615
H5    H     H_    0.082079 0.643349 0.613015 0.229958
N1    N     N_R   0.147940 0.499970 0.499970 -0.296354
C27   C     C_R   0.100068 0.418853 0.437877 0.326314
C28   C     C_R   0.951789 0.420381 0.437403 0.683720
N2    N     N_R   0.852060 0.500060 0.499990 -0.311400
F1    F     F_    0.865379 0.408497 0.178414 -0.557768
F2    F     F_    0.751598 0.123446 0.401698 -0.500367
N3    N     N_R   0.232493 0.126229 0.616581 0.210268
O9    O     O_R   0.235350 0.212446 0.683884 -0.278476
O10   O     O_R   0.105503 0.086646 0.612558 -0.165493
F3    F     F_    0.245289 0.871471 0.607707 -0.587195
F4    F     F_    0.802243 0.659534 0.626738 -0.598590
N4    N     N_R   0.197384 0.328488 0.374954 0.183401
O11   O     O_R   0.184366 0.214301 0.405583 -0.260097
O12   O     O_R   0.259275 0.350474 0.276384 -0.255529
F5    F     F_    0.908503 0.341303 0.373975 -0.485520
F6    F     F_    0.829228 0.296957 0.831105 -0.581390
F7    F     F_    0.227589 0.527681 0.137434 -0.621903
N5    N     N_R   0.607999 0.293110 0.738665 0.142571
O13   O     O_R   0.735144 0.271943 0.669478 -0.247074
O14   O     O_R   0.496201 0.225151 0.737568 -0.339949
F8    F     F_    0.753348 0.875518 0.399932 -0.554876

loop_
_geom_bond_atom_site_label_1
_geom_bond_atom_site_label_2
_geom_bond_distance
_ccdc_geom_bond_type
O4    Cu2   1.937418 S    
C27   C28   1.415812 A    
C13   C14   1.393146 A    
C26   H5    1.081689 S    
C23   C24   1.401784 A    
C20   F2    1.357562 S    
C11   C18   1.426878 A    
C12   C16   1.406053 A    
C15   N5    1.436959 S    
C28   F5    1.354346 S    
N4    O12   1.299197 A    
C21   C22   1.417355 A    
C25   N2    1.370120 A    
Cu2   O8    1.951652 S    
C26   N1    1.365395 A    
C19   C20   1.381306 A    
Cu1   Cu2   2.682275 S    
C7    C18   1.400510 A    
O1    Cu1   1.964260 S    
N4    O11   1.300235 A    
C9    C10   1.427302 A    
C16   H2    1.073743 S    
Cu1   O7    1.937419 S    
C4    C6    1.467802 S    
C17   F1    1.356978 S    
C5    C17   1.389446 A    
C14   F6    1.360475 S    
C22   C23   1.394263 A    
O3    Cu1   1.951650 S    
C8    H4    1.083040 S    
C3    C21   1.452112 S    
N3    O10   1.301452 A    
C5    C13   1.405765 A    
O8    C4    1.296418 A    
C22   N3    1.440594 S    
O2    C1    1.291711 A    
C10   C12   1.428930 A    
O4    C2    1.296307 A    
C23   F3    1.359669 S    
O7    C4    1.297259 A    
N5    O14   1.299866 A    
N1    C27   1.377724 A    
C12   C13   1.420459 A    
C9    F7    1.353187 S    
C5    H1    1.083698 S    
C6    C16   1.397603 A    
N5    O13   1.301752 A    
C2    C18   1.476258 S    
C7    C8    1.382154 A    
C28   N2    1.361576 A    
O3    C2    1.300353 A    
C20   C21   1.404250 A    
C11   C15   1.424884 A    
Cu1   N1    2.015738 S    
C25   C26   1.417121 A    
Cu1   O5    1.963447 S    
O5    C3    1.290133 A    
Cu2   N2    2.015574 S    
N3    O9    1.300784 A    
C19   C24   1.398215 A    
C7    H3    1.083455 S    
C14   C15   1.395998 A    
C10   C11   1.425236 A    
C6    C17   1.400678 A    
C27   N4    1.427823 S    
Cu2   O6    1.964260 S    
O2    Cu2   1.963449 S    
C8    C9    1.389472 A    
C1    C24   1.447189 S    
C25   F4    1.354922 S    
C19   F8    1.358821 S    
O1    C1    1.291162 A    
O6    C3    1.294537 A    
