data_mof_unit_44184.cif
_audit_creation_date              2012-12-11T15:17:51-0500
_audit_creation_method            fapswitch 2.2
_symmetry_space_group_name_H-M    P1
_symmetry_Int_Tables_number       1
_space_group_crystal_system       triclinic
_cell_length_a                    15.662339
_cell_length_b                    15.642761
_cell_length_c                    34.56756
_cell_angle_alpha                 90.200499
_cell_angle_beta                  90.200572
_cell_angle_gamma                 119.487099
_cell_volume                      7371.91577053

loop_
_atom_site_label
_atom_site_type_symbol
_atom_type_description
_atom_site_fract_x
_atom_site_fract_y
_atom_site_fract_z
_atom_type_partial_charge
C1    C     C_R   0.579663 0.441638 0.555201 0.553993
C2    C     C_R   0.558738 0.136605 0.554725 0.560758
C3    C     C_R   0.862362 0.421255 0.555326 0.568758
C4    C     C_R   0.441376 0.579010 0.055218 0.554692
C5    C     C_R   0.136608 0.558583 0.054828 0.558093
C6    C     C_R   0.421376 0.863041 0.055114 0.568584
C7    C     C_R   0.955109 0.487030 0.715767 0.386024
C8    C     C_R   0.510170 0.471012 0.714526 0.386433
C9    C     C_R   0.476036 0.945800 0.700247 0.382889
C10   C     C_R   0.496113 0.975531 0.213455 0.396746
C11   C     C_R   0.478653 0.509110 0.214219 0.401542
C12   C     C_R   0.939338 0.467595 0.200111 0.397230
C13   C     C_R   0.006386 0.430405 0.853276 0.172057
C14   C     C_R   0.564882 0.551573 0.856277 0.168027
C15   C     C_R   0.359619 0.880260 0.838491 0.181244
C16   C     C_R   0.433615 0.006979 0.352965 0.202567
C17   C     C_R   0.574556 0.569380 0.353903 0.205709
C18   C     C_R   0.856483 0.345950 0.337059 0.196335
C19   C     C_R   0.048174 0.447351 0.890291 -0.196400
C20   C     C_R   0.551512 0.576956 0.893910 -0.187428
C21   C     C_R   0.347361 0.858408 0.877980 -0.190380
C22   C     C_R   0.447289 0.041997 0.391115 -0.181122
C23   C     C_R   0.595829 0.553984 0.391770 -0.171856
C24   C     C_R   0.840094 0.337458 0.376941 -0.188522
C25   C     C_R   0.044843 0.600355 0.895445 0.226970
C26   C     C_R   0.376773 0.461994 0.889182 0.224903
C27   C     C_R   0.490716 0.837084 0.878677 0.225860
C28   C     C_R   0.609359 0.057232 0.393039 0.249145
C29   C     C_R   0.449578 0.393224 0.392709 0.259338
C30   C     C_R   0.850847 0.497925 0.379429 0.257631
C31   C     C_R   0.006966 0.586711 0.857410 0.228034
C32   C     C_R   0.387475 0.444688 0.850204 0.221245
C33   C     C_R   0.499570 0.851861 0.838308 0.212418
C34   C     C_R   0.596949 0.022998 0.354727 0.232678
C35   C     C_R   0.426158 0.408697 0.355094 0.237586
C36   C     C_R   0.873689 0.510055 0.339612 0.233319
C37   C     C_R   0.990830 0.503027 0.835876 0.050609
C38   C     C_R   0.481750 0.489030 0.833708 0.034405
C39   C     C_R   0.435819 0.876486 0.818233 0.040822
C40   C     C_R   0.511367 0.003691 0.333871 0.025917
C41   C     C_R   0.492392 0.493875 0.334612 0.019598
C42   C     C_R   0.873194 0.432365 0.318136 0.029595
C43   C     C_R   0.073091 0.534339 0.910537 -0.050234
C44   C     C_R   0.457605 0.535980 0.909799 -0.044327
C45   C     C_R   0.412451 0.837863 0.898510 -0.046511
C46   C     C_R   0.536913 0.073815 0.410316 -0.061812
C47   C     C_R   0.538129 0.464092 0.410319 -0.060744
C48   C     C_R   0.836666 0.411838 0.398424 -0.056360
C49   C     C_R   0.577718 0.442061 0.445426 0.572312
C50   C     C_R   0.557902 0.135118 0.445499 0.562762
C51   C     C_R   0.812710 0.393910 0.440089 0.596174
C52   C     C_R   0.441468 0.577178 0.945548 0.577561
C53   C     C_R   0.135102 0.557540 0.945527 0.569931
C54   C     C_R   0.394017 0.813139 0.940076 0.591081
C55   C     C_R   0.909530 0.451750 0.593570 -0.057902
C56   C     C_R   0.553737 0.461123 0.593607 -0.051482
C57   C     C_R   0.534352 0.072107 0.588437 -0.056901
C58   C     C_R   0.452847 0.914672 0.092529 -0.050783
C59   C     C_R   0.460423 0.548056 0.092937 -0.049946
C60   C     C_R   0.072150 0.532919 0.088741 -0.051116
C61   C     C_R   0.932328 0.388940 0.614380 -0.128029
C62   C     C_R   0.628676 0.531352 0.617232 -0.122254
C63   C     C_R   0.438394 0.024767 0.602697 -0.119479
C64   C     C_R   0.387655 0.934001 0.113407 -0.134735
C65   C     C_R   0.546465 0.610270 0.113432 -0.134321
C66   C     C_R   0.026551 0.436534 0.102664 -0.138388
C67   C     C_R   0.952785 0.403372 0.653918 0.215917
C68   C     C_R   0.613796 0.536645 0.656535 0.214644
C69   C     C_R   0.417080 0.974874 0.637705 0.219832
C70   C     C_R   0.402799 0.956820 0.152893 0.225426
C71   C     C_R   0.554169 0.596467 0.153052 0.223886
C72   C     C_R   0.979049 0.413471 0.138473 0.225018
C73   C     C_R   0.948380 0.480630 0.673333 0.072921
C74   C     C_R   0.522435 0.471138 0.672687 0.080346
C75   C     C_R   0.493452 0.975499 0.659638 0.070561
C76   C     C_R   0.487924 0.966743 0.171091 0.095194
C77   C     C_R   0.476548 0.516070 0.171860 0.092423
C78   C     C_R   0.972920 0.487266 0.159752 0.096134
C79   C     C_R   0.932783 0.548585 0.652120 0.203658
C80   C     C_R   0.444104 0.405242 0.648834 0.211153
C81   C     C_R   0.588500 0.015905 0.644176 0.208517
C82   C     C_R   0.559305 0.958184 0.149307 0.200536
C83   C     C_R   0.393546 0.447979 0.150659 0.203021
C84   C     C_R   0.011276 0.582593 0.144405 0.199619
C85   C     C_R   0.914409 0.533972 0.612164 -0.151106
C86   C     C_R   0.460866 0.400115 0.609185 -0.147655
C87   C     C_R   0.608110 0.063722 0.608307 -0.147079
C88   C     C_R   0.540433 0.930819 0.110082 -0.146409
C89   C     C_R   0.386132 0.464835 0.111215 -0.143690
C90   C     C_R   0.061438 0.604854 0.108942 -0.152953
C91   C     C_R   0.970205 0.497540 0.793956 0.393331
C92   C     C_R   0.491010 0.478643 0.791899 0.379078
C93   C     C_R   0.449593 0.900063 0.776390 0.387873
C94   C     C_R   0.507084 0.990227 0.291569 0.374405
C95   C     C_R   0.482504 0.498750 0.292345 0.372391
C96   C     C_R   0.892009 0.441284 0.276114 0.376516
Cr1   Cr    Cr6+3 0.522350 0.263930 0.500020 1.020714
Cr2   Cr    Cr6+3 0.736070 0.258420 0.500020 1.013476
Cr3   Cr    Cr6+3 0.741580 0.477650 0.500020 1.004703
Cr4   Cr    Cr6+3 0.263930 0.522350 0.000020 1.014465
Cr5   Cr    Cr6+3 0.258420 0.736070 0.000020 1.025670
Cr6   Cr    Cr6+3 0.477650 0.741580 0.000020 1.016095
H1    H     H_    0.928883 0.325010 0.600573 0.148592
H2    H     H_    0.701536 0.578310 0.605921 0.149228
H3    H     H_    0.380102 0.028821 0.587319 0.152449
H4    H     H_    0.321969 0.926043 0.099600 0.138172
H5    H     H_    0.605858 0.672468 0.099134 0.136781
H6    H     H_    0.030031 0.379477 0.086116 0.135206
H7    H     H_    0.896946 0.582957 0.596220 0.118547
H8    H     H_    0.403119 0.345718 0.590946 0.114005
H9    H     H_    0.682144 0.099216 0.597091 0.127113
H10   H     H_    0.591698 0.917201 0.093891 0.116811
H11   H     H_    0.319735 0.415989 0.095429 0.121337
H12   H     H_    0.095617 0.679232 0.098021 0.114309
H13   H     H_    0.065832 0.394184 0.902450 0.150333
H14   H     H_    0.613960 0.631407 0.910252 0.135094
H15   H     H_    0.286022 0.857608 0.892709 0.156029
H16   H     H_    0.390065 0.051072 0.404776 0.149480
H17   H     H_    0.662022 0.610057 0.405666 0.153786
H18   H     H_    0.827022 0.270524 0.391133 0.189403
N1    N     N_R   0.916984 0.409655 0.775809 -0.131160
N2    N     N_R   0.569787 0.476355 0.776975 -0.136416
N3    N     N_R   0.416065 0.957134 0.760468 -0.131622
N4    N     N_R   0.421432 0.927565 0.273772 -0.177874
N5    N     N_R   0.511374 0.585919 0.274680 -0.178328
N6    N     N_R   0.947189 0.405401 0.260402 -0.181413
N7    N     N_R   0.909379 0.404526 0.737444 -0.152738
N8    N     N_R   0.579198 0.472668 0.738875 -0.153206
N9    N     N_R   0.428773 0.979371 0.723147 -0.161992
N10   N     N_R   0.416180 0.920263 0.235457 -0.223380
N11   N     N_R   0.509259 0.590912 0.236355 -0.222586
N12   N     N_R   0.970256 0.418208 0.223167 -0.221021
N13   N     N_R   0.006984 0.575055 0.733844 -0.200709
N14   N     N_R   0.431556 0.473124 0.729387 -0.209957
N15   N     N_R   0.510136 0.889036 0.715898 -0.197082
N16   N     N_R   0.582435 0.037047 0.231186 -0.141913
N17   N     N_R   0.448349 0.421569 0.231811 -0.139637
N18   N     N_R   0.883605 0.503299 0.215640 -0.145685
N19   N     N_R   0.014783 0.580006 0.772194 -0.235991
N20   N     N_R   0.422595 0.477325 0.767382 -0.240029
N21   N     N_R   0.496636 0.866300 0.753255 -0.210402
N22   N     N_R   0.587660 0.044510 0.269596 -0.158326
N23   N     N_R   0.450731 0.416626 0.270190 -0.161904
N24   N     N_R   0.860026 0.490012 0.252988 -0.162765
O1    O     O_R   0.498680 0.159540 0.541860 -0.521412
O2    O     O_R   0.840460 0.339140 0.541860 -0.518788
O3    O     O_R   0.660860 0.501320 0.541860 -0.533722
O4    O     O_R   0.159540 0.498680 0.041860 -0.526829
O5    O     O_R   0.339140 0.840460 0.041860 -0.518561
O6    O     O_R   0.501320 0.660860 0.041860 -0.527726
O7    O     O_R   0.532760 0.358060 0.540030 -0.501305
O8    O     O_R   0.641940 0.174700 0.540030 -0.509202
O9    O     O_R   0.825300 0.467240 0.540030 -0.504389
O10   O     O_R   0.358060 0.532760 0.040030 -0.506848
O11   O     O_R   0.174700 0.641940 0.040030 -0.507278
O12   O     O_R   0.467240 0.825300 0.040030 -0.502068
O13   O     O_R   0.498590 0.161190 0.456930 -0.511413
O14   O     O_R   0.838810 0.337400 0.456930 -0.522536
O15   O     O_R   0.662600 0.501410 0.456930 -0.512568
O16   O     O_R   0.161190 0.498590 0.956930 -0.512729
O17   O     O_R   0.337400 0.838810 0.956930 -0.515013
O18   O     O_R   0.501410 0.662600 0.956930 -0.502718
O19   O     O_R   0.532680 0.359580 0.461300 -0.462029
O20   O     O_R   0.640420 0.173100 0.461300 -0.479970
O21   O     O_R   0.826900 0.467320 0.461300 -0.474378
O22   O     O_R   0.359580 0.532680 0.961300 -0.457830
O23   O     O_R   0.173100 0.640420 0.961300 -0.471111
O24   O     O_R   0.467320 0.826900 0.961300 -0.464388
O25   O     O_3   0.666667 0.333333 0.499990 -0.266005
O26   O     O_3   0.333333 0.666667 0.999990 -0.272411
O27   O     O_3   0.967726 0.335568 0.673965 -0.530808
C97   C     C_3   0.069085 0.367281 0.674270 -0.014487
H19   H     H_    0.108982 0.433728 0.692945 0.133480
H20   H     H_    0.100479 0.383964 0.644542 0.118288
C98   C     C_3   0.084874 0.285960 0.690592 -0.355577
H21   H     H_    0.048568 0.219888 0.671670 0.159131
H22   H     H_    0.164560 0.310928 0.692100 0.142980
H23   H     H_    0.053371 0.266294 0.720071 0.178767
O28   O     O_3   0.692168 0.599488 0.679643 -0.519202
C99   C     C_3   0.695790 0.691330 0.681119 -0.009876
H24   H     H_    0.628195 0.684354 0.694665 0.131937
H25   H     H_    0.704426 0.723135 0.651638 0.121886
C100  C     C_3   0.783640 0.761822 0.705542 -0.347561
H26   H     H_    0.852512 0.772763 0.692028 0.170454
H27   H     H_    0.786147 0.833862 0.707752 0.108883
H28   H     H_    0.777914 0.731697 0.735060 0.184716
O29   O     O_3   0.322639 0.933097 0.651906 -0.534602
C101  C     C_3   0.275039 0.831153 0.644252 -0.026704
H29   H     H_    0.316896 0.796681 0.656352 0.124571
H30   H     H_    0.265147 0.816942 0.612501 0.119170
C102  C     C_3   0.174501 0.782237 0.663048 -0.322875
H31   H     H_    0.128944 0.812067 0.650789 0.164055
H32   H     H_    0.137374 0.701885 0.657563 0.115756
H33   H     H_    0.182166 0.795512 0.694786 0.198695
O30   O     O_3   0.337689 0.974746 0.173801 -0.526743
C103  C     C_3   0.244406 0.889272 0.174842 0.005257
H34   H     H_    0.249884 0.821747 0.180065 0.145759
H35   H     H_    0.204062 0.880764 0.147299 0.112962
C104  C     C_3   0.185251 0.899138 0.207670 -0.341414
H36   H     H_    0.111825 0.832478 0.209012 0.122286
H37   H     H_    0.223635 0.907869 0.235706 0.202603
H38   H     H_    0.175776 0.964164 0.202904 0.165979
O31   O     O_3   0.639325 0.657665 0.173451 -0.527868
C105  C     C_3   0.654191 0.754437 0.174424 0.013234
H39   H     H_    0.584913 0.755734 0.180570 0.157779
H40   H     H_    0.684958 0.791928 0.146518 0.115769
C106  C     C_3   0.727515 0.811848 0.206399 -0.341340
H41   H     H_    0.740441 0.888249 0.207524 0.128839
H42   H     H_    0.698631 0.776512 0.234777 0.195873
H43   H     H_    0.798314 0.813923 0.200851 0.161509
O32   O     O_3   0.932702 0.317818 0.152169 -0.529493
C107  C     C_3   0.001186 0.284517 0.157093 0.000589
H44   H     H_    0.070774 0.341678 0.170798 0.148007
H45   H     H_    0.017738 0.262075 0.128809 0.116041
C108  C     C_3   0.956995 0.195133 0.183301 -0.330390
H46   H     H_    0.009740 0.167701 0.187192 0.092559
H47   H     H_    0.940306 0.215061 0.212062 0.207844
H48   H     H_    0.888251 0.135798 0.170246 0.174618
O33   O     O_3   0.929122 0.624414 0.671279 -0.667348
H49   H     H_    0.916614 0.664382 0.652272 0.320012
O34   O     O_3   0.354267 0.342869 0.665181 -0.684519
H50   H     H_    0.307972 0.301648 0.644538 0.316734
O35   O     O_3   0.662090 0.013884 0.665629 -0.665153
H51   H     H_    0.724074 0.046177 0.650781 0.327687
O36   O     O_3   0.643433 0.970451 0.167380 -0.703985
H52   H     H_    0.685822 0.963014 0.147963 0.307692
O37   O     O_3   0.317955 0.369662 0.169510 -0.680639
H53   H     H_    0.265042 0.330131 0.150637 0.315197
O38   O     O_3   0.004286 0.654028 0.165506 -0.693562
H54   H     H_    0.033419 0.715720 0.150420 0.309988
O39   O     O_3   0.986150 0.346326 0.832840 -0.685571
H55   H     H_    0.001584 0.303625 0.849165 0.319595
O40   O     O_3   0.657167 0.593642 0.840024 -0.675702
H56   H     H_    0.706555 0.636668 0.859465 0.326979
O41   O     O_3   0.296585 0.903743 0.819171 -0.683139
H57   H     H_    0.254291 0.912663 0.838160 0.311896
O42   O     O_3   0.348279 0.983782 0.332934 -0.665163
H58   H     H_    0.301841 0.990437 0.350449 0.323834
O43   O     O_3   0.637341 0.654259 0.334383 -0.673358
H59   H     H_    0.691521 0.698728 0.351919 0.318315
O44   O     O_3   0.853952 0.269525 0.315886 -0.643092
H60   H     H_    0.841421 0.214626 0.333458 0.359020
O45   O     O_3   0.059766 0.681502 0.916747 -0.556571
C109  C     C_3   0.974745 0.655895 0.938633 0.008788
H61   H     H_    0.958647 0.593776 0.958479 0.125554
H62   H     H_    0.910258 0.635386 0.919352 0.160980
C110  C     C_3   0.991152 0.743768 0.963067 -0.369312
H63   H     H_    0.006362 0.806802 0.944086 0.149922
H64   H     H_    0.924650 0.724698 0.980414 0.093503
H65   H     H_    0.054380 0.765176 0.982989 0.159441
O46   O     O_3   0.284361 0.414295 0.905422 -0.541304
C111  C     C_3   0.267399 0.322850 0.919651 0.014795
H66   H     H_    0.322680 0.333081 0.942236 0.121397
H67   H     H_    0.269678 0.275740 0.895876 0.163786
C112  C     C_3   0.166189 0.269847 0.937832 -0.364048
H68   H     H_    0.109282 0.257225 0.915813 0.143469
H69   H     H_    0.152041 0.197847 0.949307 0.087080
H70   H     H_    0.161731 0.314514 0.961969 0.169480
O47   O     O_3   0.554580 0.814756 0.898099 -0.537636
C113  C     C_3   0.643288 0.902475 0.905449 0.028721
H71   H     H_    0.630095 0.955685 0.922321 0.136125
H72   H     H_    0.681227 0.937639 0.878067 0.176361
C114  C     C_3   0.711133 0.878676 0.928936 -0.362070
H73   H     H_    0.726045 0.826016 0.912731 0.146888
H74   H     H_    0.781643 0.946893 0.934563 0.083427
H75   H     H_    0.676727 0.845801 0.957044 0.169925
O48   O     O_3   0.698212 0.085915 0.411272 -0.528682
C115  C     C_3   0.686642 0.012395 0.437721 0.008805
H76   H     H_    0.670121 0.943535 0.422224 0.112337
H77   H     H_    0.626959 0.996095 0.458812 0.114931
C116  C     C_3   0.781740 0.047714 0.460307 -0.357340
H78   H     H_    0.799452 0.115897 0.476576 0.165932
H79   H     H_    0.773929 0.990399 0.481112 0.076872
H80   H     H_    0.842673 0.062957 0.440174 0.150714
O49   O     O_3   0.391220 0.303188 0.409857 -0.494909
C117  C     C_3   0.325616 0.311733 0.435389 0.011041
H81   H     H_    0.271324 0.323805 0.418997 0.123078
H82   H     H_    0.364849 0.373021 0.456541 0.103392
C118  C     C_3   0.270226 0.216813 0.457994 -0.353230
H83   H     H_    0.322533 0.203286 0.475110 0.166824
H84   H     H_    0.217798 0.222207 0.478035 0.075570
H85   H     H_    0.228837 0.154211 0.437794 0.152313
O50   O     O_3   0.830068 0.563716 0.398434 -0.505753
C119  C     C_3   0.917898 0.646905 0.410763 0.021260
H86   H     H_    0.950219 0.699398 0.386632 0.149846
H87   H     H_    0.972831 0.627386 0.422158 0.109260
C120  C     C_3   0.894889 0.699593 0.442706 -0.354063
H88   H     H_    0.864031 0.651258 0.468219 0.179603
H89   H     H_    0.963071 0.766838 0.451705 0.069295
H90   H     H_    0.841085 0.721025 0.432105 0.139395
O51   O     O_3   0.976843 0.649536 0.842180 -0.535748
C121  C     C_3   0.059165 0.741723 0.833994 0.018823
H91   H     H_    0.119794 0.734257 0.820515 0.166691
H92   H     H_    0.086750 0.786755 0.860761 0.167923
C122  C     C_3   0.028551 0.796538 0.805893 -0.346912
H93   H     H_    0.969664 0.807286 0.818827 0.153250
H94   H     H_    0.092349 0.869489 0.799343 0.127228
H95   H     H_    0.001006 0.754225 0.778490 0.206231
O52   O     O_3   0.305929 0.381242 0.828367 -0.533954
C123  C     C_3   0.248578 0.426466 0.820361 0.025069
H96   H     H_    0.294549 0.505219 0.812197 0.118486
H97   H     H_    0.203271 0.421708 0.845742 0.184645
C124  C     C_3   0.179452 0.373130 0.786775 -0.346294
H98   H     H_    0.128720 0.295517 0.794632 0.172193
H99   H     H_    0.135888 0.409514 0.779566 0.142746
H100  H     H_    0.221955 0.374788 0.760911 0.189594
O53   O     O_3   0.577152 0.852183 0.819187 -0.540904
C125  C     C_3   0.553663 0.754409 0.811256 0.016636
H101  H     H_    0.481250 0.712576 0.796315 0.127392
H102  H     H_    0.552202 0.716064 0.838380 0.177645
C126  C     C_3   0.631868 0.755717 0.784925 -0.337311
H103  H     H_    0.704124 0.791702 0.799932 0.166126
H104  H     H_    0.612900 0.679721 0.776918 0.148119
H105  H     H_    0.637074 0.796630 0.758047 0.181705
O54   O     O_3   0.674833 0.021096 0.336693 -0.519859
C127  C     C_3   0.652579 0.922661 0.331255 0.007912
H106  H     H_    0.586484 0.880990 0.312679 0.139524
H107  H     H_    0.640209 0.884312 0.359418 0.114494
C128  C     C_3   0.738556 0.921832 0.311310 -0.353602
H108  H     H_    0.805490 0.960151 0.329634 0.151218
H109  H     H_    0.721904 0.845013 0.306356 0.139430
H110  H     H_    0.752314 0.959451 0.282956 0.177953
O55   O     O_3   0.342349 0.334894 0.337621 -0.500617
C129  C     C_3   0.271808 0.366000 0.334116 -0.004567
H111  H     H_    0.290986 0.419278 0.310084 0.144714
H112  H     H_    0.264850 0.400712 0.361274 0.090744
C130  C     C_3   0.172345 0.277457 0.325057 -0.342577
H113  H     H_    0.150379 0.223201 0.348839 0.153669
H114  H     H_    0.116317 0.300965 0.321996 0.118187
H115  H     H_    0.175914 0.242325 0.297586 0.183086
O56   O     O_3   0.890236 0.595915 0.321659 -0.508784
C131  C     C_3   0.992096 0.655870 0.314952 -0.006613
H116  H     H_    0.018239 0.624133 0.292205 0.148859
H117  H     H_    0.036366 0.666119 0.341617 0.090579
C132  C     C_3   0.011917 0.756189 0.301112 -0.348360
H118  H     H_    0.987753 0.791295 0.323229 0.145195
H119  H     H_    0.091661 0.804049 0.296000 0.113914
H120  H     H_    0.971570 0.748296 0.273648 0.187379

loop_
_geom_bond_atom_site_label_1
_geom_bond_atom_site_label_2
_ccdc_geom_bond_type
C112  H69   S    
C6    C58   S    
C36   C42   A    
O35   H51   S    
C98   H22   S    
Cr2   O8    S    
C101  C102  S    
C119  H86   S    
C86   H8    S    
C1    C56   S    
C7    N13   A    
C34   O54   S    
Cr5   O11   S    
C116  H78   S    
C38   C92   S    
C109  H61   S    
C114  H74   S    
C80   C86   A    
C80   O34   S    
Cr2   O25   S    
C66   C72   A    
O51   C121  S    
C97   H20   S    
C129  H111  S    
C106  H43   S    
C120  H89   S    
C33   O53   S    
C21   C45   A    
C97   C98   S    
C104  H36   S    
C5    O4    A    
C32   O52   S    
C99   H25   S    
C2    O8    A    
C89   H11   S    
C24   H18   S    
C50   O20   A    
C102  H31   S    
O46   C111  S    
C7    C73   S    
C132  H119  S    
C5    O11   A    
C31   C37   A    
C127  H106  S    
C94   N22   A    
C108  H46   S    
O38   H54   S    
C96   N24   A    
C79   O33   S    
O37   H53   S    
C8    C74   S    
N4    N10   A    
Cr5   O26   S    
C15   C39   A    
C16   C40   A    
C17   O43   S    
C18   O44   S    
C115  H77   S    
N13   N19   A    
C56   C62   A    
C100  H28   S    
C79   C85   A    
C123  H96   S    
C110  H65   S    
C22   H16   S    
Cr3   O3    S    
Cr6   O24   S    
C12   N12   A    
Cr1   O1    S    
C119  C120  S    
C93   N3    A    
C103  H34   S    
C58   C88   A    
C64   H4    S    
C60   C90   A    
C4    O6    A    
C29   C35   A    
C109  C110  S    
C30   C36   A    
C121  H92   S    
C102  H33   S    
C129  C130  S    
C118  H84   S    
O30   C103  S    
C57   C87   A    
C130  H113  S    
C107  H44   S    
C111  H66   S    
Cr3   O21   S    
Cr6   O26   S    
C128  H109  S    
C26   C32   A    
Cr3   O15   S    
C25   C43   A    
C105  H40   S    
C2    C57   S    
C26   C44   A    
C122  H94   S    
C27   C33   A    
C28   C46   A    
C17   C23   A    
C29   C47   A    
C127  C128  S    
C18   C24   A    
C30   C48   A    
C18   C42   A    
C23   H17   S    
C31   O51   S    
C68   C74   A    
C101  H30   S    
O44   H60   S    
C59   C89   A    
C61   C67   A    
C72   C78   A    
C11   C77   S    
C6    O5    A    
C3    C55   S    
C8    N8    A    
C63   C69   A    
C104  H38   S    
C21   H15   S    
C69   C75   A    
O40   H56   S    
C69   O29   S    
C123  C124  S    
C44   C52   S    
C90   H12   S    
O55   C129  S    
O42   H58   S    
C132  H118  S    
C84   C90   A    
C103  C104  S    
C20   C44   A    
C125  H102  S    
C57   C63   A    
C62   H2    S    
C58   C64   A    
C83   C89   A    
C23   C47   A    
C8    N14   A    
C24   C48   A    
C131  H116  S    
C108  H48   S    
C76   C82   A    
C130  H114  S    
C70   O30   S    
O28   C99   S    
O34   H50   S    
C92   N2    A    
N5    N11   A    
C107  C108  S    
N6    N12   A    
O41   H57   S    
C73   C79   A    
C96   N6    A    
C111  C112  S    
C9    N15   A    
C126  H104  S    
C12   N18   A    
C1    O3    A    
C63   H3    S    
Cr6   O12   S    
C71   C77   A    
Cr4   O10   S    
C5    C60   S    
C40   C94   S    
Cr4   O16   S    
C16   O42   S    
O48   C115  S    
C125  C126  S    
C68   O28   S    
C119  H87   S    
N18   N24   A    
C59   C65   A    
C82   C88   A    
C55   C61   A    
C30   O50   S    
C109  H62   S    
C62   C68   A    
C54   O17   A    
C35   C41   A    
C49   O19   A    
C51   O21   A    
C28   C34   A    
N15   N21   A    
C105  H39   S    
C129  H112  S    
C91   N1    A    
O50   C119  S    
C106  H42   S    
C49   O15   A    
C7    N7    A    
C65   H5    S    
C14   O40   S    
C6    O12   A    
C112  H68   S    
C52   O18   A    
C29   O49   S    
C116  H80   S    
C4    O10   A    
C95   N23   A    
O43   H59   S    
C131  C132  S    
C126  H103  S    
C114  H73   S    
C97   H19   S    
C2    O1    A    
C28   O48   S    
C42   C96   S    
C61   H1    S    
N1    N7    A    
C85   H7    S    
C72   O32   S    
C87   H9    S    
O45   C109  S    
C127  H107  S    
C39   C93   S    
N16   N22   A    
C43   C53   S    
Cr2   O14   S    
C123  H97   S    
Cr1   O19   S    
C118  H83   S    
C67   C73   A    
C98   H23   S    
C27   C45   A    
C110  H64   S    
C112  H70   S    
C60   C66   A    
O54   C127  S    
C74   C80   A    
C113  C114  S    
C19   C43   A    
C124  H100  S    
C25   O45   S    
C13   C19   A    
C106  H41   S    
C14   C20   A    
C103  H35   S    
C54   O24   A    
O33   H49   S    
C113  H71   S    
Cr4   O26   S    
O53   C125  S    
C55   C85   A    
O52   C123  S    
C10   N10   A    
C56   C86   A    
O32   C107  S    
C105  C106  S    
Cr6   O18   S    
Cr1   O7    S    
C120  H90   S    
C84   O38   S    
C81   C87   A    
Cr6   O6    S    
C91   N19   A    
C22   C46   A    
C107  H45   S    
C92   N20   A    
C122  H93   S    
C93   N21   A    
C99   H24   S    
C111  H67   S    
C53   O16   A    
C16   C22   A    
C66   H6    S    
C132  H120  S    
C51   O14   A    
C100  H27   S    
C11   N17   A    
O29   C101  S    
O56   C131  S    
C41   C95   S    
C15   C21   A    
Cr3   O9    S    
C1    O7    A    
N2    N8    A    
C128  H108  S    
C88   H10   S    
C115  H76   S    
C15   O41   S    
C104  H37   S    
C114  H75   S    
O27   C97   S    
C36   O56   S    
C35   O55   S    
C100  H26   S    
C102  H32   S    
C47   C49   S    
C83   O37   S    
C71   O31   S    
C33   C39   A    
C34   C40   A    
C121  H91   S    
C10   N16   A    
C108  H47   S    
N14   N20   A    
C14   C38   A    
C77   C83   A    
C3    O9    A    
Cr1   O25   S    
Cr4   O22   S    
C118  H85   S    
Cr5   O23   S    
C52   O22   A    
C10   C76   S    
C53   O23   A    
C48   C51   S    
C98   H21   S    
C12   C78   S    
C117  C118  S    
C64   C70   A    
C13   C37   A    
C99   C100  S    
N17   N23   A    
C128  H110  S    
C124  H98   S    
N3    N9    A    
C122  H95   S    
C50   O13   A    
C81   O35   S    
C82   O36   S    
C37   C91   S    
C113  H72   S    
C20   H14   S    
C75   C81   A    
Cr2   O2    S    
C67   O27   S    
C65   C71   A    
C101  H29   S    
Cr1   O13   S    
C13   O39   S    
C95   N5    A    
C115  C116  S    
C19   H13   S    
O36   H52   S    
C117  H81   S    
O49   C117  S    
C117  H82   S    
C45   C54   S    
C32   C38   A    
C120  H88   S    
C70   C76   A    
O47   C113  S    
C125  H101  S    
C124  H99   S    
C116  H79   S    
C25   C31   A    
C121  C122  S    
C11   N11   A    
C130  H115  S    
Cr2   O20   S    
C110  H63   S    
Cr3   O25   S    
C9    N9    A    
C27   O47   S    
C46   C50   S    
Cr5   O17   S    
Cr4   O4    S    
C4    C59   S    
Cr5   O5    S    
C17   C41   A    
C26   O46   S    
C78   C84   A    
C131  H117  S    
C3    O2    A    
C126  H105  S    
O39   H55   S    
C9    C75   S    
O31   C105  S    
C94   N4    A    
