data_mof_unit_52951.cif
_audit_creation_date              2013-03-05T16:48:15-0500
_audit_creation_method            fapswitch 2.2
_symmetry_space_group_name_H-M    P1
_symmetry_Int_Tables_number       1
_space_group_crystal_system       triclinic
_cell_length_a                    23.501969
_cell_length_b                    8.920804
_cell_length_c                    8.091977
_cell_angle_alpha                 89.574483
_cell_angle_beta                  90.19949
_cell_angle_gamma                 89.568678
_cell_volume                      1696.42977125

loop_
_atom_site_label
_atom_site_type_symbol
_atom_site_description
_atom_site_fract_x
_atom_site_fract_y
_atom_site_fract_z
_atom_type_partial_charge
O1    O     O_R   0.500000 0.285350 0.636850 -0.615315
O2    O     O_R   0.500000 0.714650 0.363150 -0.612206
O3    O     O_R   0.500000 0.714650 0.636850 -0.616024
O4    O     O_R   0.500000 0.285350 0.363150 -0.611229
C1    C     C_R   0.500080 0.217958 0.500387 0.945572
C2    C     C_R   0.500010 0.782041 0.499611 0.940481
O5    O     O_R   0.416160 0.500000 0.636910 -0.645816
O6    O     O_R   0.583840 0.500000 0.363090 -0.591292
O7    O     O_R   0.583840 0.500000 0.636910 -0.640299
O8    O     O_R   0.416160 0.500000 0.363090 -0.589010
C3    C     C_R   0.206244 0.504378 0.477557 0.059613
C4    C     C_R   0.790968 0.445493 0.481736 0.093915
C5    C     C_R   0.388639 0.502730 0.499711 0.898785
C6    C     C_R   0.610970 0.496367 0.500266 0.896030
Zn1   Zn    Zn3+2 0.500000 0.500000 0.682780 0.982809
Zn2   Zn    Zn3+2 0.500000 0.500000 0.317220 1.012876
C7    C     C_R   0.297496 0.558956 0.350990 0.046710
C8    C     C_R   0.697340 0.381259 0.379089 0.042996
C9    C     C_R   0.293225 0.465598 0.636603 0.037924
C10   C     C_R   0.707506 0.549477 0.616397 0.033027
C11   C     C_R   0.325626 0.509629 0.496925 -0.155314
C12   C     C_R   0.672947 0.476030 0.499272 -0.140816
C13   C     C_R   0.875888 0.563847 0.386695 0.487820
C14   C     C_R   0.121448 0.353602 0.488007 0.491430
C15   C     C_R   0.882017 0.325590 0.522921 0.480757
C16   C     C_R   0.113259 0.615043 0.429818 0.510578
N1    N     N_R   0.851380 0.443842 0.462069 -0.362382
N2    N     N_R   0.145481 0.490997 0.464913 -0.366987
C17   C     C_R   0.941845 0.325493 0.513224 -0.085757
C18   C     C_R   0.054610 0.601070 0.402372 -0.051077
C19   C     C_R   0.935423 0.575737 0.381053 -0.057762
C20   C     C_R   0.061946 0.340504 0.498850 -0.084804
C21   C     C_R   0.968464 0.455121 0.447026 -0.060902
C22   C     C_R   0.028289 0.465147 0.448664 -0.075409
C23   C     C_R   0.975979 0.203247 0.570638 0.107455
C24   C     C_R   0.022159 0.717584 0.329333 0.128616
C25   C     C_R   0.963100 0.703817 0.314281 0.039818
C26   C     C_R   0.035230 0.209780 0.560874 0.091069
C27   C     C_1   0.500093 0.065202 0.500552 -0.181145
C28   C     C_1   0.500067 0.934800 0.499439 -0.180968
C29   C     C_R   0.237864 0.549131 0.338116 0.009937
C30   C     C_R   0.756947 0.367588 0.367869 0.008377
C31   C     C_R   0.233563 0.468144 0.628324 0.064521
C32   C     C_R   0.766932 0.532480 0.609203 0.038325
N3    N     N_1   0.500000 0.500000 0.073640 -0.029747
N4    N     N_1   0.500000 0.500000 0.926360 -0.036245
O9    O     O_2   0.841865 0.671519 0.321530 -0.545637
O10   O     O_2   0.155575 0.231927 0.501407 -0.541374
O11   O     O_2   0.853879 0.210705 0.593351 -0.560788
O12   O     O_2   0.138283 0.750564 0.421734 -0.512406
N5    N     N_3   0.952314 0.069437 0.641230 -0.417205
H1    H     H_    0.925609 0.018578 0.555216 0.229394
H2    H     H_    0.930322 0.096099 0.749257 0.243814
N6    N     N_3   0.049504 0.847346 0.260835 -0.370725
H3    H     H_    0.041611 0.850500 0.133595 0.205535
H4    H     H_    0.031284 0.943132 0.312966 0.205070
N7    N     N_3   0.933060 0.822767 0.230044 -0.457445
H5    H     H_    0.905682 0.876949 0.311974 0.247459
H6    H     H_    0.910715 0.779094 0.129615 0.253914
N8    N     N_3   0.066881 0.084913 0.628046 -0.408616
H7    H     H_    0.094164 0.122565 0.720985 0.237140
H8    H     H_    0.089892 0.032673 0.534290 0.275709
C33   C     C_2   0.207672 0.577623 0.178286 0.529073
H9    H     H_    0.168751 0.517969 0.150691 0.066568
O13   O     O_2   0.224355 0.670297 0.078287 -0.580790
C34   C     C_2   0.785306 0.277916 0.235726 0.477671
H10   H     H_    0.829229 0.299506 0.203180 0.069752
O14   O     O_2   0.761051 0.176979 0.163699 -0.556498
C35   C     C_2   0.198562 0.432691 0.776673 0.535670
H11   H     H_    0.156155 0.480339 0.788434 0.029500
O15   O     O_2   0.215656 0.346860 0.884399 -0.552154
C36   C     C_2   0.805333 0.605024 0.732462 0.498772
H12   H     H_    0.850468 0.578905 0.734288 0.037850
O16   O     O_2   0.787647 0.694659 0.833685 -0.509452
N9    N     N_3   0.330251 0.617115 0.215862 -0.410029
H13   H     H_    0.322570 0.552501 0.111308 0.224527
H14   H     H_    0.318487 0.728685 0.193722 0.242923
N10   N     N_3   0.660596 0.300735 0.269222 -0.414131
H15   H     H_    0.670314 0.329176 0.147013 0.230635
H16   H     H_    0.666219 0.185651 0.288848 0.239097
N11   N     N_3   0.319859 0.418446 0.788347 -0.380941
H17   H     H_    0.342628 0.507933 0.837214 0.208486
H18   H     H_    0.346780 0.327094 0.765815 0.215684
N12   N     N_3   0.682941 0.644863 0.739809 -0.359208
H19   H     H_    0.659486 0.579640 0.822470 0.217884
H20   H     H_    0.656427 0.724496 0.682643 0.196336

loop_
_geom_bond_atom_site_label_1
_geom_bond_atom_site_label_2
_geom_bond_distance
_ccdc_geom_bond_type
C34   O14   1.220102 D    
C33   O13   1.220311 D    
O7    C6    1.278807 A    
O3    C2    1.258884 A    
N11   H17   1.043860 S    
N3    N4    1.191786 T    
O1    C1    1.261212 A    
C24   C25   1.399322 A    
C9    C11   1.419708 A    
N12   H20   1.045661 S    
C16   O12   1.349640 S    
N10   H16   1.045021 S    
N7    H6    1.045376 S    
C17   C21   1.421112 A    
N8    H8    1.043809 S    
C35   O15   1.220891 D    
C4    C30   1.408550 A    
C10   C32   1.405159 A    
C32   C36   1.496749 S    
C19   C21   1.421876 A    
C3    C31   1.410910 A    
O1    Zn1   1.953294 S    
C20   C26   1.417955 A    
O2    Zn2   1.953293 S    
O5    Zn1   2.003793 S    
C34   H10   1.084537 S    
O6    Zn2   2.003791 S    
O2    C2    1.261202 A    
N11   H18   1.045430 S    
C9    C31   1.403551 A    
C15   O11   1.347822 S    
C15   C17   1.408538 A    
N6    H4    1.045249 S    
C13   O9    1.348330 S    
C18   C22   1.413999 A    
C4    N1    1.429225 S    
N5    H1    1.044110 S    
C14   O10   1.348241 S    
C23   C26   1.396652 A    
N12   H19   1.044719 S    
C36   O16   1.220733 D    
C27   C28   1.163401 T    
N10   H15   1.045554 S    
O4    C1    1.258865 A    
C10   N12   1.436633 S    
C7    C11   1.416930 A    
C19   C25   1.423025 A    
N8    H7    1.045557 S    
N5    H2    1.045107 S    
C13   C19   1.404891 A    
O4    Zn2   1.947875 S    
N9    H13   1.043253 S    
C14   C20   1.407166 A    
C8    N10   1.437229 S    
C21   C22   1.409542 A    
C5    C11   1.481824 S    
N9    H14   1.044995 S    
C26   N8    1.437117 S    
C10   C12   1.413910 A    
C16   C18   1.402003 A    
C13   N1    1.360831 A    
C1    C27   1.362699 S    
C23   N5    1.436179 S    
C2    C28   1.362731 S    
C29   C33   1.492266 S    
O3    Zn1   1.947874 S    
C30   C34   1.495713 S    
N6    H3    1.045703 S    
O6    C6    1.278268 A    
C8    C12   1.413512 A    
C14   N2    1.365268 A    
C36   H12   1.084360 S    
O8    C5    1.283081 A    
Zn2   N3    1.971044 S    
C15   N1    1.360929 A    
C17   C23   1.423143 A    
C16   N2    1.363773 A    
C18   C24   1.409658 A    
C6    C12   1.466526 S    
C8    C30   1.408566 A    
O7    Zn1   2.006331 S    
C4    C32   1.412265 A    
O8    Zn2   2.006333 S    
N7    H5    1.044131 S    
C3    N2    1.437275 S    
C3    C29   1.410129 A    
C35   H11   1.085320 S    
C7    C29   1.408399 A    
C24   N6    1.436785 S    
C33   H9    1.085084 S    
O5    C5    1.282919 A    
C31   C35   1.490923 S    
C7    N9    1.435583 S    
Zn1   N4    1.971044 S    
C9    N11   1.435104 S    
C25   N7    1.436557 S    
C20   C22   1.415902 A    
