data_mof_unit_37091.cif
_audit_creation_date              2012-12-10T17:35:04-0500
_audit_creation_method            fapswitch 2.2
_symmetry_space_group_name_H-M    P1
_symmetry_Int_Tables_number       1
_space_group_crystal_system       triclinic
_cell_length_a                    12.3321
_cell_length_b                    13.171921
_cell_length_c                    13.872489
_cell_angle_alpha                 105.074227
_cell_angle_beta                  73.856083
_cell_angle_gamma                 116.656891
_cell_volume                      1910.29386187

loop_
_atom_site_label
_atom_site_type_symbol
_atom_type_description
_atom_site_fract_x
_atom_site_fract_y
_atom_site_fract_z
_atom_type_partial_charge
C1    C     C_R   0.144573 0.713546 0.507205 0.773035
C2    C     C_1   0.974929 0.506863 0.791565 -0.172349
C3    C     C_R   0.739571 0.973844 0.369168 -0.126892
C4    C     C_R   0.775048 0.164414 0.463460 -0.044561
C5    C     C_R   0.178139 0.917934 0.561748 -0.187298
C6    C     C_R   0.254896 0.034061 0.575620 -0.161809
C7    C     C_R   0.381620 0.070291 0.541574 -0.179151
C8    C     C_R   0.434187 0.990381 0.488877 0.075549
C9    C     C_R   0.353795 0.874320 0.462887 0.036239
C10   C     C_R   0.563753 0.022206 0.460352 -0.004305
C11   C     C_R   0.611027 0.941812 0.396594 0.118438
C12   C     C_R   0.984289 0.504238 0.686346 0.829967
C13   C     C_R   0.529817 0.831733 0.359731 0.373279
C14   C     C_R   0.402436 0.799945 0.391532 -0.306721
C15   C     C_R   0.647979 0.131426 0.495596 -0.224609
C16   C     C_R   0.820974 0.084694 0.401725 -0.231055
C17   C     C_R   0.226364 0.836563 0.507856 -0.076122
C18   C     C_R   0.642567 0.678602 0.657616 -0.298409
C19   C     C_R   0.248814 0.347685 0.367522 -0.019142
C20   C     C_R   0.343883 0.309966 0.341495 0.447992
C21   C     C_R   0.446151 0.370126 0.389804 -0.283379
C22   C     C_R   0.450325 0.463560 0.468567 -0.067417
C23   C     C_R   0.856073 0.286161 0.485092 0.798978
C24   C     C_R   0.347727 0.495171 0.495244 0.260827
C25   C     C_R   0.551123 0.525508 0.522886 0.004229
C26   C     C_R   0.546350 0.616695 0.602784 0.175089
C27   C     C_R   0.445075 0.645057 0.628389 -0.277306
C28   C     C_R   0.347760 0.585181 0.576435 -0.147451
C29   C     C_R   0.656995 0.501112 0.502250 0.034292
C30   C     C_R   0.743517 0.650129 0.633682 0.076260
C31   C     C_R   0.015783 0.495907 0.313667 0.806866
C32   C     C_1   0.025063 0.493904 0.208590 -0.153081
C33   C     C_2   0.038488 0.491197 0.015214 -0.195925
C34   C     C_2   0.956075 0.511826 0.986868 0.442395
C35   C     C_1   0.966134 0.509240 0.880385 -0.129260
C36   C     C_1   0.032226 0.492428 0.120237 0.092428
Cu1   Cu    Cu3+1 0.899780 0.525060 0.522890 0.948734
Cu2   Cu    Cu3+1 0.100220 0.474940 0.477110 0.923532
H1    H     H_    0.342234 0.717493 0.356892 0.174183
H2    H     H_    0.818245 0.697693 0.675597 0.125602
H3    H     H_    0.440352 0.714008 0.690096 0.153134
H4    H     H_    0.639554 0.748455 0.718773 0.142710
H5    H     H_    0.668886 0.433791 0.442682 0.128258
H6    H     H_    0.171236 0.303008 0.328582 0.151585
H7    H     H_    0.520120 0.341425 0.364565 0.155139
H8    H     H_    0.273531 0.611891 0.603837 0.203149
H9    H     H_    0.111632 0.472984 0.959262 0.109211
H10   H     H_    0.919408 0.109029 0.375875 0.157502
H11   H     H_    0.777801 0.914235 0.320598 0.194843
H12   H     H_    0.617127 0.193248 0.548589 0.151034
H13   H     H_    0.080880 0.891718 0.594869 0.153781
H14   H     H_    0.435339 0.161761 0.555244 0.127951
H15   H     H_    0.216385 0.096278 0.615829 0.145595
N1    N     N_R   0.748810 0.563010 0.557590 -0.183410
N2    N     N_R   0.250540 0.437620 0.443020 -0.238045
O1    O     O_R   0.025040 0.682470 0.528790 -0.582130
O2    O     O_R   0.194310 0.640150 0.490130 -0.601349
O3    O     O_R   0.903380 0.524130 0.659910 -0.572310
O4    O     O_R   0.072660 0.481800 0.621240 -0.590923
O5    O     O_R   0.805690 0.359850 0.509870 -0.590578
O6    O     O_R   0.974960 0.317530 0.471210 -0.586100
O7    O     O_R   0.927340 0.518200 0.378760 -0.559984
O8    O     O_R   0.096620 0.475870 0.340090 -0.586161
O9    O     O_3   0.863364 0.534887 0.058643 -0.699467
H16   H     H_    0.812363 0.547621 0.022717 0.331900
O10   O     O_3   0.338676 0.217949 0.264383 -0.573339
C37   C     C_3   0.321296 0.123728 0.306342 -0.292406
H17   H     H_    0.239643 0.103272 0.369452 0.155937
H18   H     H_    0.405375 0.139063 0.332830 0.166538
H19   H     H_    0.303685 0.046903 0.246278 0.197442
O11   O     O_3   0.576554 0.756292 0.293122 -0.733145
H20   H     H_    0.507373 0.681762 0.276723 0.331962

loop_
_geom_bond_atom_site_label_1
_geom_bond_atom_site_label_2
_ccdc_geom_bond_type
C2    C35   T    
C4    C16   A    
C9    C14   A    
C6    C7    A    
C18   C30   A    
C1    O2    A    
Cu2   O2    S    
C30   N1    A    
C27   H3    S    
C1    C17   S    
Cu1   O3    S    
C18   C26   A    
C28   H8    S    
Cu2   O6    S    
C12   O3    A    
O9    H16   S    
C37   H19   S    
C4    C15   A    
C34   O9    S    
O10   C37   S    
C3    H11   S    
C2    C12   S    
O11   H20   S    
C21   C22   A    
C29   H5    S    
C24   N2    A    
C11   C13   A    
C31   O7    A    
C16   H10   S    
C26   C27   A    
Cu1   Cu2   S    
Cu1   O7    S    
C5    C6    A    
Cu1   N1    S    
C32   C36   T    
C20   O10   S    
C12   O4    A    
C1    O1    A    
C7    H14   S    
C33   C34   D    
C21   H7    S    
C10   C15   A    
C18   H4    S    
C25   C29   A    
C23   O5    A    
C33   H9    S    
C22   C24   A    
Cu1   O5    S    
C5    C17   A    
C10   C11   A    
Cu2   N2    S    
C6    H15   S    
C30   H2    S    
C37   H17   S    
C20   C21   A    
C31   O8    A    
C23   O6    A    
C33   C36   S    
C3    C11   A    
C19   H6    S    
C24   C28   A    
C8    C10   A    
C34   C35   S    
C29   N1    A    
C15   H12   S    
C9    C17   A    
C27   C28   A    
C4    C23   S    
C7    C8    A    
C19   N2    A    
C5    H13   S    
C13   O11   S    
C13   C14   A    
C25   C26   A    
Cu2   O8    S    
Cu1   O1    S    
C31   C32   S    
C3    C16   A    
C19   C20   A    
Cu2   O4    S    
C14   H1    S    
C8    C9    A    
C37   H18   S    
C22   C25   A    
