data_mof_unit_62136.cif
_audit_creation_date              2012-10-26T21:25:35-0400
_audit_creation_method            fapswitch 2.2
_symmetry_space_group_name_H-M    P1
_symmetry_Int_Tables_number       1
_space_group_crystal_system       triclinic
_cell_length_a                    16.038872
_cell_length_b                    14.782932
_cell_length_c                    14.366414
_cell_angle_alpha                 89.998365
_cell_angle_beta                  89.984769
_cell_angle_gamma                 89.99958
_cell_volume                      3406.29896488

loop_
_atom_site_label
_atom_site_type_symbol
_atom_type_description
_atom_site_fract_x
_atom_site_fract_y
_atom_site_fract_z
_atom_type_partial_charge
C1    C     C_1   0.252169 0.500001 0.500017 -0.005326
C2    C     C_R   0.659033 0.500000 0.499975 0.554724
C3    C     C_R   0.500000 0.500001 0.330603 0.541698
C4    C     C_R   0.500000 0.499999 0.669397 0.541701
C5    C     C_1   0.500000 0.802467 0.500000 0.159461
C6    C     C_1   0.500000 0.197532 0.500000 0.159461
C7    C     C_1   0.500000 0.500003 0.228420 -0.016573
C8    C     C_1   0.500000 0.499997 0.771580 -0.016569
C9    C     C_1   0.500000 0.500002 0.143136 -0.016107
C10   C     C_1   0.500000 0.499998 0.856864 -0.016105
C11   C     C_1   0.500000 0.500001 0.042641 0.023740
C12   C     C_1   0.747830 0.499999 0.499976 -0.005327
C13   C     C_1   0.500000 0.499999 0.957359 0.023740
C14   C     C_R   0.575794 0.951840 0.502815 -0.027675
C15   C     C_R   0.424206 0.048160 0.497184 -0.027674
C16   C     C_R   0.424207 0.951842 0.497184 -0.027669
C17   C     C_R   0.575793 0.048158 0.502816 -0.027669
C18   C     C_R   0.956399 0.583135 0.500836 0.285963
C19   C     C_R   0.043601 0.416866 0.499131 0.285958
C20   C     C_R   0.043597 0.583133 0.500827 0.285920
C21   C     C_R   0.956403 0.416868 0.499142 0.285917
C22   C     C_1   0.654158 0.096990 0.505730 0.225826
C23   C     C_R   0.912357 0.500002 0.499989 -0.082629
C24   C     C_1   0.345842 0.903010 0.494268 0.225827
C25   C     C_1   0.345837 0.096993 0.494274 0.225819
C26   C     C_1   0.654164 0.903007 0.505722 0.225818
C27   C     C_R   0.087643 0.499999 0.499982 -0.082628
C28   C     C_1   0.822663 0.499999 0.499981 -0.063932
C29   C     C_1   0.177337 0.500001 0.500004 -0.063930
C30   C     C_R   0.500000 0.902821 0.500000 -0.046414
C31   C     C_R   0.500000 0.097179 0.500000 -0.046414
C32   C     C_R   0.340967 0.500000 0.500025 0.554724
Cu1   Cu    Cu3+1 0.500000 0.589220 0.500000 1.029085
Cu2   Cu    Cu3+1 0.500000 0.410780 0.500000 1.029085
H1    H     H_    0.143899 0.659956 0.501496 0.337430
H2    H     H_    0.856101 0.340048 0.498448 0.337425
H3    H     H_    0.856089 0.659975 0.501559 0.337434
H4    H     H_    0.143909 0.340028 0.498365 0.337440
N1    N     N_1   0.500000 0.276710 0.500000 -0.172986
N2    N     N_1   0.500000 0.723290 0.500000 -0.172986
N3    N     N_1   0.716677 0.136025 0.508058 -0.226858
N4    N     N_1   0.283324 0.863975 0.491939 -0.226861
N5    N     N_1   0.283314 0.136030 0.491951 -0.226851
N6    N     N_1   0.716688 0.863970 0.508042 -0.226850
O1    O     O_R   0.380310 0.575320 0.500020 -0.481122
O2    O     O_3   0.917371 0.333233 0.498301 -0.591124
O3    O     O_3   0.917365 0.666772 0.501690 -0.591113
O4    O     O_3   0.082636 0.333228 0.498272 -0.591119
O5    O     O_R   0.619690 0.424680 0.499980 -0.481121
O6    O     O_R   0.619690 0.575320 0.499980 -0.481125
O7    O     O_R   0.380310 0.424680 0.500020 -0.481125
O8    O     O_R   0.500000 0.575360 0.376050 -0.474793
O9    O     O_R   0.500000 0.424640 0.623950 -0.474791
O10   O     O_R   0.500000 0.575360 0.623950 -0.474799
O11   O     O_R   0.500000 0.424640 0.376050 -0.474801
O12   O     O_3   0.082629 0.666767 0.501669 -0.591132

loop_
_geom_bond_atom_site_label_1
_geom_bond_atom_site_label_2
_ccdc_geom_bond_type
C3    O8    A    
C32   O7    A    
C15   C31   A    
C6    N1    T    
C2    O5    A    
C4    O9    A    
C27   C29   S    
Cu1   O1    S    
C32   O1    A    
H4    O4    S    
C17   C22   S    
C4    C8    S    
C20   O12   S    
C2    C12   S    
C18   O3    S    
C25   N5    T    
C1    C29   T    
Cu1   Cu2   S    
H1    O12   S    
C26   N6    T    
Cu2   O11   S    
C16   C24   S    
C23   C28   S    
C14   C26   S    
Cu1   O8    S    
H2    O2    S    
C9    C11   S    
C14   C17   A    
Cu2   O7    S    
C14   C30   A    
C19   C27   A    
C20   C27   A    
C12   C28   T    
C6    C31   S    
C3    C7    S    
C18   C20   A    
C21   C23   A    
C17   C31   A    
C15   C25   S    
C22   N3    T    
H3    O3    S    
C15   C16   A    
C16   C30   A    
C18   C23   A    
Cu1   N2    S    
C11   C13   T    
C24   N4    T    
Cu2   O9    S    
C8    C10   T    
C21   O2    S    
C5    C30   S    
C5    N2    T    
Cu1   O10   S    
C7    C9    T    
C19   O4    S    
Cu2   O5    S    
C2    O6    A    
C19   C21   A    
Cu1   O6    S    
C4    O10   A    
C3    O11   A    
C1    C32   S    
Cu2   N1    S    
C10   C13   S    
