data_mof_unit_22887.cif
_audit_creation_date              2012-12-11T17:10:36-0500
_audit_creation_method            fapswitch 2.2
_symmetry_space_group_name_H-M    P1
_symmetry_Int_Tables_number       1
_space_group_crystal_system       triclinic
_cell_length_a                    14.908276
_cell_length_b                    14.868659
_cell_length_c                    14.928558
_cell_angle_alpha                 109.702209
_cell_angle_beta                  110.094002
_cell_angle_gamma                 109.040716
_cell_volume                      2533.83092503

loop_
_atom_site_label
_atom_site_type_symbol
_atom_type_description
_atom_site_fract_x
_atom_site_fract_y
_atom_site_fract_z
_atom_type_partial_charge
C1    C     C_R   0.201510 0.293225 0.193934 -0.159176
C2    C     C_R   0.473031 0.564418 0.249349 -0.124014
C3    C     C_R   0.494786 0.800232 0.590345 -0.144148
C4    C     C_R   0.595627 0.503364 0.803607 -0.032526
C5    C     C_R   0.702818 0.395569 0.409537 -0.135631
C6    C     C_R   0.431741 0.800746 0.497673 0.083594
C7    C     C_R   0.793503 0.419012 0.501134 0.070830
C8    C     C_R   0.550788 0.548689 0.224599 0.065271
C9    C     C_R   0.825828 0.826820 0.774946 0.077014
C10   C     C_R   0.968916 0.491271 0.205001 -0.130239
C11   C     C_R   0.994981 0.483082 0.300247 -0.135997
C12   C     C_R   0.563494 0.561806 0.866613 0.102288
C13   C     C_R   0.948278 0.379454 0.291649 0.104569
C14   C     C_R   0.873802 0.284756 0.186151 -0.185662
C15   C     C_R   0.845606 0.293835 0.091477 -0.096929
C16   C     C_R   0.432470 0.185445 0.406387 -0.146065
C17   C     C_R   0.893593 0.396754 0.100812 -0.125464
C18   C     C_R   0.865680 0.336101 0.395845 -0.222940
C19   C     C_R   0.871379 0.379037 0.497621 0.043365
C20   C     C_R   0.968545 0.414401 0.593573 0.029086
C21   C     C_R   0.063332 0.431009 0.586847 -0.227389
C22   C     C_R   0.063431 0.421572 0.490035 0.061574
C23   C     C_R   0.449716 0.172548 0.497331 0.074285
C24   C     C_R   0.961492 0.372453 0.391926 0.026464
C25   C     C_R   0.063488 0.531804 0.799688 -0.169669
C26   C     C_R   0.069985 0.551241 0.900607 -0.105193
C27   C     C_R   0.988234 0.474929 0.903727 -0.102823
C28   C     C_R   0.274207 0.537009 0.589884 -0.119466
C29   C     C_R   0.899405 0.379039 0.805842 -0.121169
C30   C     C_R   0.892499 0.359113 0.704485 -0.144238
C31   C     C_R   0.974643 0.435467 0.700554 0.114511
C32   C     C_R   0.652322 0.547116 0.030747 -0.068094
C33   C     C_R   0.601131 0.595742 0.982594 0.079452
C34   C     C_R   0.169528 0.464284 0.494835 0.047588
C35   C     C_R   0.574058 0.665911 0.044336 -0.183480
C36   C     C_R   0.572970 0.664104 0.137138 -0.192936
C37   C     C_R   0.598352 0.591699 0.167333 0.107356
C38   C     C_R   0.651849 0.545649 0.122365 0.061243
C39   C     C_3   0.639736 0.432836 0.082681 -0.629163
C40   C     C_R   0.527611 0.276006 0.591151 -0.123754
C41   C     C_3   0.639749 0.434607 0.982406 0.676140
C42   C     C_R   0.337462 0.873300 0.393882 0.160124
C43   C     C_R   0.391595 0.877618 0.493949 0.026901
C44   C     C_R   0.422514 0.968814 0.591966 -0.209436
C45   C     C_R   0.402317 0.706564 0.407245 -0.159565
C46   C     C_R   0.426263 0.063943 0.591472 -0.184738
C47   C     C_R   0.400036 0.067629 0.493207 0.025398
C48   C     C_R   0.342105 0.967305 0.393437 0.172026
C49   C     C_3   0.350771 0.936205 0.291429 -0.527270
C50   C     C_3   0.344951 0.833301 0.291709 -0.527667
C51   C     C_R   0.025948 0.127013 0.955510 0.167930
C52   C     C_R   0.184182 0.439622 0.404833 -0.129975
C53   C     C_R   0.120005 0.122207 0.010414 0.030983
C54   C     C_R   0.126044 0.029223 0.953346 -0.194017
C55   C     C_R   0.029933 0.933551 0.861571 -0.199729
C56   C     C_R   0.797130 0.490223 0.592120 -0.149415
C57   C     C_R   0.928029 0.930864 0.828131 0.027613
C58   C     C_R   0.930684 0.032314 0.865996 0.183233
C59   C     C_3   0.859355 0.068397 0.900445 -0.554247
C60   C     C_3   0.963447 0.171881 0.997316 -0.515121
C61   C     C_R   0.501599 0.592451 0.803387 -0.155108
C62   C     C_R   0.290883 0.200106 0.194127 -0.136958
C63   C     C_R   0.198401 0.199379 0.128926 0.082498
C64   C     C_R   0.568248 0.475200 0.255071 -0.136710
C65   C     C_R   0.721824 0.814254 0.745896 -0.147498
C66   C     C_R   0.815351 0.723541 0.750053 -0.130636
F1    F     F_    0.538537 0.356389 0.886875 -0.703219
H1    H     H_    0.155367 0.330414 0.165509 0.109170
H2    H     H_    0.005039 0.571165 0.212054 0.109321
H3    H     H_    0.049564 0.557535 0.380626 0.116589
H4    H     H_    0.659730 0.483832 0.832593 0.072473
H5    H     H_    0.834801 0.204432 0.177553 0.115652
H6    H     H_    0.786127 0.220990 0.010720 0.126279
H7    H     H_    0.788895 0.296990 0.319908 0.121516
H8    H     H_    0.138459 0.457811 0.659444 0.130153
H9    H     H_    0.127167 0.592504 0.798838 0.106986
H10   H     H_    0.138459 0.625594 0.976494 0.104977
H11   H     H_    0.994215 0.490536 0.982245 0.094751
H12   H     H_    0.849839 0.518605 0.677743 0.115460
H13   H     H_    0.836070 0.320060 0.808546 0.106223
H14   H     H_    0.823485 0.284330 0.629301 0.114991
H15   H     H_    0.541616 0.711902 0.014774 0.115795
H16   H     H_    0.374010 0.124305 0.320673 0.110944
H17   H     H_    0.539119 0.708196 0.175291 0.118408
H18   H     H_    0.713802 0.434127 0.136902 0.171196
H19   H     H_    0.559577 0.368233 0.061477 0.231202
H20   H     H_    0.711697 0.434279 0.976025 -0.031877
H21   H     H_    0.456920 0.972866 0.670792 0.131631
H22   H     H_    0.463158 0.137460 0.669875 0.170944
H23   H     H_    0.627198 0.448735 0.253955 0.118659
H24   H     H_    0.277443 0.918868 0.219558 0.191609
H25   H     H_    0.431930 0.991945 0.306301 0.199121
H26   H     H_    0.267935 0.756821 0.220414 0.186230
H27   H     H_    0.294658 0.573937 0.675106 0.093020
H28   H     H_    0.422515 0.831403 0.306376 0.200148
H29   H     H_    0.199883 0.024173 0.986747 0.125234
H30   H     H_    0.034175 0.859258 0.828111 0.128275
H31   H     H_    0.807449 0.084094 0.840525 0.195429
H32   H     H_    0.815514 0.017390 0.927755 0.199857
H33   H     H_    0.972536 0.247165 0.992668 0.202022
H34   H     H_    0.697467 0.875068 0.747800 0.112321
H35   H     H_    0.976554 0.177821 0.077527 0.206190
H36   H     H_    0.560275 0.297202 0.676577 0.127884
H37   H     H_    0.123681 0.381756 0.318729 0.118174
H38   H     H_    0.476668 0.651869 0.831633 0.087501
H39   H     H_    0.324105 0.149246 0.165952 0.084455
H40   H     H_    0.337630 0.669552 0.323121 0.103452
H41   H     H_    0.879065 0.701816 0.760145 0.097268
H42   H     H_    0.440620 0.617310 0.237545 0.093347
H43   H     H_    0.517699 0.852182 0.674400 0.085499
H44   H     H_    0.664329 0.331900 0.324841 0.086562
H45   H     H_    0.870934 0.403083 0.027185 0.095168
N1    N     N_R   0.291070 0.347930 0.293870 -0.038255
N2    N     N_R   0.497240 0.291100 0.443210 -0.040546
N3    N     N_R   0.347890 0.554050 0.556810 -0.038644
N4    N     N_R   0.554050 0.347900 0.556830 -0.043374
N5    N     N_R   0.291070 0.497250 0.443190 -0.041013
N6    N     N_R   0.497240 0.554030 0.706140 -0.041087
N7    N     N_R   0.347890 0.291110 0.293870 -0.037536
N8    N     N_R   0.445950 0.652100 0.443170 -0.037574
N9    N     N_R   0.708930 0.502750 0.556810 -0.039925
N10   N     N_R   0.502760 0.445970 0.293860 -0.041060
N11   N     N_R   0.652110 0.708890 0.706130 -0.042857
N12   N     N_R   0.708930 0.652070 0.706130 -0.045398
N13   N     N_R   0.445950 0.502780 0.293850 -0.039228
N14   N     N_R   0.502760 0.708900 0.556790 -0.037850
N15   N     N_R   0.652110 0.445950 0.443190 -0.040323
N16   N     N_R   0.554050 0.497220 0.706150 -0.051259
Ni1   Ni    Ni4+2 0.369690 0.500010 0.369700 0.213830
Ni2   Ni    Ni4+2 0.630310 0.499990 0.630300 0.211251
Ni3   Ni    Ni4+2 0.500000 0.369720 0.369720 0.209190
Ni4   Ni    Ni4+2 0.500000 0.630280 0.630280 0.207587

loop_
_geom_bond_atom_site_label_1
_geom_bond_atom_site_label_2
_ccdc_geom_bond_type
C25   C31   A    
C2    H42   S    
C6    C45   A    
N11   Ni4   S    
C27   C29   A    
C59   H32   S    
N2    Ni3   S    
C35   C36   A    
C65   H34   S    
N9    Ni2   S    
C3    C6    A    
C3    N14   A    
N11   N12   A    
C39   C41   S    
C46   H22   S    
C40   N4    A    
C53   C54   A    
C26   C27   A    
C29   C30   A    
C56   H12   S    
N1    Ni1   S    
C18   C24   A    
C36   C37   A    
C37   C38   A    
C36   H17   S    
N9    N15   A    
C30   C31   A    
N8    N14   A    
C50   H28   S    
C10   C17   A    
C23   C40   A    
C1    H1    S    
C28   H27   S    
C18   C19   A    
C46   C47   A    
C9    C66   A    
C53   C63   S    
C13   C14   A    
N1    N7    A    
N6    N16   A    
C60   H35   S    
C19   C20   A    
N3    N5    A    
N7    Ni3   S    
C32   C41   S    
C32   C38   A    
C4    C12   A    
C61   H38   S    
C54   H29   S    
C52   N5    A    
C27   H11   S    
C28   C34   A    
C59   C60   S    
C18   H7    S    
C21   C22   A    
C5    N15   A    
C1    N1    A    
C7    C56   A    
C49   H24   S    
C22   C34   S    
C1    C63   A    
C35   H15   S    
C44   C46   A    
N15   Ni3   S    
N3    Ni4   S    
C41   H20   S    
C11   H3    S    
C26   H10   S    
C23   C47   S    
C4    N16   A    
N8    Ni1   S    
C64   H23   S    
C9    C57   S    
C41   F1    S    
C5    C7    A    
C5    H44   S    
C25   C26   A    
C16   H16   S    
C13   C24   S    
C16   N2    A    
C51   C53   A    
C43   C44   A    
C10   H2    S    
C62   C63   A    
C28   N3    A    
C47   C48   A    
N14   Ni4   S    
C55   H30   S    
N12   Ni2   S    
C51   C58   A    
C42   C48   A    
C62   N7    A    
C42   C50   S    
C45   N8    A    
C48   C49   S    
C15   H6    S    
C8    C64   A    
C16   C23   A    
C7    C19   S    
C6    C43   S    
C55   C57   A    
C66   N12   A    
C8    C37   S    
C39   H18   S    
C49   H25   S    
C17   H45   S    
N10   Ni3   S    
N5    Ni1   S    
C15   C17   A    
C54   C55   A    
C52   H37   S    
C61   N6    A    
C14   H5    S    
C2    C8    A    
C66   H41   S    
C60   H33   S    
N16   Ni2   S    
N2    N4    A    
C50   H26   S    
C62   H39   S    
C21   H8    S    
C34   C52   A    
C25   H9    S    
C56   N9    A    
C30   H14   S    
C58   C59   S    
C32   C33   A    
C40   H36   S    
C12   C61   A    
C11   C13   A    
C57   C58   A    
C38   C39   S    
C29   H13   S    
N10   N13   A    
C64   N10   A    
C33   C35   A    
C22   C24   A    
C65   N11   A    
C9    C65   A    
N6    Ni4   S    
C10   C11   A    
C2    N13   A    
N13   Ni1   S    
N4    Ni2   S    
C20   C21   A    
C49   C50   S    
C42   C43   A    
C59   H31   S    
C14   C15   A    
C51   C60   S    
C3    H43   S    
C39   H19   S    
C12   C33   S    
C44   H21   S    
C4    H4    S    
C45   H40   S    
C20   C31   S    
