data_mof_unit_60035.cif
_audit_creation_date              2012-12-10T18:14:34-0500
_audit_creation_method            fapswitch 2.2
_symmetry_space_group_name_H-M    P1
_symmetry_Int_Tables_number       1
_space_group_crystal_system       triclinic
_cell_length_a                    18.327439
_cell_length_b                    18.352955
_cell_length_c                    36.222196
_cell_angle_alpha                 90.077393
_cell_angle_beta                  89.943496
_cell_angle_gamma                 89.853662
_cell_volume                      12183.737494

loop_
_atom_site_label
_atom_site_type_symbol
_atom_type_description
_atom_site_fract_x
_atom_site_fract_y
_atom_site_fract_z
_atom_type_partial_charge
C1    C     C_R   0.544537 0.048849 0.480711 -0.085914
C2    C     C_R   0.955540 0.451080 0.019289 -0.085892
C3    C     C_R   0.803371 0.695675 0.750593 -0.033026
C4    C     C_R   0.696303 0.196195 0.250007 -0.026391
C5    C     C_R   0.303473 0.804024 0.749952 -0.028733
C6    C     C_R   0.804500 0.696802 0.250425 -0.037029
C7    C     C_R   0.196799 0.304499 0.750394 -0.036709
C8    C     C_R   0.303200 0.195501 0.749606 -0.036702
C9    C     C_R   0.695500 0.803198 0.249575 -0.037019
C10   C     C_R   0.196526 0.695976 0.750048 -0.028736
C11   C     C_R   0.803697 0.303805 0.249992 -0.026397
C12   C     C_R   0.696629 0.804325 0.749407 -0.033022
C13   C     C_R   0.546921 0.046402 0.980741 -0.085171
C14   C     C_R   0.303309 0.195592 0.250443 -0.030315
C15   C     C_R   0.803664 0.303822 0.750002 -0.030249
C16   C     C_R   0.196169 0.696348 0.250010 -0.027454
C17   C     C_2   0.184155 0.703496 0.181003 0.616845
C18   C     C_2   0.824825 0.287895 0.817946 0.612464
C19   C     C_2   0.259760 0.145841 0.189523 0.622824
C20   C     C_2   0.785068 0.896080 0.774931 0.619238
C21   C     C_2   0.825682 0.287002 0.182104 0.614986
C22   C     C_2   0.190055 0.698384 0.819405 0.624209
C23   C     C_2   0.608163 0.719442 0.282212 0.620422
C24   C     C_R   0.452755 0.953663 0.019264 -0.085334
C25   C     C_2   0.393483 0.279554 0.718931 0.632274
C26   C     C_2   0.280098 0.390637 0.716646 0.620604
C27   C     C_2   0.719410 0.606285 0.280164 0.632446
C28   C     C_2   0.299151 0.813114 0.819177 0.618504
C29   C     C_2   0.713105 0.174312 0.182129 0.611864
C30   C     C_2   0.897850 0.784595 0.773312 0.630119
C31   C     C_2   0.142159 0.253556 0.191224 0.620590
C32   C     C_2   0.712380 0.175160 0.817975 0.612378
C33   C     C_2   0.297525 0.814396 0.180911 0.623844
C34   C     C_2   0.675175 0.212104 0.682054 0.612508
C35   C     C_R   0.955470 0.451122 0.980707 -0.084292
C36   C     C_2   0.315844 0.796504 0.318997 0.616888
C37   C     C_2   0.714932 0.603920 0.725069 0.619255
C38   C     C_2   0.240240 0.354159 0.310477 0.622839
C39   C     C_2   0.309944 0.801616 0.680595 0.624248
C40   C     C_2   0.674319 0.212997 0.317896 0.615030
C41   C     C_2   0.106517 0.220446 0.781069 0.632251
C42   C     C_2   0.891836 0.780556 0.217787 0.620410
C43   C     C_2   0.780591 0.893715 0.219836 0.632417
C44   C     C_2   0.219903 0.109363 0.783354 0.620582
C45   C     C_2   0.786895 0.325688 0.317871 0.611915
C46   C     C_R   0.044729 0.548535 0.019297 -0.084293
C47   C     C_2   0.200848 0.686887 0.680823 0.618533
C48   C     C_2   0.357841 0.246444 0.308776 0.620599
C49   C     C_2   0.602150 0.715405 0.726688 0.630149
C50   C     C_2   0.202474 0.685605 0.319089 0.623876
C51   C     C_2   0.787620 0.324840 0.682025 0.612425
C52   C     C_R   0.452759 0.953733 0.980681 -0.085175
C53   C     C_R   0.546917 0.046332 0.019324 -0.084036
C54   C     C_1   0.499839 0.000182 0.421733 -0.024602
C55   C     C_1   0.500052 0.000071 0.578264 -0.023685
C56   C     C_1   0.000147 0.500110 0.421726 -0.022791
C57   C     C_R   0.455264 0.951494 0.519285 -0.085575
C58   C     C_1   0.000112 0.499870 0.578270 -0.024664
C59   C     C_1   0.999948 0.499929 0.921736 -0.023664
C60   C     C_1   0.000161 0.499818 0.078267 -0.024579
C61   C     C_1   0.499891 0.000130 0.921730 -0.024523
C62   C     C_1   0.499857 0.999889 0.078274 -0.022641
C63   C     C_1   0.000121 0.499872 0.111492 0.037750
C64   C     C_1   0.999925 0.499969 0.888510 0.040786
C65   C     C_1   0.499898 0.999882 0.111502 0.040660
C66   C     C_1   0.499938 0.000121 0.888502 0.039583
C67   C     C_1   0.500075 0.000031 0.611489 0.040769
C68   C     C_R   0.042790 0.550463 0.480742 -0.085733
C69   C     C_1   0.499879 0.000128 0.388508 0.037732
C70   C     C_1   0.000063 0.499879 0.611498 0.039543
C71   C     C_1   0.000103 0.500118 0.388498 0.040618
C72   C     C_R   0.000037 0.500042 0.348995 0.517308
C73   C     C_R   0.000009 0.499958 0.651004 0.511748
C74   C     C_R   0.499962 0.000045 0.349009 0.510055
C75   C     C_R   0.500029 0.999999 0.650990 0.521817
C76   C     C_R   0.499991 0.000042 0.848996 0.511653
C77   C     C_R   0.499963 0.999958 0.151005 0.517216
C78   C     C_R   0.999971 0.500001 0.849010 0.521810
C79   C     C_R   0.957550 0.449473 0.519252 -0.085316
C80   C     C_R   0.000037 0.499955 0.150991 0.510047
C81   C     C_R   0.139690 0.359725 0.249656 0.573068
C82   C     C_R   0.859525 0.639512 0.749819 0.559654
C83   C     C_R   0.640071 0.139987 0.249992 0.579511
C84   C     C_R   0.359941 0.859981 0.749948 0.568940
C85   C     C_R   0.860617 0.640591 0.249691 0.559048
C86   C     C_R   0.140582 0.360604 0.749687 0.559869
C87   C     C_R   0.359929 0.859958 0.249982 0.573840
C88   C     C_R   0.640073 0.140026 0.749996 0.575676
C89   C     C_R   0.140059 0.640019 0.750052 0.568943
C90   C     C_R   0.455194 0.951536 0.480703 -0.084312
C91   C     C_R   0.859929 0.360013 0.250008 0.579513
C92   C     C_R   0.640475 0.860488 0.750181 0.559647
C93   C     C_R   0.360309 0.140274 0.250344 0.573071
C94   C     C_R   0.859928 0.359973 0.750004 0.575677
C95   C     C_R   0.140070 0.640042 0.250018 0.573845
C96   C     C_R   0.359418 0.139396 0.750312 0.559863
C97   C     C_R   0.639383 0.859409 0.250309 0.559039
C98   C     C_R   0.220400 0.725363 0.216056 0.003757
C99   C     C_R   0.784088 0.270140 0.783604 0.005356
C100  C     C_R   0.253573 0.198624 0.220733 0.007040
C101  C     C_R   0.544607 0.048807 0.519293 -0.084314
C102  C     C_R   0.768120 0.821901 0.760803 0.001297
C103  C     C_R   0.784527 0.269687 0.216416 0.006306
C104  C     C_R   0.222689 0.723399 0.784022 0.007486
C105  C     C_R   0.680083 0.733909 0.264581 0.006162
C106  C     C_R   0.319654 0.264460 0.734510 0.005077
C107  C     C_R   0.265908 0.319371 0.734865 0.006481
C108  C     C_R   0.735000 0.680187 0.264995 0.004728
C109  C     C_R   0.276177 0.778116 0.783967 0.006053
C110  C     C_R   0.730369 0.215458 0.216427 0.005096
C111  C     C_R   0.822010 0.767204 0.761365 0.005579
C112  C     C_R   0.957554 0.449541 0.480670 -0.084152
C113  C     C_R   0.199350 0.253175 0.220458 0.003563
C114  C     C_R   0.730007 0.215854 0.783607 0.002199
C115  C     C_R   0.274788 0.779227 0.216044 0.009260
C116  C     C_R   0.715912 0.229859 0.716396 0.005343
C117  C     C_R   0.279599 0.774637 0.283944 0.003754
C118  C     C_R   0.731880 0.678099 0.739197 0.001286
C119  C     C_R   0.246427 0.301375 0.279266 0.007004
C120  C     C_R   0.277310 0.776601 0.715978 0.007488
C121  C     C_R   0.715473 0.230313 0.283584 0.006293
C122  C     C_R   0.180346 0.235540 0.765490 0.005082
C123  C     C_R   0.042785 0.550395 0.519326 -0.085545
C124  C     C_R   0.819917 0.766090 0.235419 0.006167
C125  C     C_R   0.765000 0.819813 0.235005 0.004744
C126  C     C_R   0.234092 0.180629 0.765135 0.006501
C127  C     C_R   0.769632 0.284541 0.283573 0.005071
C128  C     C_R   0.223823 0.721884 0.716033 0.006055
C129  C     C_R   0.300650 0.246825 0.279542 0.003537
C130  C     C_R   0.677990 0.732796 0.738635 0.005577
C131  C     C_R   0.225211 0.720773 0.283956 0.009262
C132  C     C_R   0.769994 0.284145 0.716393 0.002176
C133  C     C_R   0.499836 0.000207 0.461374 0.036970
C134  C     C_R   0.044659 0.548577 0.980715 -0.085556
C135  C     C_R   0.499979 0.000122 0.538622 0.037046
C136  C     C_R   0.000168 0.500040 0.461371 0.037089
C137  C     C_R   0.000161 0.499903 0.538624 0.036302
C138  C     C_R   0.000021 0.499878 0.961378 0.037059
C139  C     C_R   0.000164 0.499793 0.038626 0.036984
C140  C     C_R   0.499845 0.000099 0.961375 0.036568
C141  C     C_R   0.499840 0.999958 0.038629 0.037378
C142  C     C_R   0.303831 0.803653 0.249990 -0.027454
C143  C     C_R   0.696336 0.196178 0.749998 -0.030244
C144  C     C_R   0.196690 0.304408 0.249557 -0.030321
H1    H     H_    0.079418 0.586413 0.034030 0.140298
H2    H     H_    0.420444 0.913713 0.465970 0.140309
H3    H     H_    0.075913 0.589611 0.534084 0.140372
H4    H     H_    0.924417 0.410332 0.465912 0.142872
H5    H     H_    0.420559 0.913648 0.534011 0.138746
H6    H     H_    0.579251 0.086686 0.465984 0.140551
H7    H     H_    0.924406 0.410216 0.533952 0.142193
H8    H     H_    0.075925 0.589726 0.466041 0.140038
H9    H     H_    0.089952 0.693782 0.152668 0.346553
H10   H     H_    0.922518 0.294122 0.843356 0.354006
H11   H     H_    0.273299 0.041645 0.173173 0.354014
H12   H     H_    0.920770 0.413254 0.965974 0.141916
H13   H     H_    0.794081 0.003495 0.764183 0.367263
H14   H     H_    0.923785 0.294109 0.157042 0.339892
H15   H     H_    0.099128 0.686970 0.850238 0.344087
H16   H     H_    0.498700 0.715274 0.276836 0.368590
H17   H     H_    0.479514 0.347709 0.716208 0.370541
H18   H     H_    0.283269 0.500183 0.721050 0.368151
H19   H     H_    0.651018 0.520413 0.282145 0.370876
H20   H     H_    0.308964 0.906120 0.848490 0.346130
H21   H     H_    0.707063 0.076396 0.156951 0.354440
H22   H     H_    0.984880 0.756703 0.804203 0.372274
H23   H     H_    0.583525 0.082330 0.034076 0.142334
H24   H     H_    0.087590 0.310398 0.152362 0.339093
H25   H     H_    0.705133 0.077511 0.843221 0.348966
H26   H     H_    0.306854 0.907375 0.151726 0.334586
H27   H     H_    0.577482 0.205876 0.656644 0.354032
H28   H     H_    0.410048 0.806218 0.347331 0.346576
H29   H     H_    0.705918 0.496505 0.735818 0.367282
H30   H     H_    0.226702 0.458355 0.326826 0.354105
H31   H     H_    0.400871 0.813030 0.649762 0.344108
H32   H     H_    0.576216 0.205890 0.342958 0.339917
H33   H     H_    0.020486 0.152291 0.783792 0.370509
H34   H     H_    0.416160 0.917727 0.965928 0.139748
H35   H     H_    0.001299 0.784724 0.223160 0.368574
H36   H     H_    0.848983 0.979587 0.217856 0.370835
H37   H     H_    0.216731 0.999817 0.778951 0.368125
H38   H     H_    0.792936 0.423604 0.343049 0.354613
H39   H     H_    0.191035 0.593880 0.651510 0.346298
H40   H     H_    0.412410 0.189602 0.347638 0.339111
H41   H     H_    0.515120 0.743297 0.695797 0.372295
H42   H     H_    0.193145 0.592626 0.348273 0.334755
H43   H     H_    0.794866 0.422488 0.656779 0.349141
H44   H     H_    0.920886 0.413188 0.034016 0.140543
H45   H     H_    0.079304 0.586478 0.965989 0.138735
H46   H     H_    0.416149 0.917610 0.033971 0.139355
H47   H     H_    0.583534 0.082449 0.966036 0.141665
H48   H     H_    0.579367 0.086620 0.534025 0.141922
O1    O     O_3   0.000000 0.500000 0.250000 -0.488336
O2    O     O_R   0.000000 0.560700 0.668450 -0.525858
O3    O     O_R   0.956106 0.773217 0.238199 -0.634849
O4    O     O_2   0.737549 0.922716 0.198623 -0.485414
O5    O     O_R   0.844618 0.929935 0.229887 -0.630067
O6    O     O_2   0.200472 0.107776 0.815653 -0.462682
O7    O     O_R   0.227971 0.044455 0.763522 -0.634985
O8    O     O_2   0.810462 0.293852 0.344988 -0.436048
O9    O     O_R   0.778276 0.401396 0.318518 -0.671035
O10   O     O_2   0.172497 0.723190 0.656451 -0.431530
O11   O     O_R   0.209822 0.611740 0.676226 -0.699565
O12   O     O_2   0.392314 0.301963 0.315289 -0.445331
O13   O     O_R   0.560700 0.000000 0.331550 -0.528374
O14   O     O_R   0.372044 0.182949 0.328820 -0.657103
O15   O     O_2   0.571444 0.661224 0.738631 -0.438143
O16   O     O_R   0.566027 0.761101 0.701803 -0.678326
O17   O     O_2   0.173739 0.721741 0.343490 -0.432651
O18   O     O_R   0.211904 0.610549 0.323568 -0.685357
O19   O     O_2   0.810488 0.292502 0.654840 -0.433396
O20   O     O_R   0.780076 0.400661 0.681361 -0.697812
O21   O     O_R   0.439300 0.000000 0.668450 -0.519052
O22   O     O_R   0.500000 0.060700 0.831550 -0.525884
O23   O     O_R   0.500000 0.939300 0.168450 -0.519670
O24   O     O_R   0.939300 0.500000 0.831550 -0.517573
O25   O     O_R   0.060700 0.500000 0.168450 -0.513375
O26   O     O_R   0.500000 0.939300 0.831550 -0.525761
O27   O     O_R   0.500000 0.060700 0.168450 -0.520745
O28   O     O_R   0.060700 0.500000 0.831550 -0.519036
O29   O     O_3   0.000000 0.500000 0.750000 -0.487760
O30   O     O_R   0.939300 0.500000 0.168450 -0.528358
O31   O     O_R   0.085400 0.353840 0.271430 -0.528159
O32   O     O_R   0.914600 0.646160 0.728570 -0.524012
O33   O     O_R   0.646160 0.085400 0.271430 -0.507959
O34   O     O_R   0.353840 0.914600 0.728570 -0.501975
O35   O     O_R   0.914600 0.646160 0.271430 -0.477758
O36   O     O_R   0.085400 0.353840 0.728570 -0.526069
O37   O     O_R   0.353840 0.914600 0.271430 -0.504806
O38   O     O_R   0.646160 0.085400 0.728570 -0.505317
O39   O     O_R   0.085400 0.646160 0.728570 -0.508199
O40   O     O_3   0.500000 0.000000 0.250000 -0.488362
O41   O     O_R   0.914600 0.353840 0.271430 -0.510123
O42   O     O_R   0.646160 0.914600 0.728570 -0.480063
O43   O     O_R   0.353840 0.085400 0.271430 -0.468698
O44   O     O_R   0.914600 0.353840 0.728570 -0.506982
O45   O     O_R   0.085400 0.646160 0.271430 -0.505136
O46   O     O_R   0.353840 0.085400 0.728570 -0.476883
O47   O     O_R   0.646160 0.914600 0.271430 -0.525909
O48   O     O_R   0.585400 0.853840 0.771430 -0.523973
O49   O     O_R   0.414600 0.146160 0.228570 -0.528098
O50   O     O_R   0.146160 0.585400 0.771430 -0.501948
O51   O     O_3   0.500000 0.000000 0.750000 -0.487787
O52   O     O_R   0.853840 0.414600 0.228570 -0.507924
O53   O     O_R   0.414600 0.146160 0.771430 -0.526021
O54   O     O_R   0.585400 0.853840 0.228570 -0.477717
O55   O     O_R   0.853840 0.414600 0.771430 -0.505286
O56   O     O_R   0.146160 0.585400 0.228570 -0.504772
O57   O     O_R   0.585400 0.146160 0.228570 -0.510068
O58   O     O_R   0.414600 0.853840 0.771430 -0.508156
O59   O     O_R   0.146160 0.414600 0.228570 -0.468659
O60   O     O_R   0.853840 0.585400 0.771430 -0.480038
O61   O     O_R   0.414600 0.853840 0.228570 -0.505093
O62   O     O_R   0.000000 0.560700 0.331550 -0.519765
O63   O     O_R   0.585400 0.146160 0.771430 -0.506931
O64   O     O_R   0.853840 0.585400 0.228570 -0.525879
O65   O     O_R   0.146160 0.414600 0.771430 -0.476851
O66   O     O_2   0.219816 0.676663 0.155877 -0.431213
O67   O     O_R   0.108634 0.711710 0.177392 -0.701196
O68   O     O_2   0.792602 0.312039 0.844888 -0.433535
O69   O     O_R   0.900602 0.279082 0.818822 -0.673389
O70   O     O_2   0.256846 0.167529 0.157640 -0.458299
O71   O     O_R   0.269289 0.071561 0.196629 -0.661302
O72   O     O_2   0.803539 0.904127 0.807107 -0.463905
O73   O     O_R   0.000000 0.439300 0.668450 -0.525991
O74   O     O_R   0.781237 0.956136 0.751325 -0.626814
O75   O     O_2   0.793616 0.309630 0.154843 -0.437184
O76   O     O_R   0.901626 0.279483 0.181588 -0.679442
O77   O     O_2   0.228039 0.668195 0.842538 -0.427636
O78   O     O_R   0.115293 0.707337 0.825553 -0.705409
O79   O     O_2   0.605498 0.700321 0.314514 -0.463233
O80   O     O_R   0.543894 0.726781 0.261798 -0.634790
O81   O     O_2   0.422226 0.235993 0.697831 -0.486355
O82   O     O_R   0.429934 0.343712 0.728473 -0.627679
O83   O     O_2   0.299529 0.392224 0.684347 -0.462556
O84   O     O_R   0.439300 0.000000 0.331550 -0.513391
O85   O     O_R   0.272028 0.455545 0.736479 -0.634942
O86   O     O_2   0.762452 0.577284 0.301377 -0.485336
O87   O     O_R   0.655382 0.570065 0.270114 -0.629992
O88   O     O_2   0.327501 0.776811 0.843549 -0.431300
O89   O     O_R   0.290177 0.888260 0.823774 -0.699671
O90   O     O_2   0.689540 0.206148 0.155011 -0.435896
O91   O     O_R   0.721722 0.098603 0.181481 -0.671126
O92   O     O_2   0.928556 0.838776 0.761368 -0.438234
O93   O     O_R   0.933973 0.738899 0.798196 -0.678335
O94   O     O_2   0.107685 0.198037 0.184711 -0.445448
O95   O     O_R   0.560700 0.000000 0.668450 -0.517589
O96   O     O_R   0.127955 0.317050 0.171180 -0.657062
O97   O     O_2   0.689514 0.207498 0.845160 -0.433245
O98   O     O_R   0.719922 0.099338 0.818639 -0.697900
O99   O     O_2   0.326260 0.778260 0.156510 -0.432422
O100  O     O_R   0.288096 0.889452 0.176432 -0.685455
O101  O     O_2   0.707399 0.187961 0.655112 -0.433609
O102  O     O_R   0.599399 0.220916 0.681178 -0.673342
O103  O     O_2   0.280183 0.823336 0.344123 -0.431307
O104  O     O_R   0.391366 0.788291 0.322607 -0.701145
O105  O     O_2   0.696462 0.595872 0.692893 -0.463782
O106  O     O_R   0.000000 0.439300 0.331550 -0.520857
O107  O     O_R   0.718762 0.543864 0.748675 -0.626766
O108  O     O_2   0.243154 0.332471 0.342359 -0.458283
O109  O     O_R   0.230712 0.428439 0.303370 -0.661247
O110  O     O_2   0.271960 0.831805 0.657462 -0.427744
O111  O     O_R   0.384707 0.792663 0.674448 -0.705355
O112  O     O_2   0.706384 0.190371 0.345156 -0.437258
O113  O     O_R   0.598374 0.220515 0.318412 -0.679387
O114  O     O_2   0.077774 0.264007 0.802169 -0.486365
O115  O     O_R   0.070067 0.156287 0.771527 -0.627755
O116  O     O_2   0.894499 0.799678 0.185484 -0.463309
Zn1   Zn    Zn3+2 0.086700 0.500000 0.219560 1.050901
Zn2   Zn    Zn3+2 0.413300 0.000000 0.280440 1.050838
Zn3   Zn    Zn3+2 1.000000 0.586700 0.719560 1.024732
Zn4   Zn    Zn3+2 1.000000 0.413300 0.280440 1.033632
Zn5   Zn    Zn3+2 0.413300 0.000000 0.719560 1.052660
Zn6   Zn    Zn3+2 0.586700 0.000000 0.280440 1.028276
Zn7   Zn    Zn3+2 1.000000 0.413300 0.719560 1.028733
Zn8   Zn    Zn3+2 1.000000 0.586700 0.280440 1.049621
Zn9   Zn    Zn3+2 0.913300 0.500000 0.780440 1.050448
Zn10  Zn    Zn3+2 0.500000 0.086700 0.219560 1.033763
Zn11  Zn    Zn3+2 0.500000 0.913300 0.780440 1.024830
Zn12  Zn    Zn3+2 0.913300 0.500000 0.219560 1.028337
Zn13  Zn    Zn3+2 0.086700 0.500000 0.780440 1.052716
Zn14  Zn    Zn3+2 0.500000 0.913300 0.219560 1.049722
Zn15  Zn    Zn3+2 0.500000 0.086700 0.780440 1.028846
Zn16  Zn    Zn3+2 0.586700 0.000000 0.719560 1.050392

loop_
_geom_bond_atom_site_label_1
_geom_bond_atom_site_label_2
_ccdc_geom_bond_type
C88   O38   A    
C31   O96   S    
O58   Zn11  S    
H35   O3    S    
C45   O8    D    
C6    C85   S    
C12   C130  A    
C49   C130  S    
C10   C128  A    
C82   O32   A    
C106  C107  A    
C39   C120  S    
O47   Zn6   S    
C4    C110  A    
O106  Zn4   S    
C15   C132  A    
C50   O17   D    
C85   O64   A    
C17   C98   S    
H11   O71   S    
O59   Zn1   S    
C73   O2    A    
C83   O57   A    
C102  C111  A    
C81   O59   A    
C28   O88   D    
O45   Zn8   S    
C37   O105  D    
O24   Zn9   S    
C23   O80   S    
H16   O80   S    
C65   C77   S    
C57   C90   A    
C47   C128  S    
C58   C70   T    
O42   Zn16  S    
C87   O37   A    
C8    C106  A    
H33   O115  S    
O25   Zn1   S    
O51   Zn16  S    
C86   O65   A    
C25   O82   S    
C3    C118  A    
C46   C134  A    
C24   C141  A    
C51   C132  S    
C66   C76   S    
C69   C74   S    
C43   O5    S    
C89   O39   A    
C36   C117  S    
C38   C119  S    
O29   Zn7   S    
C8    C126  A    
C79   C137  A    
O34   Zn5   S    
C48   C129  S    
C31   O94   D    
H9    O67   S    
C1    C101  A    
C96   O53   A    
H22   O93   S    
C14   C100  A    
O40   Zn6   S    
C113  C144  A    
C114  C143  A    
C117  C142  A    
H10   O69   S    
C20   O72   D    
O48   Zn11  S    
C16   C98   A    
H19   O87   S    
C27   C108  S    
H29   O107  S    
O41   Zn4   S    
C42   O3    S    
C9    C125  A    
C50   C131  S    
C11   C91   S    
C36   O104  S    
C57   C135  A    
C24   H46   S    
O37   Zn2   S    
C46   C139  A    
C37   O107  S    
O46   Zn5   S    
C38   O108  D    
H38   O9    S    
C43   C125  S    
C15   C94   S    
H13   O74   S    
C54   C69   T    
C103  C110  A    
C82   O60   A    
C26   O83   D    
C7    C86   S    
C9    C105  A    
C23   C105  S    
C41   O114  D    
C95   O45   A    
C16   C131  A    
C34   O102  S    
C10   C89   S    
C29   O90   D    
C57   H5    S    
H20   O89   S    
C30   O93   S    
C14   C93   S    
C32   O97   D    
C112  C136  A    
C1    C133  A    
C68   C123  A    
C56   C136  S    
H18   O85   S    
C88   O63   A    
C52   H34   S    
C63   C80   S    
C101  C135  A    
C97   O47   A    
O84   Zn2   S    
C20   O74   S    
C80   O25   A    
C5    C84   S    
C77   O27   A    
C59   C138  S    
C75   O21   A    
H31   O111  S    
C47   O10   D    
O1    Zn4   S    
C41   C122  S    
C11   C127  A    
O2    Zn3   S    
C116  C132  A    
C49   O16   S    
C22   O77   D    
O51   Zn5   S    
C7    C107  A    
O31   Zn4   S    
C67   C75   S    
C18   C99   S    
O32   Zn3   S    
H37   O7    S    
C33   O100  S    
C94   O55   A    
H27   O102  S    
C92   O48   A    
C64   C78   S    
C12   C92   S    
C72   O62   A    
C61   C140  S    
O56   Zn1   S    
C123  C137  A    
O1    Zn8   S    
C71   C72   S    
C93   O49   A    
C19   O70   D    
O29   Zn3   S    
C98   C115  A    
O35   Zn8   S    
C119  C129  A    
C117  C131  A    
O43   Zn2   S    
C3    C111  A    
C76   O22   A    
C91   O52   A    
C50   O18   S    
C75   O95   A    
O40   Zn14  S    
C89   O50   A    
C62   C141  S    
C31   C113  S    
C74   O13   A    
O49   Zn10  S    
C2    C35   A    
C24   C52   A    
O40   Zn2   S    
O22   Zn15  S    
C44   O6    D    
C23   O79   D    
C79   C112  A    
C39   O110  D    
C2    C139  A    
C134  H45   S    
C121  C127  A    
H26   O100  S    
H40   O14   S    
O51   Zn15  S    
C25   O81   D    
C21   O76   S    
C78   O28   A    
C51   O20   S    
H24   O96   S    
C81   C144  S    
O55   Zn9   S    
C76   O26   A    
O38   Zn16  S    
C85   O35   A    
C17   O67   S    
C88   C143  S    
C18   O68   D    
C115  C142  A    
C119  C144  A    
H41   O16   S    
C28   O89   S    
C96   O46   A    
C99   C114  A    
C25   C106  S    
C27   O86   D    
C13   C53   A    
O33   Zn6   S    
O30   Zn12  S    
C33   C115  S    
C5    C120  A    
C84   O58   A    
C13   C140  A    
C29   C110  S    
C18   O69   S    
C97   O54   A    
C90   C133  A    
C54   C133  S    
C42   O116  D    
O73   Zn7   S    
C68   H8    S    
O44   Zn7   S    
C56   C71   T    
C70   C73   S    
H30   O109  S    
C47   O11   S    
O1    Zn1   S    
C73   O73   A    
O39   Zn3   S    
O53   Zn15  S    
H42   O18   S    
C77   O23   A    
H28   O104  S    
C91   O41   A    
C38   O109  S    
C9    C97   S    
C72   O106  A    
C19   C100  S    
C120  C128  A    
O29   Zn9   S    
O62   Zn8   S    
O51   Zn11  S    
C4    C83   S    
C5    C109  A    
H32   O113  S    
C52   C140  A    
C4    C121  A    
C53   C141  A    
O26   Zn11  S    
C87   C142  S    
O27   Zn10  S    
C2    H44   S    
H17   O82   S    
C19   O71   S    
C87   O61   A    
H43   O20   S    
C26   O85   S    
C14   C129  A    
C32   O98   S    
C1    H6    S    
O50   Zn13  S    
O63   Zn15  S    
C86   O36   A    
H21   O91   S    
C8    C96   S    
O1    Zn12  S    
C6    C124  A    
C101  H48   S    
C84   O34   A    
C42   C124  S    
C93   O43   A    
C40   C121  S    
C44   C126  S    
C59   C64   T    
C60   C63   T    
C118  C130  A    
C35   C138  A    
C104  C109  A    
C46   H1    S    
C20   C102  S    
C34   C116  S    
C22   C104  S    
C39   O111  S    
C48   O12   D    
C92   O42   A    
C40   O112  D    
H36   O5    S    
C61   C66   T    
C53   H23   S    
C36   O103  D    
C37   C118  S    
C49   O15   D    
O65   Zn13  S    
C22   O78   S    
H15   O78   S    
C33   O99   D    
O95   Zn16  S    
C81   O31   A    
C105  C108  A    
H14   O76   S    
C68   C136  A    
O36   Zn7   S    
C35   H12   S    
O28   Zn13  S    
C78   O24   A    
O57   Zn10  S    
C27   O87   S    
C80   O30   A    
C41   O115  S    
C112  H4    S    
C43   O4    D    
C122  C126  A    
C12   C102  A    
C95   O56   A    
C34   O101  D    
C29   O91   S    
O40   Zn10  S    
C3    C82   S    
C30   O92   D    
C58   C137  S    
C123  H3    S    
C7    C122  A    
C40   O113  S    
C79   H7    S    
C83   O33   A    
C16   C95   S    
C62   C65   T    
O29   Zn13  S    
C100  C113  A    
O23   Zn14  S    
C15   C99   A    
C26   C107  S    
C134  C138  A    
C55   C67   T    
C28   C109  S    
C13   H47   S    
C30   C111  S    
H39   O11   S    
C10   C104  A    
O52   Zn12  S    
C90   H2    S    
H25   O98   S    
O13   Zn6   S    
C94   O44   A    
O61   Zn14  S    
C45   C127  S    
C116  C143  A    
C55   C135  S    
C74   O84   A    
O60   Zn9   S    
O21   Zn5   S    
O54   Zn14  S    
C21   O75   D    
C60   C139  S    
C21   C103  S    
C51   O19   D    
C44   O7    S    
C45   O9    S    
C48   O14   S    
C6    C108  A    
C11   C103  A    
C32   C114  S    
C17   O66   D    
C124  C125  A    
O64   Zn12  S    
