data_mof_unit_34879.cif
_audit_creation_date              2013-03-05T16:00:52-0500
_audit_creation_method            fapswitch 2.2
_symmetry_space_group_name_H-M    P1
_symmetry_Int_Tables_number       1
_space_group_crystal_system       triclinic
_cell_length_a                    21.240685
_cell_length_b                    21.201316
_cell_length_c                    13.974814
_cell_angle_alpha                 90.047465
_cell_angle_beta                  89.976883
_cell_angle_gamma                 90.005808
_cell_volume                      6293.28191921

loop_
_atom_site_label
_atom_site_type_symbol
_atom_site_description
_atom_site_fract_x
_atom_site_fract_y
_atom_site_fract_z
_atom_type_partial_charge
O1    O     O_R   0.066090 0.433930 0.580280 -0.625968
O2    O     O_R   0.933910 0.566070 0.419720 -0.625906
O3    O     O_R   0.933910 0.566070 0.580280 -0.625869
O4    O     O_R   0.066090 0.433930 0.419720 -0.625630
O5    O     O_R   0.933910 0.433930 0.419720 -0.629981
O6    O     O_R   0.066090 0.566070 0.580280 -0.631818
O7    O     O_R   0.066090 0.566070 0.419720 -0.630552
O8    O     O_R   0.933910 0.433930 0.580280 -0.631157
O9    O     O_R   0.566090 0.933930 0.580280 -0.629992
O10   O     O_R   0.433910 0.066070 0.419720 -0.631591
O11   O     O_R   0.433910 0.066070 0.580280 -0.630189
O12   O     O_R   0.566090 0.933930 0.419720 -0.631010
O13   O     O_R   0.433910 0.933930 0.419720 -0.625879
O14   O     O_R   0.566090 0.066070 0.580280 -0.625995
O15   O     O_R   0.566090 0.066070 0.419720 -0.626294
O16   O     O_R   0.433910 0.933930 0.580280 -0.626071
C1    C     C_R   0.086789 0.413211 0.499958 0.895388
C2    C     C_R   0.913485 0.587059 0.500042 0.896420
C3    C     C_R   0.912855 0.413586 0.499987 0.897613
C4    C     C_R   0.087075 0.586482 0.500013 0.896183
C5    C     C_R   0.587099 0.913539 0.499976 0.897093
C6    C     C_R   0.412950 0.086498 0.500057 0.895709
C7    C     C_R   0.413454 0.912975 0.499971 0.896614
C8    C     C_R   0.586494 0.087081 0.499996 0.896436
Zn1   Zn    Zn3+2 0.000000 0.500000 0.607200 0.950608
Zn2   Zn    Zn3+2 0.000000 0.500000 0.392800 0.945641
Zn3   Zn    Zn3+2 0.500000 1.000000 0.607200 0.945191
Zn4   Zn    Zn3+2 0.500000 1.000000 0.392800 0.950399
C9    C     C_R   0.155840 0.659235 0.413299 -0.220391
C10   C     C_R   0.843830 0.341032 0.413230 -0.220151
C11   C     C_R   0.848102 0.663141 0.413693 -0.218501
C12   C     C_R   0.154654 0.339393 0.413192 -0.218220
C13   C     C_R   0.651896 0.163233 0.586393 -0.218624
C14   C     C_R   0.347442 0.837478 0.586413 -0.218845
C15   C     C_R   0.344907 0.160057 0.586880 -0.219667
C16   C     C_R   0.655627 0.840578 0.586664 -0.220098
C17   C     C_R   0.135882 0.633460 0.500038 -0.096005
C18   C     C_R   0.863765 0.366895 0.499957 -0.097327
C19   C     C_R   0.866572 0.635962 0.500210 -0.096035
C20   C     C_R   0.134775 0.365363 0.499936 -0.089510
C21   C     C_R   0.633289 0.136101 0.499849 -0.096135
C22   C     C_R   0.366412 0.864202 0.499808 -0.095638
C23   C     C_R   0.364563 0.133888 0.500162 -0.091332
C24   C     C_R   0.636024 0.866677 0.499977 -0.096911
C25   C     C_R   0.162689 0.652226 0.586776 -0.223026
C26   C     C_R   0.836591 0.348574 0.586636 -0.220910
C27   C     C_R   0.840650 0.655741 0.587056 -0.225148
C28   C     C_R   0.160544 0.345624 0.586831 -0.232383
C29   C     C_R   0.658904 0.156090 0.412941 -0.225575
C30   C     C_R   0.340830 0.844130 0.412896 -0.225855
C31   C     C_R   0.338147 0.152969 0.413407 -0.229379
C32   C     C_R   0.663347 0.848400 0.413351 -0.221467
C33   C     C_R   0.209291 0.698024 0.587949 0.031469
C34   C     C_R   0.789775 0.302986 0.587816 0.033030
C35   C     C_R   0.794815 0.702267 0.588237 0.023113
C36   C     C_R   0.207162 0.299888 0.588028 0.006487
C37   C     C_R   0.704608 0.202744 0.411723 0.023359
C38   C     C_R   0.294894 0.797700 0.411726 0.022565
C39   C     C_R   0.292410 0.199576 0.412138 0.024244
C40   C     C_R   0.710069 0.802719 0.412194 0.032448
C41   C     C_R   0.228647 0.724983 0.500163 -0.004753
C42   C     C_R   0.770596 0.275777 0.500076 -0.005503
C43   C     C_R   0.775258 0.728960 0.500406 -0.002379
C44   C     C_R   0.227247 0.273541 0.500151 0.001099
C45   C     C_R   0.724364 0.229340 0.499584 -0.002413
C46   C     C_R   0.274906 0.771398 0.499636 -0.002077
C47   C     C_R   0.273170 0.226774 0.499820 -0.002258
C48   C     C_R   0.728998 0.775366 0.499892 -0.005200
C49   C     C_R   0.202159 0.704968 0.412678 0.078193
C50   C     C_R   0.797315 0.295492 0.412603 0.078717
C51   C     C_R   0.802576 0.709725 0.413134 0.082635
C52   C     C_R   0.200646 0.293289 0.412640 0.077611
C53   C     C_R   0.697313 0.209937 0.586918 0.083156
C54   C     C_R   0.301820 0.790997 0.586986 0.082049
C55   C     C_R   0.299212 0.206444 0.587386 0.069645
C56   C     C_R   0.702047 0.794949 0.587310 0.078425
C57   C     C_R   0.236494 0.717397 0.674997 0.459634
C58   C     C_R   0.762293 0.284011 0.674857 0.460624
C59   C     C_R   0.768128 0.722354 0.675288 0.460566
C60   C     C_R   0.233682 0.279627 0.675178 0.478903
C61   C     C_R   0.730992 0.223025 0.324610 0.460345
C62   C     C_R   0.268558 0.777272 0.324626 0.460340
C63   C     C_R   0.265759 0.219483 0.325067 0.458049
C64   C     C_R   0.737762 0.783832 0.325225 0.460218
C65   C     C_R   0.777016 0.269882 0.325706 -0.322066
C66   C     C_R   0.222546 0.730418 0.325765 -0.321679
C67   C     C_R   0.219569 0.266140 0.326024 -0.319397
C68   C     C_R   0.784674 0.737623 0.326686 -0.330787
C69   C     C_R   0.283429 0.763552 0.673544 -0.329673
C70   C     C_R   0.715385 0.237766 0.673406 -0.331515
C71   C     C_R   0.722066 0.769160 0.674181 -0.321880
C72   C     C_R   0.279094 0.232337 0.674201 -0.304552
H1    H     H_    0.135148 0.644027 0.346167 0.157299
H2    H     H_    0.864747 0.355962 0.346127 0.157565
H3    H     H_    0.869090 0.648100 0.346671 0.161147
H4    H     H_    0.134097 0.354680 0.346055 0.161243
H5    H     H_    0.631122 0.148043 0.653456 0.160968
H6    H     H_    0.368120 0.852785 0.653497 0.161032
H7    H     H_    0.365347 0.144647 0.654043 0.156983
H8    H     H_    0.634554 0.855428 0.653730 0.157772
H9    H     H_    0.146932 0.631312 0.653366 0.195443
H10   H     H_    0.852283 0.369628 0.653194 0.195871
H11   H     H_    0.855776 0.634351 0.653607 0.197895
H12   H     H_    0.144323 0.366126 0.653459 0.191460
H13   H     H_    0.643653 0.134760 0.346355 0.197930
H14   H     H_    0.356335 0.865176 0.346273 0.197840
H15   H     H_    0.353566 0.131692 0.346853 0.192877
H16   H     H_    0.647886 0.869604 0.346831 0.195830
H17   H     H_    0.796408 0.286546 0.258532 0.158626
H18   H     H_    0.203247 0.713624 0.258584 0.158983
H19   H     H_    0.198013 0.280454 0.259166 0.161498
H20   H     H_    0.807897 0.724269 0.260654 0.152893
H21   H     H_    0.306241 0.777230 0.739739 0.153710
H22   H     H_    0.692282 0.224313 0.739450 0.152290
H23   H     H_    0.702453 0.785668 0.741335 0.158826
H24   H     H_    0.298317 0.215637 0.741409 0.157818
C73   C     C_R   0.944662 0.491456 0.798013 -0.066014
C74   C     C_R   0.055301 0.508655 0.201941 -0.069118
C75   C     C_R   0.055323 0.508579 0.797970 -0.063985
C76   C     C_R   0.944680 0.491398 0.201992 -0.069819
C77   C     C_R   0.444542 0.007578 0.798075 -0.070291
C78   C     C_R   0.555464 0.992341 0.201969 -0.065371
C79   C     C_R   0.555453 0.992327 0.797984 -0.070004
C80   C     C_R   0.444526 0.007530 0.202042 -0.067672
N1    N     N_R   0.000000 0.500000 0.750030 -0.101885
N2    N     N_R   1.000000 0.500000 0.249970 -0.103722
N3    N     N_R   0.500000 1.000000 0.750030 -0.103642
N4    N     N_R   0.500000 0.000000 0.249970 -0.101242
C81   C     C_R   0.056648 0.508933 0.898680 0.017884
C82   C     C_R   0.943329 0.491106 0.101245 0.018236
C83   C     C_R   0.943324 0.491134 0.898725 0.013614
C84   C     C_R   0.056628 0.509004 0.101198 0.017253
C85   C     C_R   0.556796 0.991974 0.898731 0.017488
C86   C     C_R   0.443187 0.007750 0.101331 0.012998
C87   C     C_R   0.443194 0.007801 0.898819 0.016434
C88   C     C_R   0.556796 0.991965 0.101253 0.013032
C89   C     C_R   0.999979 0.500062 0.949318 0.093782
C90   C     C_R   0.999976 0.500067 0.050603 0.087590
C91   C     C_R   0.499997 0.999892 0.949392 0.086918
C92   C     C_R   0.499995 0.999881 0.050678 0.096237
C93   C     C_R   0.112968 0.517852 0.949665 -0.223568
C94   C     C_R   0.887020 0.482100 0.050218 -0.207690
C95   C     C_R   0.887024 0.482114 0.949752 -0.227896
C96   C     C_R   0.112945 0.517962 0.050134 -0.206048
C97   C     C_R   0.613243 0.983904 0.949736 -0.207372
C98   C     C_R   0.386723 0.015598 0.050359 -0.229409
C99   C     C_R   0.386721 0.015658 0.949905 -0.205931
C100  C     C_R   0.613233 0.983875 0.050202 -0.228524
H25   H     H_    0.901663 0.484904 0.757618 0.134705
H26   H     H_    0.098290 0.515248 0.242333 0.133203
H27   H     H_    0.098322 0.515122 0.757535 0.131535
H28   H     H_    0.901698 0.484783 0.242428 0.133385
H29   H     H_    0.401449 0.013415 0.757687 0.133263
H30   H     H_    0.598564 0.986533 0.242359 0.134330
H31   H     H_    0.598543 0.986484 0.757525 0.133506
H32   H     H_    0.401420 0.013341 0.242485 0.133530
H33   H     H_    0.156978 0.524793 0.911879 0.143626
H34   H     H_    0.843022 0.475036 0.087957 0.141297
H35   H     H_    0.843051 0.475014 0.911989 0.155547
H36   H     H_    0.156941 0.524994 0.087858 0.141720
H37   H     H_    0.657354 0.977611 0.911977 0.141474
H38   H     H_    0.342620 0.021802 0.088171 0.155446
H39   H     H_    0.342595 0.021841 0.912216 0.141579
H40   H     H_    0.657314 0.977498 0.087948 0.155714
O17   O     O_3   0.221702 0.686279 0.759273 -0.652821
C101  C     C_3   0.191104 0.728067 0.822846 0.060212
H41   H     H_    0.151036 0.752514 0.786909 0.138068
H42   H     H_    0.224902 0.763736 0.850777 0.146908
C102  C     C_3   0.165235 0.690183 0.907211 -0.303826
H43   H     H_    0.129886 0.655652 0.880666 0.224935
H44   H     H_    0.204232 0.663623 0.941732 0.229912
C103  C     C_3   0.134413 0.732959 0.981591 -0.967233
H45   H     H_    0.169325 0.766998 0.010635 0.262871
H46   H     H_    0.116085 0.703872 0.041511 0.267402
H47   H     H_    0.094574 0.759307 0.949147 0.268520
O18   O     O_3   0.776880 0.315697 0.758855 -0.653400
C104  C     C_3   0.804648 0.273844 0.825143 0.061224
H48   H     H_    0.843039 0.245711 0.791146 0.137426
H49   H     H_    0.768493 0.241438 0.855158 0.147919
C105  C     C_3   0.832892 0.312338 0.907139 -0.303684
H50   H     H_    0.870562 0.343536 0.878642 0.225153
H51   H     H_    0.795757 0.342516 0.939567 0.230065
C106  C     C_3   0.860557 0.269815 0.984501 -0.967024
H52   H     H_    0.823331 0.239185 0.015459 0.262999
H53   H     H_    0.880733 0.299320 0.042593 0.268188
H54   H     H_    0.898523 0.239829 0.954152 0.268314
O19   O     O_3   0.791289 0.700652 0.761731 -0.643546
C107  C     C_3   0.748947 0.655932 0.799821 0.052799
H55   H     H_    0.740670 0.616828 0.747840 0.138255
H56   H     H_    0.703213 0.678690 0.818110 0.144674
C108  C     C_3   0.777453 0.628195 0.890956 -0.305991
H57   H     H_    0.823310 0.605603 0.873632 0.229756
H58   H     H_    0.786056 0.666683 0.943436 0.226738
C109  C     C_3   0.733979 0.579248 0.936068 -0.985679
H59   H     H_    0.688131 0.601059 0.955308 0.268114
H60   H     H_    0.756047 0.560340 0.002104 0.266328
H61   H     H_    0.725849 0.539555 0.885626 0.269443
O20   O     O_3   0.211886 0.302097 0.762100 -0.644692
C110  C     C_3   0.245667 0.356996 0.788576 0.070589
H62   H     H_    0.211111 0.391491 0.817420 0.165731
H63   H     H_    0.270045 0.381019 0.727738 0.120369
C111  C     C_3   0.293167 0.341122 0.867291 -0.346088
H64   H     H_    0.268632 0.316872 0.927156 0.235889
H65   H     H_    0.329723 0.308847 0.838380 0.214023
C112  C     C_3   0.325097 0.400465 0.905594 -0.957113
H66   H     H_    0.350739 0.425026 0.847202 0.270319
H67   H     H_    0.359331 0.387392 0.962227 0.263577
H68   H     H_    0.289596 0.432977 0.936896 0.263996
O21   O     O_3   0.707553 0.201468 0.238194 -0.644012
C113  C     C_3   0.750035 0.157239 0.199066 0.053000
H69   H     H_    0.758470 0.117764 0.250227 0.138501
H70   H     H_    0.795688 0.180281 0.181166 0.144590
C114  C     C_3   0.721566 0.130151 0.107389 -0.306416
H71   H     H_    0.675845 0.107173 0.124322 0.229964
H72   H     H_    0.712703 0.169047 0.055809 0.226630
C115  C     C_3   0.765246 0.081847 0.061054 -0.986467
H73   H     H_    0.810949 0.104081 0.042164 0.268356
H74   H     H_    0.743194 0.063389 0.994666 0.266240
H75   H     H_    0.773664 0.041770 0.110579 0.269205
O22   O     O_3   0.291988 0.798630 0.238127 -0.643304
C116  C     C_3   0.249993 0.843578 0.199826 0.053761
H76   H     H_    0.243373 0.883616 0.250722 0.138489
H77   H     H_    0.203476 0.821590 0.183939 0.143628
C117  C     C_3   0.277666 0.869223 0.106659 -0.306079
H78   H     H_    0.324469 0.890699 0.121298 0.231098
H79   H     H_    0.284201 0.829766 0.055100 0.226347
C118  C     C_3   0.234802 0.918792 0.061807 -0.985968
H80   H     H_    0.187875 0.898170 0.045653 0.267643
H81   H     H_    0.256077 0.935910 0.994011 0.266300
H82   H     H_    0.228988 0.959542 0.111115 0.268921
O23   O     O_3   0.280580 0.189287 0.240223 -0.648529
C119  C     C_3   0.324281 0.226375 0.189035 0.051542
H83   H     H_    0.364981 0.240121 0.235088 0.138912
H84   H     H_    0.300914 0.269634 0.161091 0.147999
C120  C     C_3   0.349274 0.187698 0.104844 -0.307697
H85   H     H_    0.372469 0.144405 0.132505 0.226557
H86   H     H_    0.309400 0.173311 0.058164 0.229635
C121  C     C_3   0.396707 0.225043 0.045632 -0.961232
H87   H     H_    0.374403 0.268250 0.016290 0.262750
H88   H     H_    0.413564 0.195551 0.985108 0.269945
H89   H     H_    0.437787 0.238548 0.090343 0.271091
O24   O     O_3   0.723420 0.815539 0.241258 -0.652987
C122  C     C_3   0.694681 0.773907 0.175511 0.060660
H90   H     H_    0.655502 0.747106 0.209831 0.137486
H91   H     H_    0.729993 0.740281 0.146202 0.147565
C123  C     C_3   0.667607 0.812459 0.092771 -0.303074
H92   H     H_    0.630764 0.844906 0.120601 0.224834
H93   H     H_    0.705592 0.841341 0.059978 0.230465
C124  C     C_3   0.638895 0.770056 0.016029 -0.968016
H94   H     H_    0.675307 0.738167 0.985707 0.263294
H95   H     H_    0.619600 0.799605 0.957380 0.267766
H96   H     H_    0.600087 0.741373 0.046748 0.268016

loop_
_geom_bond_atom_site_label_1
_geom_bond_atom_site_label_2
_geom_bond_distance
_ccdc_geom_bond_type
C84   C96   1.405594 A    
C61   O21   1.383715 S    
C123  H93   1.111769 S    
O17   C101  1.412437 S    
C8    C21   1.438006 S    
O2    C2    1.282583 A    
C78   H30   1.082791 S    
C102  H43   1.112204 S    
C62   O22   1.383594 S    
C63   C67   1.393330 A    
C14   C22   1.396025 A    
C115  H75   1.110870 S    
C73   H25   1.082772 S    
C88   C92   1.408628 A    
C44   C52   1.411244 A    
C23   C31   1.396333 A    
C117  H78   1.112372 S    
C97   C100  1.404001 A    
C105  C106  1.526140 S    
C29   C37   1.385953 A    
C12   C52   1.382036 A    
C79   H31   1.082699 S    
C112  H66   1.110847 S    
O10   C6    1.282603 A    
C87   C91   1.408636 A    
C98   H38   1.083324 S    
C121  H89   1.110797 S    
C10   C18   1.395779 A    
C124  H94   1.110957 S    
C59   O19   1.383655 S    
O7    Zn2   2.018286 S    
C77   H29   1.082706 S    
C32   C40   1.386823 A    
C79   C85   1.408241 A    
C107  C108  1.528543 S    
C76   C82   1.408244 A    
C13   C53   1.382371 A    
C54   C69   1.398255 A    
C27   C35   1.386106 A    
C66   H18   1.084425 S    
C39   C63   1.407355 A    
C53   C70   1.398371 A    
C77   N3    1.365082 A    
C116  C117  1.528658 S    
C65   H17   1.084406 S    
C38   C62   1.407736 A    
C113  H69   1.115720 S    
C86   C92   1.408572 A    
C76   N2    1.365242 A    
C114  C115  1.525603 S    
C109  H61   1.110877 S    
C67   H19   1.084224 S    
C84   C90   1.408629 A    
C122  H90   1.116023 S    
C46   C54   1.410406 A    
C45   C53   1.410378 A    
O13   C7    1.282305 A    
O3    C2    1.282519 A    
C107  H56   1.114214 S    
Zn2   N2    1.996024 S    
O14   C8    1.282749 A    
C43   C51   1.410349 A    
C74   H26   1.082685 S    
C2    C19   1.438095 S    
Zn1   N1    1.996023 S    
C16   C56   1.381422 A    
C39   C47   1.414018 A    
C68   H20   1.083614 S    
C121  H87   1.110226 S    
Zn3   N3    1.996023 S    
C41   C46   1.390564 A    
C38   C46   1.414610 A    
C118  H80   1.111573 S    
C105  H51   1.111855 S    
C104  H49   1.112582 S    
C111  C112  1.525921 S    
C35   C43   1.414564 A    
C110  C111  1.530648 S    
C120  H85   1.111522 S    
C36   C44   1.414445 A    
O13   Zn4   2.018511 S    
O20   C110  1.416261 S    
O14   Zn3   2.018508 S    
C96   H36   1.083355 S    
C15   C23   1.396157 A    
C59   C71   1.393724 A    
C103  H47   1.111082 S    
C80   N4    1.365053 A    
C10   H2    1.084944 S    
C104  C105  1.529025 S    
O16   Zn3   2.018290 S    
C12   C20   1.396242 A    
C109  H59   1.110939 S    
C60   O20   1.384002 S    
C110  H62   1.111508 S    
C58   O18   1.387146 S    
O8    Zn1   2.018290 S    
C120  H86   1.111752 S    
C42   C50   1.411149 A    
C33   C41   1.414734 A    
C94   H34   1.083341 S    
C15   H7    1.084913 S    
C21   C29   1.396770 A    
O22   C116  1.411269 S    
C10   C50   1.381378 A    
C103  H46   1.110681 S    
O21   C113  1.411183 S    
C31   C39   1.385921 A    
C9    C49   1.381286 A    
C112  H67   1.110322 S    
C75   H27   1.082770 S    
C86   C98   1.405126 A    
C121  H88   1.110615 S    
C76   H28   1.082682 S    
O8    C3    1.282445 A    
C124  H95   1.110576 S    
C111  H64   1.111820 S    
C108  H57   1.111971 S    
C100  H40   1.083396 S    
C44   C47   1.390968 A    
O3    Zn1   2.018918 S    
C101  H42   1.113210 S    
C27   H11   1.083897 S    
C115  H73   1.110942 S    
C93   C96   1.404047 A    
O2    Zn2   2.018274 S    
C106  H54   1.110751 S    
C25   H9    1.083986 S    
C29   H13   1.083903 S    
C34   C42   1.414699 A    
C122  H91   1.112642 S    
C114  H71   1.111919 S    
O12   C5    1.282650 A    
C119  C120  1.528558 S    
C58   C70   1.397929 A    
O5    Zn2   2.018511 S    
C107  H55   1.115804 S    
C1    C20   1.438105 S    
C30   C38   1.386030 A    
C60   C72   1.391387 A    
C33   C57   1.407859 A    
C106  H52   1.110944 S    
C108  H58   1.111846 S    
C116  H76   1.115864 S    
C83   C89   1.408650 A    
C3    C18   1.437683 S    
C5    C24   1.437788 S    
C35   C59   1.407560 A    
C85   C97   1.405644 A    
C7    C22   1.437860 S    
C6    C23   1.437360 S    
C11   C19   1.396201 A    
C69   H21   1.083744 S    
O11   Zn3   2.018918 S    
C57   O17   1.386369 S    
C122  C123  1.529035 S    
C15   C55   1.381852 A    
C26   C34   1.386764 A    
C119  H84   1.113920 S    
O24   C122  1.412401 S    
C81   C89   1.408723 A    
C16   H8    1.084937 S    
C77   C87   1.408161 A    
C72   H24   1.084031 S    
C78   C88   1.407771 A    
C88   C100  1.405192 A    
C111  H65   1.110757 S    
C55   C72   1.397998 A    
C22   C30   1.396849 A    
O5    C3    1.282440 A    
O4    C1    1.282516 A    
C75   N1    1.364984 A    
C93   H33   1.083546 S    
O18   C104  1.412547 S    
C118  H81   1.110739 S    
C14   C54   1.382039 A    
C85   C91   1.408584 A    
O16   C7    1.282681 A    
C87   C99   1.405493 A    
C80   H32   1.082789 S    
C101  H41   1.116270 S    
C120  C121  1.525418 S    
C37   C61   1.407578 A    
C16   C24   1.395964 A    
C47   C55   1.410924 A    
C17   C25   1.396968 A    
C82   C90   1.408607 A    
C117  C118  1.525780 S    
C109  H60   1.110424 S    
C79   N3    1.365200 A    
C52   C67   1.398759 A    
C83   C95   1.405214 A    
C103  H45   1.111357 S    
O9    Zn3   2.018275 S    
C19   C27   1.396652 A    
C98   C99   1.403837 A    
C102  H44   1.112126 S    
C112  H68   1.111064 S    
O10   Zn4   2.018274 S    
C28   C36   1.386092 A    
C123  H92   1.111882 S    
O15   C8    1.282305 A    
C124  H96   1.110686 S    
C42   C45   1.390490 A    
C12   H4    1.084824 S    
O1    C1    1.282602 A    
C64   C68   1.397616 A    
C37   C45   1.414516 A    
C115  H74   1.110396 S    
C117  H79   1.112287 S    
C24   C32   1.396851 A    
O4    Zn2   2.018918 S    
C91   C92   1.415445 A    
O1    Zn1   2.018275 S    
C95   H35   1.083418 S    
C57   C69   1.397028 A    
C48   C56   1.411090 A    
C113  C114  1.528475 S    
O6    C4    1.282409 A    
C89   C90   1.415440 A    
C43   C48   1.390603 A    
O11   C6    1.282150 A    
C113  H70   1.114208 S    
C36   C60   1.409461 A    
C80   C86   1.407731 A    
C40   C48   1.414780 A    
C41   C49   1.411025 A    
C14   H6    1.084853 S    
C106  H53   1.110597 S    
C114  H72   1.111846 S    
C13   C21   1.396082 A    
O19   C107  1.411173 S    
C116  H77   1.114792 S    
C62   C66   1.393554 A    
C18   C26   1.396958 A    
C9    H1    1.084944 S    
C4    C17   1.437541 S    
C40   C64   1.407883 A    
O9    C5    1.282294 A    
O15   Zn4   2.018286 S    
C73   C83   1.407724 A    
C97   H37   1.083330 S    
C49   C66   1.398041 A    
C11   H3    1.084839 S    
C11   C51   1.382328 A    
C119  H83   1.116492 S    
C75   C81   1.407715 A    
C71   H23   1.084406 S    
C13   H5    1.084844 S    
C63   O23   1.383215 S    
C70   H22   1.083528 S    
C99   H39   1.083324 S    
C78   N4    1.365086 A    
C82   C94   1.405673 A    
C110  H63   1.118332 S    
C108  C109  1.525593 S    
C74   C84   1.408160 A    
C104  H48   1.116129 S    
C56   C71   1.398250 A    
C25   C33   1.386602 A    
C51   C68   1.398406 A    
O6    Zn1   2.018508 S    
C118  H82   1.111517 S    
C81   C93   1.405312 A    
O12   Zn4   2.018918 S    
C101  C102  1.529055 S    
C31   H15   1.083919 S    
O7    C4    1.282420 A    
C9    C17   1.395808 A    
O23   C119  1.411342 S    
C30   H14   1.083888 S    
C94   C95   1.403994 A    
C32   H16   1.083994 S    
C64   O24   1.386819 S    
C102  C103  1.526279 S    
C74   N2    1.365087 A    
C34   C58   1.407966 A    
C50   C65   1.398111 A    
C73   N1    1.365126 A    
C20   C28   1.396709 A    
C61   C65   1.393762 A    
C105  H50   1.111934 S    
Zn4   N4    1.996024 S    
C26   H10   1.083984 S    
C123  C124  1.526147 S    
C28   H12   1.083399 S    
