data_mof_unit_30565.cif
_audit_creation_date              2012-12-10T18:05:53-0500
_audit_creation_method            fapswitch 2.2
_symmetry_space_group_name_H-M    P1
_symmetry_Int_Tables_number       1
_space_group_crystal_system       triclinic
_cell_length_a                    12.63496
_cell_length_b                    13.182203
_cell_length_c                    14.91051
_cell_angle_alpha                 92.144404
_cell_angle_beta                  102.964184
_cell_angle_gamma                 81.923321
_cell_volume                      2396.09185521

loop_
_atom_site_label
_atom_site_type_symbol
_atom_type_description
_atom_site_fract_x
_atom_site_fract_y
_atom_site_fract_z
_atom_type_partial_charge
C1    C     C_R   0.438905 0.691493 0.493276 0.863322
C2    C     C_R   0.560983 0.408815 0.101626 0.049008
C3    C     C_R   0.364159 0.645837 0.027638 -0.240975
C4    C     C_R   0.362198 0.648842 0.933931 -0.029782
C5    C     C_R   0.429358 0.571623 0.895795 0.028011
C6    C     C_R   0.499049 0.494177 0.952759 0.060717
C7    C     C_R   0.569088 0.418900 0.915925 0.140942
C8    C     C_R   0.631278 0.338507 0.970312 -0.217485
C9    C     C_R   0.624972 0.331740 0.061477 -0.170889
C10   C     C_R   0.427138 0.566992 0.801976 -0.195074
C11   C     C_R   0.502786 0.497476 0.768483 -0.043964
C12   C     C_R   0.501688 0.498145 0.672768 0.882971
C13   C     C_R   0.573987 0.423964 0.824364 -0.248613
C14   C     C_R   0.712755 0.067598 0.619359 -0.171415
C15   C     C_R   0.598988 0.200772 0.523160 -0.035604
C16   C     C_R   0.300860 0.835309 0.427057 -0.232430
C17   C     C_R   0.274528 0.937821 0.402400 0.063845
C18   C     C_R   0.350493 0.005502 0.433651 -0.204406
C19   C     C_R   0.452011 0.972702 0.495210 0.060311
C20   C     C_R   0.469112 0.873243 0.532064 0.035688
C21   C     C_R   0.535581 0.036123 0.523167 0.057219
C22   C     C_R   0.630619 0.003120 0.592534 0.103620
C23   C     C_R   0.561198 0.309021 0.509259 0.909842
C24   C     C_R   0.637526 0.910671 0.638440 -0.074650
C25   C     C_R   0.553705 0.849194 0.611588 -0.071097
C26   C     C_R   0.526145 0.133079 0.485330 -0.188059
C27   C     C_R   0.695700 0.166886 0.586309 -0.222842
C28   C     C_R   0.399803 0.801602 0.488650 -0.115750
C29   C     C_R   0.091374 0.339270 0.377636 -0.285814
C30   C     C_R   0.799260 0.631530 0.608778 0.034416
C31   C     C_R   0.903187 0.661276 0.631060 -0.222963
C32   C     C_R   0.984778 0.611668 0.589846 -0.185647
C33   C     C_R   0.962716 0.530921 0.526347 0.018288
C34   C     C_R   0.499150 0.497555 0.327338 0.919277
C35   C     C_R   0.855328 0.503093 0.506461 0.216596
C36   C     C_R   0.042532 0.476648 0.482245 -0.008328
C37   C     C_R   0.014211 0.394363 0.421435 0.166150
C38   C     C_R   0.909218 0.367466 0.404824 -0.243536
C39   C     C_R   0.830383 0.421943 0.445654 -0.182647
C40   C     C_R   0.150152 0.499922 0.496026 -0.038983
C41   C     C_R   0.196073 0.366081 0.394267 0.023207
C42   C     C_R   0.555959 0.406074 0.194918 -0.066848
C43   C     C_R   0.496729 0.490064 0.231132 -0.123519
C44   C     C_R   0.433261 0.568579 0.176092 -0.241499
C45   C     C_R   0.431050 0.568337 0.083143 0.100578
C46   C     C_R   0.497688 0.490791 0.046037 0.049875
H1    H     H_    0.786964 0.044581 0.670634 0.155536
H2    H     H_    0.458935 0.161278 0.430046 0.164171
H3    H     H_    0.246197 0.781207 0.395298 0.165298
H4    H     H_    0.326291 0.083462 0.410351 0.129893
H5    H     H_    0.257307 0.323894 0.361724 0.144403
H6    H     H_    0.888602 0.303680 0.359832 0.204199
H7    H     H_    0.070975 0.276066 0.331307 0.160483
H8    H     H_    0.385767 0.630219 0.206298 0.145571
H9    H     H_    0.179613 0.560533 0.541037 0.126834
H10   H     H_    0.735807 0.669508 0.640818 0.145239
H11   H     H_    0.063976 0.637570 0.609610 0.145767
H12   H     H_    0.920650 0.722577 0.680139 0.174754
H13   H     H_    0.750519 0.398701 0.428956 0.221047
H14   H     H_    0.314245 0.705252 0.057942 0.183261
H15   H     H_    0.368878 0.618120 0.753901 0.173248
H16   H     H_    0.628985 0.368171 0.795343 0.138477
H17   H     H_    0.683143 0.279402 0.941705 0.157162
H18   H     H_    0.671646 0.265937 0.099218 0.204960
H19   H     H_    0.754101 0.218833 0.614842 0.163987
N1    N     N_R   0.222190 0.444670 0.452360 -0.107040
N2    N     N_R   0.776970 0.554790 0.547140 -0.136123
O1    O     O_R   0.366740 0.627160 0.477250 -0.622075
O2    O     O_R   0.544830 0.662520 0.507680 -0.611646
O3    O     O_R   0.410940 0.482340 0.616930 -0.622027
O4    O     O_R   0.589030 0.517700 0.647360 -0.613202
O5    O     O_R   0.455170 0.337480 0.492320 -0.612686
O6    O     O_R   0.633260 0.372840 0.522750 -0.650560
O7    O     O_R   0.410970 0.482300 0.352640 -0.597329
O8    O     O_R   0.589060 0.517660 0.383070 -0.631586
Zn1   Zn    Zn3+2 0.381090 0.476390 0.479680 0.962468
Zn2   Zn    Zn3+2 0.618910 0.523610 0.520320 0.949225
C47   C     C_2   0.603101 0.314230 0.253169 0.858972
O9    O     O_2   0.545399 0.276130 0.294670 -0.655447
O10   O     O_R   0.712196 0.271464 0.261040 -0.843088
H20   H     H_    0.732835 0.208535 0.301637 0.342043
C48   C     C_1   0.726261 0.881871 0.717676 0.136078
N3    N     N_1   0.796627 0.859056 0.780897 -0.192810
C49   C     C_1   0.171915 0.972598 0.340214 0.154816
N4    N     N_1   0.089510 0.000619 0.290305 -0.191361
C50   C     C_1   0.543605 0.775109 0.676937 0.211403
N5    N     N_1   0.537270 0.718297 0.731847 -0.175130
C51   C     C_2   0.291970 0.735912 0.880340 0.898946
O11   O     O_2   0.325697 0.780451 0.824159 -0.629511
O12   O     O_R   0.188561 0.770208 0.897738 -0.796783
H21   H     H_    0.148715 0.830679 0.858036 0.349099

loop_
_geom_bond_atom_site_label_1
_geom_bond_atom_site_label_2
_ccdc_geom_bond_type
C16   C28   A    
C7    C13   A    
C21   C26   A    
C9    H18   S    
O2    Zn2   S    
C19   C20   A    
N2    Zn2   S    
O5    Zn1   S    
C1    O1    A    
C7    C8    A    
C45   C46   A    
C2    C46   A    
O7    Zn1   S    
C5    C6    A    
C31   H12   S    
C36   C37   A    
C19   C21   A    
C38   C39   A    
C47   O10   S    
C38   H6    S    
C20   C25   A    
C33   C36   A    
C18   C19   A    
C24   C48   S    
C14   H1    S    
C49   N4    T    
C13   H16   S    
C8    C9    A    
C1    C28   S    
C14   C27   A    
C30   N2    A    
C26   H2    S    
C34   O8    A    
C3    H14   S    
C15   C23   S    
C39   H13   S    
C40   N1    A    
C21   C22   A    
C32   H11   S    
C23   O6    A    
C36   C40   A    
C16   H3    S    
C47   O9    D    
C16   C17   A    
C15   C26   A    
C20   C28   A    
C30   H10   S    
C3    C45   A    
C1    O2    A    
C35   C39   A    
C43   C44   A    
C37   C38   A    
C27   H19   S    
C15   C27   A    
C31   C32   A    
C35   N2    A    
C40   H9    S    
N1    Zn1   S    
C17   C18   A    
C24   C25   A    
O8    Zn2   S    
C6    C7    A    
C34   O7    A    
C12   O4    A    
C51   O12   S    
C42   C47   S    
O3    Zn1   S    
C22   C24   A    
C10   H15   S    
C42   C43   A    
C3    C4    A    
O4    Zn2   S    
C44   C45   A    
C18   H4    S    
C12   O3    A    
C6    C46   A    
C29   C41   A    
C50   N5    T    
C23   O5    A    
C34   C43   S    
O10   H20   S    
C11   C12   S    
C41   N1    A    
C4    C51   S    
O1    Zn1   S    
C17   C49   S    
C32   C33   A    
C14   C22   A    
C5    C10   A    
C11   C13   A    
O12   H21   S    
C30   C31   A    
C29   H7    S    
C2    C42   A    
C25   C50   S    
C33   C35   A    
C10   C11   A    
C8    H17   S    
C44   H8    S    
C4    C5    A    
C51   O11   D    
C48   N3    T    
C29   C37   A    
O6    Zn2   S    
C2    C9    A    
C41   H5    S    
