data_mof_unit_9382.cif
_audit_creation_date              2012-12-11T17:07:49-0500
_audit_creation_method            fapswitch 2.2
_symmetry_space_group_name_H-M    P1
_symmetry_Int_Tables_number       1
_space_group_crystal_system       triclinic
_cell_length_a                    17.155119
_cell_length_b                    17.155145
_cell_length_c                    17.383537
_cell_angle_alpha                 90.000119
_cell_angle_beta                  90.00006
_cell_angle_gamma                 90.000063
_cell_volume                      5115.9498014

loop_
_atom_site_label
_atom_site_type_symbol
_atom_type_description
_atom_site_fract_x
_atom_site_fract_y
_atom_site_fract_z
_atom_type_partial_charge
C1    C     C_R   0.424030 0.331134 0.856023 -0.148049
C2    C     C_R   0.168866 0.924030 0.356023 -0.148057
C3    C     C_R   0.681735 0.755720 0.365008 -0.096854
C4    C     C_R   0.244281 0.318263 0.634992 -0.096839
C5    C     C_R   0.209042 0.864480 0.814066 -0.145792
C6    C     C_R   0.755720 0.681736 0.634993 -0.096858
C7    C     C_R   0.790959 0.135520 0.814067 -0.145792
C8    C     C_R   0.744281 0.181737 0.865008 -0.096838
C9    C     C_R   0.709041 0.635520 0.685934 -0.145792
C10   C     C_R   0.255720 0.818264 0.865007 -0.096849
C11   C     C_R   0.290959 0.364480 0.685933 -0.145789
C12   C     C_R   0.635519 0.709041 0.314067 -0.145785
C13   C     C_R   0.105427 0.198216 0.400016 -0.149794
C14   C     C_R   0.818260 0.255715 0.134993 -0.096835
C15   C     C_R   0.364477 0.290971 0.314073 -0.145832
C16   C     C_R   0.181737 0.744280 0.134994 -0.096844
C17   C     C_2   0.807534 0.310460 0.636755 0.677547
C18   C     C_2   0.633565 0.933634 0.699889 0.534119
C19   C     C_2   0.192464 0.689538 0.636756 0.677551
C20   C     C_2   0.366436 0.066366 0.699888 0.534121
C21   C     C_2   0.933632 0.633562 0.300115 0.534154
C22   C     C_2   0.689558 0.192493 0.363263 0.677458
C23   C     C_2   0.066348 0.366385 0.300059 0.534087
C24   C     C_R   0.831133 0.075969 0.356023 -0.148057
C25   C     C_2   0.310453 0.807525 0.363251 0.677532
C26   C     C_2   0.433640 0.866417 0.199904 0.534131
C27   C     C_2   0.189564 0.307493 0.136733 0.677489
C28   C     C_2   0.566351 0.133604 0.199929 0.534113
C29   C     C_2   0.810462 0.692462 0.136758 0.677559
C30   C     C_2   0.307536 0.189539 0.863243 0.677539
C31   C     C_2   0.133564 0.566367 0.800112 0.534120
C32   C     C_2   0.692465 0.810461 0.863244 0.677546
C33   C     C_2   0.866434 0.433634 0.800110 0.534117
C34   C     C_2   0.048815 0.797717 0.179758 0.481771
C35   C     C_R   0.924030 0.168866 0.643977 -0.148051
C36   C     C_2   0.355015 0.191185 0.421518 0.619912
C37   C     C_2   0.951181 0.202266 0.179747 0.481744
C38   C     C_2   0.644984 0.808825 0.421516 0.619857
C39   C     C_2   0.191177 0.355014 0.578482 0.619838
C40   C     C_2   0.202283 0.951185 0.820244 0.481774
C41   C     C_2   0.808825 0.644985 0.578484 0.619859
C42   C     C_2   0.797719 0.048815 0.820245 0.481775
C43   C     C_2   0.691177 0.144986 0.921518 0.619839
C44   C     C_2   0.702281 0.548815 0.679756 0.481779
C45   C     C_2   0.308825 0.855015 0.921517 0.619848
C46   C     C_R   0.198216 0.105427 0.599984 -0.149777
C47   C     C_2   0.297718 0.451185 0.679756 0.481787
C48   C     C_2   0.548814 0.702281 0.320245 0.481766
C49   C     C_2   0.855013 0.308817 0.078482 0.619873
C50   C     C_2   0.451180 0.297746 0.320265 0.481765
C51   C     C_2   0.144986 0.691177 0.078482 0.619838
C52   C     C_R   0.075970 0.831133 0.643977 -0.148050
C53   C     C_R   0.801783 0.894573 0.599983 -0.149789
C54   C     C_3   0.855078 0.320665 0.709224 -0.398486
C55   C     C_3   0.685864 0.870123 0.730682 -0.342237
C56   C     C_3   0.144920 0.679335 0.709225 -0.398485
C57   C     C_R   0.698216 0.394573 0.900016 -0.149786
C58   C     C_3   0.314137 0.129877 0.730681 -0.342237
C59   C     C_3   0.870122 0.685862 0.269321 -0.342253
C60   C     C_3   0.679336 0.144946 0.290798 -0.398446
C61   C     C_3   0.129878 0.314097 0.269284 -0.342215
C62   C     C_3   0.320664 0.855070 0.290783 -0.398450
C63   C     C_3   0.370122 0.814123 0.230692 -0.342244
C64   C     C_3   0.179337 0.355044 0.209195 -0.398422
C65   C     C_3   0.629877 0.185894 0.230709 -0.342295
C66   C     C_3   0.820665 0.644918 0.209228 -0.398482
C67   C     C_3   0.355080 0.179335 0.790774 -0.398481
C68   C     C_R   0.575970 0.668867 0.856023 -0.148050
C69   C     C_3   0.185863 0.629877 0.769318 -0.342233
C70   C     C_3   0.644921 0.820665 0.790775 -0.398485
C71   C     C_3   0.814135 0.370123 0.769317 -0.342232
C72   C     C_R   0.392198 0.697554 0.897059 -0.095567
C73   C     C_R   0.328053 0.419534 0.856824 -0.102939
C74   C     C_R   0.607802 0.302446 0.897059 -0.095567
C75   C     C_R   0.671947 0.580466 0.856824 -0.102932
C76   C     C_R   0.419534 0.328053 0.143176 -0.102918
C77   C     C_R   0.302446 0.607802 0.102941 -0.095562
C78   C     C_R   0.580466 0.671947 0.143176 -0.102928
C79   C     C_R   0.301784 0.605427 0.900016 -0.149791
C80   C     C_R   0.697554 0.392198 0.102942 -0.095564
C81   C     C_R   0.919534 0.171946 0.356824 -0.102917
C82   C     C_R   0.802445 0.892197 0.397059 -0.095562
C83   C     C_R   0.080466 0.828054 0.356824 -0.102923
C84   C     C_R   0.197554 0.107802 0.397059 -0.095557
C85   C     C_R   0.892197 0.802446 0.602941 -0.095566
C86   C     C_R   0.828053 0.080466 0.643176 -0.102935
C87   C     C_R   0.107803 0.197554 0.602941 -0.095571
C88   C     C_R   0.171947 0.919533 0.643176 -0.102934
C89   C     C_R   0.363066 0.360989 0.813522 0.069803
C90   C     C_R   0.394573 0.698216 0.099983 -0.149791
C91   C     C_R   0.685976 0.317403 0.883337 0.114530
C92   C     C_R   0.636935 0.639011 0.813523 0.069799
C93   C     C_R   0.314024 0.682597 0.883337 0.114525
C94   C     C_R   0.317403 0.685975 0.116663 0.114524
C95   C     C_R   0.639011 0.636934 0.186478 0.069801
C96   C     C_R   0.682596 0.314025 0.116665 0.114535
C97   C     C_R   0.360990 0.363067 0.186478 0.069781
C98   C     C_R   0.817403 0.814024 0.383337 0.114523
C99   C     C_R   0.139011 0.863066 0.313522 0.069792
C100  C     C_R   0.182597 0.185975 0.383337 0.114529
C101  C     C_R   0.668866 0.575970 0.143977 -0.148048
C102  C     C_R   0.860989 0.136933 0.313522 0.069789
C103  C     C_R   0.863065 0.139011 0.686478 0.069800
C104  C     C_R   0.185976 0.182597 0.616663 0.114531
C105  C     C_R   0.136935 0.860989 0.686477 0.069801
C106  C     C_R   0.814024 0.817403 0.616663 0.114523
C107  C     C_R   0.810248 0.297878 0.819073 0.249341
C108  C     C_R   0.650929 0.754433 0.734153 0.119214
C109  C     C_R   0.189751 0.702123 0.819073 0.249346
C110  C     C_R   0.349072 0.245568 0.734152 0.119219
C111  C     C_R   0.754432 0.650927 0.265849 0.119215
C112  C     C_R   0.605426 0.301784 0.099985 -0.149786
C113  C     C_R   0.702116 0.189763 0.180944 0.249350
C114  C     C_R   0.245561 0.349058 0.265829 0.119233
C115  C     C_R   0.297879 0.810244 0.180933 0.249331
C116  C     C_R   0.254434 0.849068 0.234157 0.119225
C117  C     C_R   0.202115 0.310234 0.319053 0.249305
C118  C     C_R   0.745562 0.150938 0.234167 0.119253
C119  C     C_R   0.797876 0.689750 0.319075 0.249348
C120  C     C_R   0.310249 0.202123 0.680926 0.249343
C121  C     C_R   0.150928 0.745568 0.765847 0.119209
C122  C     C_R   0.689751 0.797877 0.680927 0.249350
C123  C     C_R   0.331134 0.424031 0.143977 -0.148060
C124  C     C_R   0.849071 0.254433 0.765846 0.119214
C125  C     C_R   0.748083 0.264563 0.859096 0.032204
C126  C     C_R   0.664753 0.674895 0.742919 -0.037126
C127  C     C_R   0.251917 0.735437 0.859096 0.032207
C128  C     C_R   0.335248 0.325105 0.742918 -0.037129
C129  C     C_R   0.674894 0.664752 0.257082 -0.037125
C130  C     C_R   0.735434 0.251920 0.140911 0.032174
C131  C     C_R   0.325102 0.335245 0.257076 -0.037095
C132  C     C_R   0.264563 0.748081 0.140906 0.032196
C133  C     C_R   0.174896 0.835246 0.242920 -0.037134
C134  C     C_R   0.894573 0.801783 0.400017 -0.149792
C135  C     C_R   0.235435 0.248081 0.359090 0.032185
C136  C     C_R   0.825102 0.164754 0.242923 -0.037131
C137  C     C_R   0.764562 0.751917 0.359097 0.032204
C138  C     C_R   0.248083 0.235437 0.640903 0.032198
C139  C     C_R   0.164753 0.825105 0.757081 -0.037128
C140  C     C_R   0.751917 0.764562 0.640904 0.032201
C141  C     C_R   0.835247 0.174895 0.757081 -0.037128
C142  C     C_R   0.135520 0.790958 0.185935 -0.145776
C143  C     C_R   0.318261 0.244289 0.365011 -0.096823
C144  C     C_R   0.864477 0.209035 0.185932 -0.145789
H1    H     H_    0.464009 0.285771 0.839274 0.104413
H2    H     H_    0.214230 0.964008 0.339275 0.104415
H3    H     H_    0.077306 0.253757 0.408515 0.161689
H4    H     H_    0.785768 0.035992 0.339275 0.104421
H5    H     H_    0.964009 0.214230 0.660726 0.104414
H6    H     H_    0.253757 0.077305 0.591483 0.161706
H7    H     H_    0.035991 0.785770 0.660725 0.104413
H8    H     H_    0.746243 0.922694 0.591483 0.161704
H9    H     H_    0.916516 0.337999 0.697780 0.119083
H10   H     H_    0.744256 0.892213 0.748047 0.158720
H11   H     H_    0.083482 0.662001 0.697781 0.119082
H12   H     H_    0.753757 0.422694 0.908517 0.161704
H13   H     H_    0.255745 0.107787 0.748046 0.158720
H14   H     H_    0.892213 0.744253 0.251956 0.158731
H15   H     H_    0.661994 0.083511 0.302249 0.119104
H16   H     H_    0.107806 0.255697 0.251925 0.158709
H17   H     H_    0.338002 0.916506 0.302229 0.119097
H18   H     H_    0.392205 0.755729 0.248055 0.158720
H19   H     H_    0.161993 0.416477 0.197741 0.119105
H20   H     H_    0.607801 0.244291 0.248071 0.158679
H21   H     H_    0.837998 0.583480 0.197784 0.119088
H22   H     H_    0.416519 0.162002 0.802218 0.119082
H23   H     H_    0.535991 0.714230 0.839275 0.104413
H24   H     H_    0.244255 0.607787 0.751954 0.158722
H25   H     H_    0.583483 0.837999 0.802219 0.119083
H26   H     H_    0.755743 0.392212 0.751952 0.158720
H27   H     H_    0.420398 0.753806 0.898094 0.084548
H28   H     H_    0.277761 0.454257 0.841780 0.081740
H29   H     H_    0.579602 0.246194 0.898094 0.084547
H30   H     H_    0.722239 0.545743 0.841780 0.081738
H31   H     H_    0.454256 0.277760 0.158219 0.081715
H32   H     H_    0.246194 0.579602 0.101906 0.084553
H33   H     H_    0.545743 0.722239 0.158220 0.081729
H34   H     H_    0.246243 0.577306 0.908517 0.161702
H35   H     H_    0.753806 0.420398 0.101908 0.084557
H36   H     H_    0.954257 0.222238 0.341779 0.081729
H37   H     H_    0.746194 0.920398 0.398094 0.084556
H38   H     H_    0.045742 0.777761 0.341779 0.081742
H39   H     H_    0.253806 0.079602 0.398092 0.084570
H40   H     H_    0.920398 0.746194 0.601906 0.084552
H41   H     H_    0.777761 0.045743 0.658220 0.081739
H42   H     H_    0.079603 0.253806 0.601906 0.084547
H43   H     H_    0.222240 0.954257 0.658220 0.081738
H44   H     H_    0.833280 0.325099 0.581630 0.019519
H45   H     H_    0.422694 0.753757 0.091483 0.161687
H46   H     H_    0.624819 0.985965 0.733851 0.024327
H47   H     H_    0.166717 0.674899 0.581631 0.019516
H48   H     H_    0.375182 0.014035 0.733850 0.024328
H49   H     H_    0.985964 0.624815 0.266154 0.024362
H50   H     H_    0.674924 0.166752 0.418392 0.019531
H51   H     H_    0.014001 0.375078 0.266107 0.024309
H52   H     H_    0.325091 0.833270 0.418377 0.019520
H53   H     H_    0.485982 0.875136 0.233857 0.024334
H54   H     H_    0.174933 0.333231 0.081602 0.019533
H55   H     H_    0.514004 0.124904 0.233881 0.024241
H56   H     H_    0.714229 0.535991 0.160726 0.104413
H57   H     H_    0.825102 0.666715 0.081633 0.019513
H58   H     H_    0.333283 0.174900 0.918368 0.019519
H59   H     H_    0.124816 0.514035 0.766149 0.024332
H60   H     H_    0.666719 0.825100 0.918369 0.019513
H61   H     H_    0.875180 0.485966 0.766147 0.024328
H62   H     H_    0.017624 0.838468 0.216134 0.035763
H63   H     H_    0.404681 0.155674 0.405465 0.045547
H64   H     H_    0.982376 0.161538 0.216143 0.035737
H65   H     H_    0.595335 0.844356 0.405458 0.045614
H66   H     H_    0.155643 0.404662 0.594539 0.045609
H67   H     H_    0.577305 0.246243 0.091486 0.161684
H68   H     H_    0.161542 0.982378 0.783858 0.035751
H69   H     H_    0.844357 0.595336 0.594541 0.045612
H70   H     H_    0.838459 0.017622 0.783858 0.035750
H71   H     H_    0.655644 0.095337 0.905461 0.045607
H72   H     H_    0.661541 0.517622 0.716142 0.035750
H73   H     H_    0.344358 0.904663 0.905460 0.045612
H74   H     H_    0.338461 0.482378 0.716140 0.035752
H75   H     H_    0.517620 0.661542 0.283857 0.035752
H76   H     H_    0.904667 0.344343 0.094536 0.045595
H77   H     H_    0.482383 0.338439 0.283836 0.035707
H78   H     H_    0.285768 0.464007 0.160725 0.104426
H79   H     H_    0.095339 0.655642 0.094538 0.045638
H80   H     H_    0.922694 0.746243 0.408518 0.161701
N1    N     N_R   0.425360 0.368540 0.922560 -0.045855
N2    N     N_R   0.131460 0.925360 0.422560 -0.045854
N3    N     N_R   0.074640 0.131460 0.422560 -0.051317
N4    N     N_R   0.868540 0.074640 0.422560 -0.045856
N5    N     N_R   0.925360 0.131460 0.577440 -0.045854
N6    N     N_R   0.131460 0.074640 0.577440 -0.051317
N7    N     N_R   0.074640 0.868540 0.577440 -0.045854
N8    N     N_R   0.868540 0.925360 0.577440 -0.051316
N9    N     N_R   0.425340 0.631500 0.922560 -0.045126
N10   N     N_R   0.368500 0.425340 0.922560 -0.043110
N11   N     N_R   0.574660 0.368500 0.922560 -0.045126
N12   N     N_R   0.631460 0.425360 0.922560 -0.051316
N13   N     N_R   0.631500 0.574660 0.922560 -0.043108
N14   N     N_R   0.425340 0.368500 0.077440 -0.043108
N15   N     N_R   0.368500 0.574660 0.077440 -0.045125
N16   N     N_R   0.574660 0.631500 0.077440 -0.043108
N17   N     N_R   0.631500 0.425340 0.077440 -0.045127
N18   N     N_R   0.925340 0.131500 0.422560 -0.043109
N19   N     N_R   0.868500 0.925340 0.422560 -0.045127
N20   N     N_R   0.074660 0.868500 0.422560 -0.043110
N21   N     N_R   0.131500 0.074660 0.422560 -0.045128
N22   N     N_R   0.925340 0.868500 0.577440 -0.045126
N23   N     N_R   0.574640 0.631460 0.922560 -0.045854
N24   N     N_R   0.868500 0.074660 0.577440 -0.043109
N25   N     N_R   0.074660 0.131500 0.577440 -0.045126
N26   N     N_R   0.131500 0.925340 0.577440 -0.043109
N27   N     N_R   0.368540 0.574640 0.922560 -0.051315
N28   N     N_R   0.425360 0.631460 0.077440 -0.051315
N29   N     N_R   0.631460 0.574640 0.077440 -0.045854
N30   N     N_R   0.574640 0.368540 0.077440 -0.051315
N31   N     N_R   0.368540 0.425360 0.077440 -0.045857
N32   N     N_R   0.925360 0.868540 0.422560 -0.051316
Ni1   Ni    Ni4+2 0.500000 0.369720 0.000000 0.230777
Ni2   Ni    Ni4+2 0.630280 0.500000 0.000000 0.230782
Ni3   Ni    Ni4+2 0.500000 0.630280 0.000000 0.230778
Ni4   Ni    Ni4+2 0.369720 0.500000 0.000000 0.230776
Ni5   Ni    Ni4+2 1.000000 0.869720 0.500000 0.230779
Ni6   Ni    Ni4+2 0.130280 0.000000 0.500000 0.230782
Ni7   Ni    Ni4+2 0.000000 0.130280 0.500000 0.230776
Ni8   Ni    Ni4+2 0.869720 0.000000 0.500000 0.230777
O1    O     O_2   0.740530 0.286409 0.639115 -0.560229
O2    O     O_2   0.213626 0.240494 0.139104 -0.560244
O3    O     O_2   0.572767 0.100667 0.137943 -0.535435
O4    O     O_2   0.786413 0.759466 0.139117 -0.560233
O5    O     O_2   0.240532 0.213589 0.860884 -0.560236
O6    O     O_2   0.100670 0.572778 0.862121 -0.535461
O7    O     O_2   0.759469 0.786411 0.860885 -0.560232
O8    O     O_2   0.899329 0.427223 0.862118 -0.535462
O9    O     O_2   0.010915 0.760987 0.132768 -0.598736
O10   O     O_2   0.329645 0.186494 0.486910 -0.567950
O11   O     O_2   0.989074 0.238958 0.132723 -0.598681
O12   O     O_2   0.600670 0.927222 0.637881 -0.535457
O13   O     O_2   0.670342 0.813499 0.486913 -0.567947
O14   O     O_2   0.186506 0.329656 0.513085 -0.567958
O15   O     O_2   0.238998 0.989082 0.867247 -0.598707
O16   O     O_2   0.813497 0.670343 0.513087 -0.567944
O17   O     O_2   0.761005 0.010918 0.867249 -0.598707
O18   O     O_2   0.686506 0.170344 0.986915 -0.567958
O19   O     O_2   0.738994 0.510918 0.632751 -0.598700
O20   O     O_2   0.313495 0.829657 0.986914 -0.567951
O21   O     O_2   0.261000 0.489083 0.632755 -0.598711
O22   O     O_2   0.510917 0.738992 0.367251 -0.598706
O23   O     O_2   0.259468 0.713588 0.639115 -0.560232
O24   O     O_2   0.829649 0.313494 0.013087 -0.567948
O25   O     O_2   0.489064 0.261108 0.367338 -0.598568
O26   O     O_2   0.170344 0.686509 0.013085 -0.567946
O27   O     O_2   0.399331 0.072779 0.637880 -0.535456
O28   O     O_2   0.927220 0.600669 0.362124 -0.535445
O29   O     O_2   0.713617 0.259493 0.360896 -0.560217
O30   O     O_2   0.072762 0.399328 0.362042 -0.535453
O31   O     O_2   0.286399 0.740523 0.360889 -0.560229
O32   O     O_2   0.427223 0.899336 0.137909 -0.535440

loop_
_geom_bond_atom_site_label_1
_geom_bond_atom_site_label_2
_ccdc_geom_bond_type
C55   H10   S    
C101  H56   S    
N9    Ni3   S    
N10   Ni4   S    
C82   H37   S    
C21   C59   S    
C59   C66   S    
C22   C60   S    
C86   C103  A    
C7    C42   S    
C26   H53   S    
N5    N24   A    
N29   Ni2   S    
C109  C127  A    
C51   H79   S    
C53   H8    S    
C86   N24   A    
C60   H15   S    
C100  C135  S    
C63   C115  S    
C82   C98   A    
C30   O5    D    
C107  C124  A    
C36   O10   D    
C34   O9    D    
C87   H42   S    
C30   H58   S    
C14   C144  A    
C84   C100  A    
C97   C131  S    
N17   Ni2   S    
C116  C133  A    
C44   O19   D    
C83   N20   A    
C94   C132  S    
C81   N18   A    
C101  N29   A    
C112  H67   S    
N27   Ni4   S    
C41   H69   S    
N2    N20   A    
C71   H26   S    
N25   Ni7   S    
C73   N10   A    
N22   Ni5   S    
C74   H29   S    
C60   C65   S    
C85   H40   S    
C134  H80   S    
C47   O21   D    
C37   H64   S    
C120  C138  A    
C117  C135  A    
C118  C136  A    
C2    N2    A    
C14   C130  A    
C18   H46   S    
C91   C125  S    
C44   H72   S    
C65   C113  S    
C76   H31   S    
C81   H36   S    
C13   N3    A    
N12   Ni2   S    
C69   H24   S    
C41   O16   D    
C109  C121  A    
C52   H7    S    
C68   C92   A    
N8    N22   A    
C25   C62   S    
N16   Ni3   S    
C27   C64   S    
C33   C71   S    
C134  N32   A    
C58   C67   S    
C86   H41   S    
N13   Ni2   S    
C29   O4    D    
C32   O7    D    
C108  C126  A    
C22   O29   D    
C17   C54   S    
C110  C128  A    
N24   Ni8   S    
C48   H75   S    
C19   C56   S    
C37   C144  S    
C78   H33   S    
C1    H1    S    
C16   C51   S    
C6    C9    A    
C7    C8    A    
C33   H61   S    
C133  C142  A    
N1    N10   A    
C70   H25   S    
C59   H14   S    
C27   O2    D    
C17   H44   S    
C115  C116  A    
C77   C94   A    
C80   N17   A    
N13   N23   A    
C111  C119  A    
N26   Ni6   S    
C67   C110  S    
C40   O15   D    
C23   O30   D    
C30   C67   S    
C135  C143  A    
C25   O31   D    
C75   H30   S    
C26   O32   D    
C31   O6    D    
C103  C141  S    
C5    C139  A    
C18   O12   D    
C115  C132  A    
C57   H12   S    
C28   H55   S    
C64   C114  S    
C113  C130  A    
C80   H35   S    
C107  C125  A    
C61   H16   S    
C32   C70   S    
N30   Ni1   S    
C73   H28   S    
C26   C63   S    
C38   O13   D    
C112  N30   A    
C10   C45   S    
C21   O28   D    
C50   O25   D    
C25   H52   S    
C18   C55   S    
C15   C143  A    
C52   C105  A    
C77   H32   S    
C124  C141  A    
C13   H3    S    
C20   C58   S    
C85   C106  A    
C7    C141  A    
C42   O17   D    
C95   C129  S    
C87   N25   A    
N31   Ni4   S    
N8    Ni8   S    
C66   H21   S    
N15   N28   A    
C58   H13   S    
C2    C99   A    
C52   N7    A    
N14   N31   A    
C121  C139  A    
C122  C140  A    
C97   C123  A    
C70   C108  S    
C88   C105  A    
C39   O14   D    
C82   N19   A    
C114  C117  A    
C53   N8    A    
C31   C69   S    
C15   C131  A    
C56   C69   S    
C23   H51   S    
C21   H49   S    
C74   N11   A    
C95   C101  A    
N6    Ni6   S    
C49   O24   D    
C71   C107  S    
C114  C131  A    
C11   C47   S    
C8    C43   S    
C12   C48   S    
N3    Ni7   S    
C27   H54   S    
C28   O3    D    
C35   C103  A    
C72   N9    A    
N14   Ni1   S    
C76   N14   A    
C48   O22   D    
C111  C129  A    
C88   H43   S    
C54   C71   S    
C78   N16   A    
N11   N12   A    
C60   C118  S    
C3    C137  A    
C66   C111  S    
N6    N25   A    
C123  N31   A    
N7    Ni5   S    
C45   O20   D    
C83   C99   A    
N32   Ni5   S    
C46   N6    A    
C64   H19   S    
C90   C94   A    
N5    Ni7   S    
C47   H74   S    
C29   H57   S    
C12   C129  A    
C98   C137  S    
C61   C117  S    
C72   H27   S    
N15   Ni4   S    
C76   C97   A    
C46   C104  A    
N19   N32   A    
C39   H66   S    
C74   C91   A    
C32   H60   S    
C61   C64   S    
C62   C63   S    
N3    N21   A    
C106  C140  S    
C78   C95   A    
C58   C120  S    
C4    C11   A    
C72   C93   A    
C33   O8    D    
C75   N13   A    
C57   N12   A    
N9    N27   A    
C96   C130  S    
C1    N1    A    
C54   C124  S    
C34   C142  S    
C59   C119  S    
C57   C91   A    
C79   N27   A    
C92   C126  S    
C20   H48   S    
C40   H68   S    
C28   C65   S    
C73   C89   A    
C136  C144  A    
C19   H47   S    
C24   C102  A    
C6    C140  A    
C16   C132  A    
C102  C136  S    
C4    C138  A    
C87   C104  A    
C62   H17   S    
C8    C125  A    
C23   C61   S    
C5    C40   S    
C77   N15   A    
C35   H5    S    
N4    Ni8   S    
N28   Ni3   S    
C89   C128  S    
C63   H18   S    
C50   H77   S    
C45   H73   S    
C43   H71   S    
C54   H9    S    
C34   H62   S    
C96   C112  A    
N16   N29   A    
C36   C143  S    
C79   C93   A    
C14   C49   S    
C105  C139  S    
C99   C133  S    
C15   C50   S    
C17   O1    D    
C3    C12   A    
C69   C109  S    
C3    C38   S    
C6    C41   S    
N18   Ni7   S    
C80   C96   A    
N2    Ni6   S    
C31   H59   S    
C53   C106  A    
C55   C122  S    
C56   H11   S    
N21   Ni6   S    
C81   C102  A    
C68   N23   A    
C123  H78   S    
C49   H76   S    
C119  C137  A    
C51   O26   D    
C24   H4    S    
C110  C120  A    
C90   N28   A    
C29   C66   S    
C83   H38   S    
C84   N21   A    
C35   N5    A    
C36   H63   S    
C16   C142  A    
C93   C127  S    
C62   C116  S    
C42   H70   S    
C43   O18   D    
C4    C39   S    
N11   Ni1   S    
C19   O23   D    
C79   H34   S    
C75   C92   A    
C67   H22   S    
C46   H6    S    
C85   N22   A    
N19   Ni8   S    
C10   C127  A    
C88   N26   A    
C9    C44   S    
C1    C89   A    
C20   O27   D    
C84   H39   S    
C108  C122  A    
N23   Ni3   S    
N20   Ni5   S    
C2    H2    S    
C98   C134  A    
C9    C126  A    
C56   C121  S    
C13   C100  A    
C11   C128  A    
N1    Ni1   S    
C5    C10   A    
C37   O11   D    
C65   H20   S    
C104  C138  S    
C38   H65   S    
C55   C70   S    
C113  C118  A    
C68   H23   S    
N4    N18   A    
C22   H50   S    
N17   N30   A    
C24   N4    A    
N7    N26   A    
C90   H45   S    
