data_mof_unit_39821.cif
_audit_creation_date              2012-10-26T21:04:53-0400
_audit_creation_method            fapswitch 2.2
_symmetry_space_group_name_H-M    P1
_symmetry_Int_Tables_number       1
_space_group_crystal_system       triclinic
_cell_length_a                    11.679288
_cell_length_b                    12.418735
_cell_length_c                    13.235055
_cell_angle_alpha                 117.492572
_cell_angle_beta                  77.147921
_cell_angle_gamma                 101.357706
_cell_volume                      1650.30644434

loop_
_atom_site_label
_atom_site_type_symbol
_atom_type_description
_atom_site_fract_x
_atom_site_fract_y
_atom_site_fract_z
_atom_type_partial_charge
Br1   Br    Br    0.387145 0.351857 0.631625 -0.486256
Br2   Br    Br    0.107578 0.280013 0.008253 -0.519131
Br3   Br    Br    0.763859 0.934429 0.158671 -0.508224
Br4   Br    Br    0.257275 0.767246 0.243170 -0.513542
C1    C     C_R   0.518791 0.854386 0.286161 0.598193
C2    C     C_R   0.301601 0.517226 0.137572 0.053056
C3    C     C_R   0.356715 0.636405 0.164652 0.164975
C4    C     C_R   0.715568 0.000046 0.499920 0.551739
C5    C     C_R   0.509975 0.340616 0.879781 -0.102140
C6    C     C_R   0.329191 0.209848 0.884152 -0.073640
C7    C     C_R   0.544289 0.770636 0.162533 0.030424
C8    C     C_R   0.688062 0.344676 0.328238 -0.144598
C9    C     C_R   0.330268 0.754104 0.631912 0.060151
C10   C     C_R   0.274886 0.646152 0.635418 -0.146644
C11   C     C_R   0.330901 0.540356 0.572649 -0.100443
C12   C     C_R   0.444197 0.228035 0.832782 -0.010153
C13   C     C_R   0.448444 0.543526 0.516430 0.009176
C14   C     C_R   0.493579 0.651338 0.501664 0.168958
C15   C     C_R   0.517909 0.441426 0.464886 0.005542
C16   C     C_R   0.481130 0.145154 0.713129 0.548158
C17   C     C_R   0.619440 0.442682 0.383402 0.004137
C18   C     C_R   0.654022 0.543350 0.359295 -0.165147
C19   C     C_R   0.594167 0.646472 0.419068 -0.095529
C20   C     C_R   0.497038 0.341949 0.495336 0.293633
C21   C     C_R   0.659425 0.246815 0.356208 0.041702
C22   C     C_R   0.284187 0.001847 0.502861 0.592550
C23   C     C_R   0.653702 0.791804 0.099267 0.141930
C24   C     C_1   0.837322 0.000981 0.501109 0.014200
C25   C     C_1   0.939789 0.001811 0.502474 -0.003745
C26   C     C_1   0.059543 0.002576 0.503880 0.011610
C27   C     C_1   0.162127 0.002683 0.504191 0.049466
C28   C     C_R   0.277971 0.304956 0.981440 0.155410
C29   C     C_3   0.206223 0.496137 0.227959 -0.242492
C30   C     C_3   0.247887 0.549586 0.344978 -0.425701
C31   C     C_R   0.691804 0.702102 0.991500 -0.086009
C32   C     C_R   0.629116 0.587312 0.949485 -0.127421
C33   C     C_R   0.522571 0.559765 0.013039 0.006643
C34   C     C_R   0.473639 0.656730 0.113969 -0.000216
C35   C     C_R   0.460743 0.440376 0.975598 0.008699
C36   C     C_R   0.346150 0.419891 0.034059 0.041651
Cu1   Cu    Cu3+1 0.526510 0.098270 0.475420 1.055088
Cu2   Cu    Cu3+1 0.473490 0.901730 0.524580 0.945594
H1    H     H_    0.274629 0.125615 0.840740 0.151796
H2    H     H_    0.774552 0.719164 0.942036 0.163569
H3    H     H_    0.713449 0.172506 0.314713 0.188082
H4    H     H_    0.330795 0.512371 0.335042 0.157682
H5    H     H_    0.263383 0.650589 0.383356 0.217186
H6    H     H_    0.179420 0.523673 0.405345 0.142109
H7    H     H_    0.124857 0.535222 0.236602 0.209471
H8    H     H_    0.184192 0.397892 0.205677 0.193673
H9    H     H_    0.730737 0.544081 0.295902 0.134779
H10   H     H_    0.764942 0.344623 0.264820 0.141085
H11   H     H_    0.284495 0.835109 0.676344 0.139212
H12   H     H_    0.277274 0.455829 0.562011 0.169021
H13   H     H_    0.186103 0.642909 0.681322 0.128692
H14   H     H_    0.627581 0.718938 0.394940 0.182953
H15   H     H_    0.598524 0.347874 0.835864 0.118051
H16   H     H_    0.666136 0.523182 0.865677 0.126360
N1    N     N_R   0.566700 0.246290 0.438210 -0.229336
N2    N     N_R   0.434010 0.754320 0.561170 -0.241735
O1    O     O_R   0.533340 0.972510 0.318140 -0.448903
O2    O     O_R   0.488570 0.806530 0.359650 -0.520688
O3    O     O_R   0.685190 0.083000 0.479260 -0.487461
O4    O     O_R   0.640410 0.917020 0.520770 -0.518292
O5    O     O_R   0.511430 0.193470 0.640350 -0.451924
O6    O     O_R   0.466660 0.027490 0.681860 -0.507933
O7    O     O_R   0.359590 0.082980 0.479230 -0.447379
O8    O     O_R   0.314810 0.917000 0.520740 -0.511722

loop_
_geom_bond_atom_site_label_1
_geom_bond_atom_site_label_2
_ccdc_geom_bond_type
C13   C14   A    
C7    C34   A    
C22   O8    A    
Cu2   O4    S    
C11   C13   A    
C33   C34   A    
C30   H4    S    
Cu1   O1    S    
Cu1   Cu2   S    
Cu2   O2    S    
C5    H15   S    
C31   C32   A    
C2    C29   S    
C7    C23   A    
C8    C21   A    
C12   C16   S    
C10   H13   S    
C21   H3    S    
Br3   C23   S    
C29   C30   S    
C8    H10   S    
C1    O1    A    
C19   H14   S    
C33   C35   A    
C9    N2    A    
C6    C12   A    
C9    C10   A    
Cu2   N2    S    
Cu2   O8    S    
C31   H2    S    
Cu1   N1    S    
C25   C26   S    
C4    O4    A    
Br4   C3    S    
C22   O7    A    
C14   N2    A    
C32   C33   A    
C15   C17   A    
C5    C12   A    
C1    O2    A    
C1    C7    S    
C2    C3    A    
C9    H11   S    
C28   C36   A    
C26   C27   T    
C4    C24   S    
C2    C36   A    
C30   H6    S    
Cu1   O3    S    
C32   H16   S    
C29   H7    S    
C14   C19   A    
C24   C25   T    
C11   H12   S    
C6    C28   A    
C16   O5    A    
C5    C35   A    
Cu1   O7    S    
Br1   C20   S    
Br2   C28   S    
C4    O3    A    
C22   C27   S    
C16   O6    A    
C35   C36   A    
Cu2   O6    S    
C29   H8    S    
C10   C11   A    
C13   C15   A    
Cu1   O5    S    
C30   H5    S    
C21   N1    A    
C23   C31   A    
C6    H1    S    
C17   C18   A    
C15   C20   A    
C8    C17   A    
C3    C34   A    
C18   C19   A    
C20   N1    A    
C18   H9    S    
