data_mof_unit_12654.cif
_audit_creation_date              2012-12-11T17:43:18-0500
_audit_creation_method            fapswitch 2.2
_symmetry_space_group_name_H-M    P1
_symmetry_Int_Tables_number       1
_space_group_crystal_system       triclinic
_cell_length_a                    15.057081
_cell_length_b                    15.204399
_cell_length_c                    16.925494
_cell_angle_alpha                 108.807871
_cell_angle_beta                  106.079523
_cell_angle_gamma                 109.408698
_cell_volume                      3122.95960298

loop_
_atom_site_label
_atom_site_type_symbol
_atom_type_description
_atom_site_fract_x
_atom_site_fract_y
_atom_site_fract_z
_atom_type_partial_charge
C1    C     C_R   0.087007 0.290000 0.077515 -0.136061
C2    C     C_R   0.909673 0.722829 0.963891 -0.088582
C3    C     C_R   0.026889 0.574531 0.742719 0.051513
C4    C     C_R   0.971951 0.535198 0.274042 0.082304
C5    C     C_R   0.761159 0.198353 0.725747 0.057647
C6    C     C_R   0.334641 0.783796 0.256284 0.069679
C7    C     C_R   0.291254 0.465032 0.970109 0.048461
C8    C     C_R   0.640895 0.434566 0.944005 0.059804
C9    C     C_R   0.927828 0.944318 0.059055 -0.219131
C10   C     C_R   0.079744 0.085931 0.035743 -0.212918
C11   C     C_R   0.002280 0.920702 0.035902 0.115693
C12   C     C_R   0.003325 0.107977 0.054860 0.101264
C13   C     C_R   0.079517 0.992544 0.024460 0.070758
C14   C     C_R   0.927951 0.039113 0.069723 0.079701
C15   C     C_R   0.742064 0.993384 0.032317 -0.172062
C16   C     C_R   0.261095 0.021705 0.063731 -0.191778
C17   C     C_R   0.688850 0.108401 0.120422 -0.117828
C18   C     C_R   0.318300 0.952509 0.949232 -0.114754
C19   C     C_R   0.489109 0.590352 0.272155 -0.122477
C20   C     C_R   0.508527 0.307330 0.647394 -0.113268
C21   C     C_R   0.479282 0.565700 0.182177 -0.115606
C22   C     C_R   0.497020 0.319932 0.728906 -0.130875
C23   C     C_R   0.935602 0.516635 0.745523 -0.131861
C24   C     C_R   0.064258 0.549190 0.265026 -0.079380
C25   C     C_R   0.449484 0.462466 0.120572 0.110090
C26   C     C_R   0.473037 0.398948 0.772522 0.115129
C27   C     C_R   0.430773 0.384658 0.150423 -0.197555
C28   C     C_R   0.459109 0.463772 0.732022 -0.169811
C29   C     C_R   0.439154 0.409474 0.240070 -0.109337
C30   C     C_R   0.470283 0.450557 0.650254 -0.096149
C31   C     C_R   0.468387 0.512321 0.300946 -0.099510
C32   C     C_R   0.495221 0.372621 0.608124 -0.092629
C33   C     C_R   0.522325 0.418850 0.012509 -0.228795
C34   C     C_R   0.380803 0.428072 0.872808 -0.237415
C35   C     C_R   0.537595 0.415561 0.934378 0.057569
C36   C     C_R   0.372508 0.442412 0.955978 0.067720
C37   C     C_R   0.464161 0.414466 0.860817 0.023666
C38   C     C_R   0.443705 0.436655 0.026379 0.017120
C39   C     C_R   0.663405 0.016062 0.045958 -0.098064
C40   C     C_R   0.340145 0.010349 0.040982 -0.107052
C41   C     C_R   0.963150 0.579677 0.360583 0.131833
C42   C     C_R   0.035071 0.612694 0.674559 0.161592
C43   C     C_R   0.139716 0.684850 0.603829 -0.198635
C44   C     C_R   0.858863 0.560462 0.445843 -0.227612
C45   C     C_R   0.777221 0.203733 0.812357 -0.132613
C46   C     C_R   0.278924 0.785147 0.177001 -0.144893
C47   C     C_R   0.133012 0.664922 0.676925 -0.181046
C48   C     C_R   0.865224 0.547146 0.362740 -0.160297
C49   C     C_R   0.944310 0.589055 0.601871 -0.244499
C50   C     C_R   0.053993 0.641079 0.443748 -0.269341
C51   C     C_R   0.950102 0.602534 0.525811 0.189995
C52   C     C_R   0.048482 0.647428 0.525662 0.205844
C53   C     C_R   0.720685 0.103489 0.639574 0.129267
C54   C     C_R   0.442632 0.859029 0.323758 0.132060
C55   C     C_R   0.589097 0.031905 0.393528 -0.222165
C56   C     C_R   0.615733 0.915226 0.555043 -0.227610
C57   C     C_R   0.496430 0.951153 0.319036 -0.174239
C58   C     C_R   0.685464 0.004643 0.637895 -0.160932
C59   C     C_R   0.488930 0.843891 0.398946 -0.306102
C60   C     C_R   0.701113 0.109911 0.556180 -0.280952
C61   C     C_R   0.579538 0.925111 0.474534 0.194775
C62   C     C_R   0.626800 0.021779 0.473735 0.190171
C63   C     C_R   0.792963 0.177676 0.182521 -0.165172
C64   C     C_R   0.217526 0.906437 0.879866 -0.171022
C65   C     C_R   0.873589 0.155657 0.171108 -0.056313
C66   C     C_R   0.135790 0.915217 0.901074 -0.055500
C67   C     C_R   0.263286 0.537641 0.952708 -0.137993
C68   C     C_R   0.699098 0.402238 0.994057 -0.157692
C69   C     C_R   0.847629 0.062841 0.093252 0.028452
C70   C     C_R   0.158159 0.972531 0.995261 0.032596
C71   C     C_R   0.782722 0.298374 0.734765 -0.129030
C72   C     C_R   0.273545 0.690771 0.253687 -0.141748
C73   C     C_R   0.246654 0.435552 0.023786 -0.106689
C74   C     C_R   0.704483 0.500439 0.920722 -0.127672
C75   C     C_R   0.108537 0.600435 0.822665 -0.136405
C76   C     C_R   0.890161 0.464138 0.187358 -0.105880
C77   C     C_R   0.914183 0.203232 0.998238 -0.135093
C78   C     C_R   0.083878 0.805578 0.046594 -0.133905
C79   C     C_R   0.000160 0.198135 0.047327 0.043017
C80   C     C_R   0.997160 0.820274 0.021144 0.051528
H1    H     H_    0.165216 0.315855 0.126602 0.112796
H2    H     H_    0.829939 0.706517 0.928583 0.104402
H3    H     H_    0.495786 0.626905 0.160741 0.114388
H4    H     H_    0.507225 0.268341 0.758187 0.115296
H5    H     H_    0.408833 0.304875 0.103966 0.124312
H6    H     H_    0.441431 0.525681 0.764482 0.107157
H7    H     H_    0.423666 0.349149 0.262515 0.111725
H8    H     H_    0.460136 0.501162 0.619789 0.105874
H9    H     H_    0.579708 0.421146 0.069632 0.129138
H10   H     H_    0.323067 0.428679 0.818212 0.133076
H11   H     H_    0.130059 0.672336 0.444231 0.113939
H12   H     H_    0.868214 0.551460 0.599633 0.107528
H13   H     H_    0.793434 0.504255 0.300122 0.115085
H14   H     H_    0.204678 0.685967 0.732596 0.104865
H15   H     H_    0.215753 0.720279 0.604807 0.118652
H16   H     H_    0.782771 0.528022 0.445506 0.126786
H17   H     H_    0.732790 0.184720 0.555664 0.119667
H18   H     H_    0.450137 0.773366 0.403886 0.113618
H19   H     H_    0.703935 0.996287 0.700611 0.120864
H20   H     H_    0.464392 0.964356 0.260970 0.113237
H21   H     H_    0.627666 0.126105 0.130443 0.101810
H22   H     H_    0.379956 0.944512 0.931539 0.101578
H23   H     H_    0.810268 0.248037 0.240600 0.153883
H24   H     H_    0.204047 0.864730 0.809132 0.165333
H25   H     H_    0.767270 0.140824 0.830806 0.095815
H26   H     H_    0.308574 0.837128 0.149203 0.092346
H27   H     H_    0.286909 0.578302 0.914428 0.098065
H28   H     H_    0.670905 0.341180 0.013856 0.097961
H29   H     H_    0.777668 0.323444 0.681683 0.094596
H30   H     H_    0.297535 0.655530 0.296067 0.091603
H31   H     H_    0.188942 0.657898 0.850432 0.089469
H32   H     H_    0.807713 0.435182 0.168389 0.085892
H33   H     H_    0.833274 0.148373 0.972629 0.108390
H34   H     H_    0.163791 0.863866 0.090818 0.116452
N1    N     N_R   0.055660 0.348550 0.045620 -0.041208
N2    N     N_R   0.944340 0.651450 0.954380 -0.046727
N3    N     N_R   0.960830 0.507850 0.823700 -0.039056
N4    N     N_R   0.039170 0.492150 0.176300 -0.042045
N5    N     N_R   0.811290 0.303410 0.871650 -0.041165
N6    N     N_R   0.188710 0.696590 0.128350 -0.039574
N7    N     N_R   0.205200 0.552990 0.997670 -0.040996
N8    N     N_R   0.794800 0.447010 0.002330 -0.040751
N9    N     N_R   0.814800 0.361830 0.823700 -0.040151
N10   N     N_R   0.185200 0.638170 0.176300 -0.042503
N11   N     N_R   0.201680 0.494570 0.045620 -0.043093
N12   N     N_R   0.798320 0.505430 0.954380 -0.042808
N13   N     N_R   0.068420 0.560530 0.871650 -0.037266
N14   N     N_R   0.931580 0.439470 0.128350 -0.041127
N15   N     N_R   0.948070 0.295860 0.997670 -0.039064
N16   N     N_R   0.051930 0.704140 0.002330 -0.042950
Ni1   Ni    Ni4+2 0.119340 0.493420 0.109960 0.221557
Ni2   Ni    Ni4+2 0.880660 0.506580 0.890040 0.217741
Ni3   Ni    Ni4+2 0.872590 0.372590 0.000000 0.217011
Ni4   Ni    Ni4+2 0.127410 0.627410 0.000000 0.215206
H35   H     H_    0.720718 0.922583 0.972518 0.119926
H36   H     H_    0.279734 0.068143 0.135336 0.122228
H37   H     H_    0.475788 0.531740 0.370630 0.099892
H38   H     H_    0.504208 0.362817 0.545035 0.100210
H39   H     H_    0.513912 0.670150 0.319823 0.120108
H40   H     H_    0.527827 0.246944 0.614713 0.115867
H41   H     H_    0.857016 0.496093 0.701847 0.089596
H42   H     H_    0.143140 0.598298 0.317901 0.083928
H43   H     H_    0.582545 0.962434 0.998045 0.099505
H44   H     H_    0.418660 0.047198 0.094525 0.099252
H45   H     H_    0.625738 0.105209 0.391460 0.126343
H46   H     H_    0.582277 0.840559 0.555779 0.125600
C81   C     C_2   0.982416 0.229862 0.242482 0.976475
O1    O     O_2   0.048896 0.200205 0.255281 -0.651213
O2    O     O_R   0.008385 0.333935 0.297096 -0.813251
H47   H     H_    0.084526 0.377039 0.343171 0.320709
C82   C     C_2   0.030912 0.867422 0.823160 0.976926
O3    O     O_2   0.953810 0.858126 0.837363 -0.661959
O4    O     O_R   0.020340 0.832853 0.732241 -0.806780
H48   H     H_    0.945747 0.801855 0.685222 0.326660
H49   H     H_    0.250136 0.378568 0.047532 0.110064
H50   H     H_    0.682023 0.533581 0.875661 0.106997
H51   H     H_    0.869838 0.888855 0.068606 0.125752
H52   H     H_    0.136402 0.138956 0.023041 0.125235

loop_
_geom_bond_atom_site_label_1
_geom_bond_atom_site_label_2
_ccdc_geom_bond_type
C63   C65   A    
C3    C42   S    
C5    C71   A    
N9    Ni2   S    
C27   C29   A    
C34   C37   A    
C7    C36   S    
C3    C23   A    
C81   O1    D    
N13   Ni4   S    
C19   C31   A    
C7    C73   A    
N1    Ni1   S    
C65   C69   A    
C6    C72   A    
N5    Ni3   S    
C71   N9    A    
C81   O2    S    
C17   C39   A    
C4    C24   A    
C78   C80   A    
C43   C52   A    
C55   H45   S    
C15   H35   S    
C4    C41   S    
C1    H1    S    
C12   C79   S    
C46   H26   S    
C60   C62   A    
C18   H22   S    
C27   H5    S    
N3    Ni2   S    
C17   H21   S    
C18   C40   A    
N4    Ni1   S    
N7    N11   A    
C2    N2    A    
C41   C48   A    
C21   H3    S    
C24   H42   S    
C49   C51   A    
C50   C52   A    
C82   O3    D    
C9    H51   S    
N7    Ni4   S    
C65   C81   S    
C3    C75   A    
C10   H52   S    
C75   N13   A    
C45   N5    A    
C72   N10   A    
C78   H34   S    
N4    N14   A    
C6    C54   S    
C20   C32   A    
C77   H33   S    
C67   N7    A    
C26   C28   A    
C53   C60   A    
C45   H25   S    
C54   C59   A    
C77   C79   A    
C15   C69   A    
C72   H30   S    
C59   C61   A    
C29   H7    S    
C48   H13   S    
C74   H50   S    
C51   C52   A    
C18   C64   A    
C16   C70   A    
C63   H23   S    
C60   H17   S    
C68   N8    A    
C57   H20   S    
C5    C45   A    
N10   Ni1   S    
C8    C35   S    
C64   C66   A    
N8    N12   A    
C9    C14   A    
C34   H10   S    
N8    Ni3   S    
C32   H38   S    
C44   H16   S    
C33   H9    S    
C25   C38   S    
C9    C11   A    
N11   Ni1   S    
C43   H15   S    
N2    Ni2   S    
N12   Ni2   S    
C76   H32   S    
C73   H49   S    
C8    C74   A    
C46   N6    A    
C77   N15   A    
N3    N13   A    
C15   C39   A    
C22   C26   A    
C10   C12   A    
C16   C40   A    
N15   Ni3   S    
C44   C51   A    
N6    Ni4   S    
C39   H43   S    
C8    C68   A    
C55   C57   A    
C28   H6    S    
C76   N14   A    
C14   C69   S    
C2    H2    S    
C31   H37   S    
C20   C22   A    
C49   H12   S    
C30   H8    S    
C36   C38   A    
C16   H36   S    
C41   C50   A    
C1    C79   A    
N1    N15   A    
C5    C53   S    
C64   H24   S    
C21   C25   A    
C6    C46   A    
C35   C37   A    
C24   N4    A    
C58   H19   S    
C12   C14   A    
C10   C13   A    
C23   N3    A    
C53   C58   A    
C26   C37   S    
N5    N9    A    
C25   C27   A    
C1    N1    A    
C66   C70   A    
C75   H31   S    
C33   C38   A    
C20   H40   S    
C40   H44   S    
C78   N16   A    
C66   C82   S    
C29   C31   A    
N14   Ni3   S    
C17   C63   A    
C30   C32   A    
C11   C13   A    
C67   H27   S    
C74   N12   A    
C73   N11   A    
C71   H29   S    
C28   C30   A    
C33   C35   A    
C47   H14   S    
C56   C58   A    
C34   C36   A    
C42   C47   A    
C82   O4    S    
C56   H46   S    
C61   C62   A    
N16   Ni4   S    
C4    C76   A    
C2    C80   A    
C11   C80   S    
C42   C49   A    
C7    C67   A    
C44   C48   A    
C50   H11   S    
N2    N16   A    
C55   C62   A    
C19   H39   S    
C13   C70   S    
C59   H18   S    
C56   C61   A    
C23   H41   S    
C68   H28   S    
O4    H48   S    
O2    H47   S    
C43   C47   A    
N6    N10   A    
C22   H4    S    
C19   C21   A    
C54   C57   A    
