data_mof_unit_45851.cif
_audit_creation_date              2012-12-11T15:46:49-0500
_audit_creation_method            fapswitch 2.2
_symmetry_space_group_name_H-M    P1
_symmetry_Int_Tables_number       1
_space_group_crystal_system       triclinic
_cell_length_a                    11.743559
_cell_length_b                    11.700363
_cell_length_c                    19.415606
_cell_angle_alpha                 91.039846
_cell_angle_beta                  90.108873
_cell_angle_gamma                 59.728444
_cell_volume                      2303.55674602

loop_
_atom_site_label
_atom_site_type_symbol
_atom_type_description
_atom_site_fract_x
_atom_site_fract_y
_atom_site_fract_z
_atom_type_partial_charge
C1    C     C_R   0.640176 0.117633 0.598823 0.547940
C2    C     C_1   0.640898 0.704534 0.667697 0.006756
C3    C     C_1   0.127112 0.197598 0.859652 0.009865
C4    C     C_1   0.171177 0.171204 0.727512 -0.029189
C5    C     C_1   0.150404 0.181694 0.798997 -0.028795
C6    C     C_1   0.194918 0.162517 0.666966 0.008314
C7    C     C_1   0.679452 0.189826 0.861239 0.011385
C8    C     C_1   0.658211 0.167785 0.728980 -0.029289
C9    C     C_1   0.665999 0.180103 0.800560 -0.028689
C10   C     C_1   0.652366 0.150755 0.668276 0.008300
C11   C     C_R   0.631386 0.726568 0.176420 0.007146
C12   C     C_R   0.611815 0.747156 0.598363 0.555702
C13   C     C_R   0.518107 0.752256 0.210747 0.056315
C14   C     C_R   0.508501 0.765019 0.282007 0.077601
C15   C     C_R   0.707074 0.773902 0.283818 -0.117783
C16   C     C_R   0.714136 0.761148 0.211263 -0.093649
C17   C     C_3   0.383968 0.867226 0.200836 -0.299595
C18   C     C_3   0.372047 0.875926 0.277927 -0.261421
C19   C     C_R   0.606045 0.769446 0.320325 0.001374
C20   C     C_R   0.101658 0.217417 0.201910 0.020813
C21   C     C_R   0.108161 0.312575 0.241143 0.074585
C22   C     C_R   0.131605 0.299862 0.310388 -0.070750
C23   C     C_R   0.241408 0.145721 0.597803 0.547567
C24   C     C_R   0.112264 0.106288 0.309812 -0.166355
C25   C     C_R   0.095815 0.116650 0.237616 -0.167752
C26   C     C_3   0.188226 0.374391 0.228630 0.637567
C27   C     C_3   0.216461 0.361243 0.305042 -0.154520
C28   C     C_R   0.151113 0.187069 0.344286 0.007531
C29   C     C_R   0.664561 0.180916 0.191664 0.020938
C30   C     C_R   0.742790 0.054619 0.219945 -0.036977
C31   C     C_R   0.744818 0.038174 0.290065 -0.009241
C32   C     C_R   0.572550 0.261908 0.306595 -0.133708
C33   C     C_R   0.567866 0.280996 0.235762 0.255711
C34   C     C_R   0.645733 0.111623 0.403275 0.541586
C35   C     C_3   0.888059 0.957277 0.215136 -0.236870
C36   C     C_3   0.890045 0.948853 0.292568 -0.238505
C37   C     C_R   0.665066 0.142330 0.334462 -0.031408
C38   C     C_R   0.081674 0.230861 0.929027 0.549024
C39   C     C_R   0.684268 0.603216 0.929777 0.526703
C40   C     C_R   0.708998 0.206243 0.930564 0.546806
C41   C     C_R   0.072448 0.241395 0.128430 0.582076
C42   C     C_R   0.676776 0.624096 0.120650 0.568956
C43   C     C_R   0.707158 0.210906 0.126591 0.566694
C44   C     C_R   0.584797 0.797037 0.394790 0.549551
C45   C     C_R   0.236656 0.144806 0.404672 0.531046
C46   C     C_1   0.670276 0.645869 0.860459 0.011429
C47   C     C_1   0.654536 0.683913 0.728322 -0.029953
C48   C     C_1   0.663216 0.666505 0.799844 -0.028477
Cr1   Cr    Cr6+3 0.404720 0.198220 0.499960 1.028989
Cr2   Cr    Cr6+3 0.698290 0.897110 0.500380 1.036441
Cr3   Cr    Cr6+3 0.396970 0.904720 0.499610 1.034791
Cr4   Cr    Cr6+3 0.926290 0.152010 0.028150 1.025203
Cr5   Cr    Cr6+3 0.921440 0.451830 0.027490 1.099121
Cr6   Cr    Cr6+3 0.626370 0.446880 0.028730 1.108790
H1    H     H_    0.779203 0.786544 0.311439 0.156343
H2    H     H_    0.322123 0.290677 0.315235 0.153917
H3    H     H_    0.173575 0.456053 0.334888 0.166906
H4    H     H_    0.503082 0.340682 0.340627 0.171081
H5    H     H_    0.945704 0.999478 0.196101 0.164757
H6    H     H_    0.910692 0.864065 0.188019 0.170753
H7    H     H_    0.922007 0.849046 0.311853 0.188256
H8    H     H_    0.938980 0.997934 0.318105 0.137355
H9    H     H_    0.788079 0.769378 0.182837 0.166112
H10   H     H_    0.315903 0.839676 0.175703 0.142558
H11   H     H_    0.385094 0.953134 0.177878 0.163308
H12   H     H_    0.365315 0.967640 0.299087 0.143218
H13   H     H_    0.303008 0.845939 0.298477 0.168297
H14   H     H_    0.117380 0.022993 0.335757 0.123031
H15   H     H_    0.094894 0.038196 0.209054 0.129109
O1    O     O_R   0.267750 0.231960 0.575440 -0.500740
O2    O     O_R   0.685950 0.784660 0.430010 -0.498474
O3    O     O_R   0.502510 0.767000 0.423980 -0.491002
O4    O     O_R   0.288320 0.026340 0.429250 -0.521857
O5    O     O_3   0.499990 0.000020 0.499980 -0.287716
O6    O     O_R   0.821590 0.119350 0.952850 -0.507890
O7    O     O_R   0.037230 0.162540 0.957390 -0.497782
O8    O     O_R   0.056530 0.344750 0.951370 -0.492752
O9    O     O_R   0.798000 0.560370 0.957490 -0.508894
O10   O     O_R   0.596230 0.579400 0.952760 -0.510311
O11   O     O_R   0.639160 0.321170 0.958690 -0.488607
O12   O     O_R   0.527290 0.186640 0.570530 -0.491132
O13   O     O_R   0.821370 0.124220 0.104400 -0.545911
O14   O     O_R   0.037020 0.167050 0.097880 -0.529353
O15   O     O_R   0.056310 0.349620 0.102920 -0.406454
O16   O     O_R   0.797790 0.564880 0.097980 -0.463946
O17   O     O_R   0.596000 0.584270 0.104310 -0.482867
O18   O     O_R   0.638950 0.325690 0.099180 -0.417513
O19   O     O_3   0.824700 0.350240 0.028120 -0.289193
O20   O     O_R   0.728110 0.003450 0.576380 -0.503005
O21   O     O_R   0.682980 0.789190 0.570500 -0.488922
O22   O     O_R   0.499300 0.771880 0.575540 -0.497761
O23   O     O_R   0.285350 0.030870 0.569740 -0.494145
O24   O     O_R   0.270960 0.227070 0.423890 -0.524508
O25   O     O_R   0.530270 0.182120 0.430040 -0.513229
O26   O     O_R   0.731320 0.998570 0.424830 -0.519722
F1    F     F_    0.295488 0.292888 0.187061 -0.603069
S1    S     S_3+6 0.444327 0.435101 0.208898 0.056336
O27   O     O_2   0.391075 0.427080 0.139707 -0.165581
O28   O     O_2   0.337456 0.498396 0.262129 -0.290394
O29   O     O_3   0.505399 0.532575 0.204441 -0.512018
H16   H     H_    0.428447 0.610993 0.184886 0.374542
S2    S     S_3+6 0.086146 0.538621 0.198791 0.074863
O30   O     O_2   0.951752 0.556261 0.196450 -0.355689
O31   O     O_2   0.084918 0.640910 0.247025 -0.325980
O32   O     O_3   0.129807 0.556773 0.119140 -0.419886
H17   H     H_    0.055339 0.641680 0.103235 0.325873

loop_
_geom_bond_atom_site_label_1
_geom_bond_atom_site_label_2
_ccdc_geom_bond_type
C21   C26   S    
C34   C37   S    
C14   C18   S    
C12   O22   A    
C35   C36   S    
Cr3   O5    S    
C32   H4    S    
Cr4   O6    S    
C2    C12   S    
C20   C41   S    
C38   O7    A    
C15   C19   A    
C26   C27   S    
C30   C35   S    
C11   C42   S    
Cr5   O15   S    
C12   O21   A    
Cr2   O5    S    
C17   H10   S    
C30   C31   A    
S2    O31   D    
Cr2   O26   S    
C20   C25   A    
C1    O12   A    
C15   C16   A    
C41   O14   A    
C29   C33   A    
C44   O2    A    
C45   O4    A    
Cr1   O12   S    
S2    O32   S    
Cr3   O22   S    
Cr2   O21   S    
C3    C38   S    
C8    C9    S    
C7    C40   S    
C40   O11   A    
C42   O17   A    
C16   H9    S    
Cr1   O25   S    
C31   C36   S    
C45   O24   A    
C22   C28   A    
C21   C22   A    
C29   C43   S    
C23   O1    A    
C36   H8    S    
S1    O28   D    
S1    O27   D    
Cr6   O11   S    
C26   F1    S    
C35   H5    S    
C46   C48   T    
C28   C45   S    
C39   O9    A    
C24   C28   A    
Cr4   O19   S    
C34   O26   A    
C4    C6    T    
C27   H3    S    
Cr6   O17   S    
C27   H2    S    
Cr4   O7    S    
C18   H13   S    
C41   O15   A    
C31   C37   A    
C35   H6    S    
C15   H1    S    
Cr4   O14   S    
Cr5   O8    S    
Cr2   O2    S    
C29   C30   A    
Cr3   O23   S    
C11   C16   A    
Cr2   O20   S    
C47   C48   S    
C17   C18   S    
C42   O16   A    
C32   C37   A    
C24   C25   A    
Cr4   O13   S    
C39   C46   S    
C34   O25   A    
Cr1   O1    S    
C25   H15   S    
Cr3   O3    S    
C36   H7    S    
S1    O29   S    
C19   C44   S    
Cr6   O10   S    
C7    C9    T    
C1    O20   A    
Cr1   O5    S    
C14   C19   A    
C1    C10   S    
Cr3   O4    S    
C4    C5    S    
C3    C5    T    
C38   O8    A    
C2    C47   T    
C18   H12   S    
O32   H17   S    
C17   H11   S    
C40   O6    A    
C13   C17   S    
C22   C27   S    
C43   O18   A    
C32   C33   A    
Cr5   O9    S    
C26   S2    S    
Cr6   O19   S    
C11   C13   A    
Cr6   O18   S    
C6    C23   S    
O29   H16   S    
C44   O3    A    
Cr5   O19   S    
C33   S1    S    
S2    O30   D    
C24   H14   S    
C20   C21   A    
C8    C10   T    
C43   O13   A    
C23   O23   A    
Cr5   O16   S    
Cr1   O24   S    
C13   C14   A    
C39   O10   A    
