data_mof_unit_29192.cif
_audit_creation_date              2012-12-11T15:41:23-0500
_audit_creation_method            fapswitch 2.2
_symmetry_space_group_name_H-M    P1
_symmetry_Int_Tables_number       1
_space_group_crystal_system       triclinic
_cell_length_a                    18.972292
_cell_length_b                    11.027273
_cell_length_c                    18.793082
_cell_angle_alpha                 90.258327
_cell_angle_beta                  90.349447
_cell_angle_gamma                 90.08058
_cell_volume                      3931.63323185

loop_
_atom_site_label
_atom_site_type_symbol
_atom_type_description
_atom_site_fract_x
_atom_site_fract_y
_atom_site_fract_z
_atom_type_partial_charge
C1    C     C_R   0.727488 0.954004 0.852776 0.555570
C2    C     C_R   0.325763 0.380948 0.022411 -0.013487
C3    C     C_R   0.758935 0.865387 0.352533 0.559866
C4    C     C_2   0.497937 0.167244 0.921191 -0.105596
C5    C     C_2   0.502197 0.166318 0.078897 -0.105917
C6    C     C_2   0.997938 0.667244 0.921192 -0.104886
C7    C     C_2   0.002197 0.666318 0.078897 -0.105912
C8    C     C_2   0.490623 0.068241 0.037665 -0.160495
C9    C     C_2   0.508032 0.068302 0.961555 -0.159774
C10   C     C_2   0.990623 0.568241 0.037665 -0.160498
C11   C     C_2   0.008032 0.568302 0.961555 -0.159705
C12   C     C_R   0.750910 0.395106 0.081127 0.015488
C13   C     C_R   0.174057 0.881184 0.977532 -0.014468
C14   C     C_R   0.248748 0.396172 0.919060 0.015090
C15   C     C_R   0.250908 0.895101 0.081128 0.015461
C16   C     C_R   0.748745 0.896181 0.919063 0.014810
C17   C     C_R   0.825761 0.880955 0.022413 -0.013489
C18   C     C_R   0.796156 0.322295 0.969534 -0.174477
C19   C     C_R   0.203486 0.322800 0.030368 -0.174409
C20   C     C_R   0.296154 0.822288 0.969536 -0.174446
C21   C     C_R   0.703484 0.822808 0.030371 -0.174447
C22   C     C_R   0.804432 0.339608 0.041456 -0.170395
C23   C     C_R   0.195025 0.341143 0.958600 -0.169390
C24   C     C_R   0.304430 0.839599 0.041459 -0.170415
C25   C     C_R   0.272439 0.953609 0.147342 0.546356
C26   C     C_R   0.695022 0.841155 0.958603 -0.169805
C27   C     C_3   0.640678 0.520352 0.044465 -0.042328
C28   C     C_3   0.359537 0.520237 0.956402 -0.043007
C29   C     C_3   0.140678 0.020352 0.044468 -0.042293
C30   C     C_3   0.859535 0.020244 0.956407 -0.043101
C31   C     C_3   0.627054 0.488427 0.966790 -0.258339
C32   C     C_3   0.373320 0.487674 0.033777 -0.257893
C33   C     C_3   0.127056 0.988433 0.966791 -0.258446
C34   C     C_3   0.873317 0.987680 0.033781 -0.258117
C35   C     C_R   0.731407 0.344917 0.935763 0.011702
C36   C     C_R   0.227488 0.454003 0.852776 0.548550
C37   C     C_R   0.268402 0.344786 0.064149 0.012261
C38   C     C_R   0.231407 0.844917 0.935764 0.011801
C39   C     C_R   0.768400 0.844791 0.064151 0.012268
C40   C     C_R   0.492699 0.175150 0.428478 0.001782
C41   C     C_R   0.495247 0.166321 0.577351 0.007849
C42   C     C_R   0.992998 0.675612 0.428178 0.002354
C43   C     C_R   0.996695 0.665120 0.576793 0.008511
C44   C     C_R   0.471357 0.273342 0.470365 0.076221
C45   C     C_R   0.467817 0.268581 0.542722 0.027356
C46   C     C_R   0.969028 0.771417 0.470549 0.075717
C47   C     C_R   0.772439 0.453610 0.147342 0.546432
C48   C     C_R   0.965980 0.765394 0.542960 0.025088
C49   C     C_R   0.509384 0.061267 0.536513 -0.176989
C50   C     C_R   0.508995 0.066162 0.462350 -0.182560
C51   C     C_R   0.014662 0.562278 0.535270 -0.173286
C52   C     C_R   0.013030 0.567870 0.461220 -0.184898
C53   C     C_R   0.530422 0.177591 0.851041 0.547161
C54   C     C_R   0.469652 0.177305 0.149004 0.547741
C55   C     C_R   0.030423 0.677591 0.851042 0.546307
C56   C     C_R   0.969652 0.677305 0.149004 0.547801
C57   C     C_3   0.485955 0.406520 0.468437 -0.002001
C58   C     C_R   0.684376 0.408906 0.049545 0.054079
C59   C     C_3   0.468443 0.406605 0.547318 -0.010882
C60   C     C_3   0.982040 0.905200 0.469706 -0.002956
C61   C     C_3   0.964167 0.903378 0.548389 -0.010388
C62   C     C_R   0.753022 0.409462 0.422034 0.019334
C63   C     C_R   0.233791 0.447683 0.568137 0.012035
C64   C     C_R   0.251407 0.902931 0.420030 0.016996
C65   C     C_R   0.717763 0.984260 0.563140 0.009317
C66   C     C_R   0.802860 0.342858 0.460682 0.019864
C67   C     C_R   0.182183 0.383020 0.531427 0.028401
C68   C     C_R   0.300993 0.835134 0.458484 0.021713
C69   C     C_R   0.315398 0.409155 0.950588 0.054153
C70   C     C_R   0.668942 0.913550 0.525747 0.022159
C71   C     C_R   0.799732 0.336746 0.533321 0.019730
C72   C     C_R   0.185303 0.369202 0.459173 0.018960
C73   C     C_R   0.296876 0.825907 0.531066 0.027075
C74   C     C_R   0.678922 0.886142 0.455036 0.022464
C75   C     C_R   0.691619 0.448497 0.532751 -0.157890
C76   C     C_R   0.281824 0.509428 0.453658 -0.134739
C77   C     C_R   0.187378 0.934054 0.529845 -0.161887
C78   C     C_R   0.777476 0.021577 0.450246 -0.137133
C79   C     C_R   0.693961 0.454116 0.458190 -0.174395
C80   C     C_R   0.184375 0.908905 0.049546 0.054106
C81   C     C_R   0.279804 0.521025 0.528217 -0.156288
C82   C     C_R   0.190663 0.941959 0.455400 -0.176555
C83   C     C_R   0.769683 0.045268 0.523651 -0.160363
C84   C     C_3   0.881683 0.351322 0.463043 -0.264232
C85   C     C_3   0.155912 0.257642 0.543639 -0.280575
C86   C     C_3   0.379687 0.845247 0.462061 -0.266909
C87   C     C_3   0.641745 0.789295 0.541852 -0.271249
C88   C     C_3   0.877483 0.343511 0.543203 -0.282506
C89   C     C_3   0.160466 0.240659 0.463981 -0.265975
C90   C     C_3   0.374554 0.833677 0.541914 -0.283090
C91   C     C_R   0.815396 0.909162 0.950590 0.054759
C92   C     C_3   0.653006 0.759408 0.464321 -0.271694
C93   C     C_R   0.746789 0.394078 0.571336 0.014990
C94   C     C_R   0.240399 0.420656 0.420146 0.018573
C95   C     C_R   0.243545 0.883122 0.568769 0.013751
C96   C     C_R   0.737722 0.929045 0.417956 0.019548
C97   C     C_R   0.725025 0.316299 0.860228 0.563001
C98   C     C_R   0.274875 0.316177 0.139615 0.560609
C99   C     C_R   0.225025 0.816300 0.860229 0.561825
C100  C     C_R   0.774874 0.816178 0.139615 0.560646
C101  C     C_R   0.709234 0.001155 0.639977 0.567014
C102  C     C_R   0.674057 0.381182 0.977532 -0.014474
C103  C     C_R   0.271858 0.953863 0.351873 0.544734
C104  C     C_R   0.224616 0.463831 0.644160 0.549454
C105  C     C_R   0.772206 0.455094 0.352376 0.546873
C106  C     C_R   0.528412 0.176277 0.645907 0.557904
C107  C     C_R   0.470537 0.177363 0.355213 0.550003
C108  C     C_R   0.028711 0.676105 0.645736 0.564460
C109  C     C_R   0.970667 0.677431 0.355060 0.550048
C110  C     C_R   0.738965 0.360354 0.645513 0.547982
C111  C     C_R   0.259113 0.364795 0.352417 0.559051
C112  C     C_R   0.237961 0.856779 0.644226 0.552874
Cr1   Cr    Cr6+3 0.769260 0.163750 0.750730 1.023215
Cr2   Cr    Cr6+3 0.385810 0.322400 0.252290 1.019892
Cr3   Cr    Cr6+3 0.114190 0.822400 0.747710 1.025224
Cr4   Cr    Cr6+3 0.885810 0.822400 0.252290 1.018887
Cr5   Cr    Cr6+3 0.230740 0.163750 0.249270 1.023993
Cr6   Cr    Cr6+3 0.269260 0.663750 0.750730 1.025087
Cr7   Cr    Cr6+3 0.730740 0.663750 0.249270 1.025057
Cr8   Cr    Cr6+3 0.612640 0.009910 0.748780 1.000829
Cr9   Cr    Cr6+3 0.387360 0.009910 0.251220 1.005507
Cr10  Cr    Cr6+3 0.112640 0.509910 0.748780 1.007014
Cr11  Cr    Cr6+3 0.887360 0.509910 0.251220 1.005639
Cr12  Cr    Cr6+3 0.614190 0.322400 0.747710 1.019560
H1    H     H_    0.466851 0.986788 0.059285 0.149168
H2    H     H_    0.317416 0.564281 0.422939 0.149830
H3    H     H_    0.143005 0.972499 0.557014 0.170684
H4    H     H_    0.816309 0.070084 0.419977 0.149155
H5    H     H_    0.653191 0.502495 0.429660 0.115621
H6    H     H_    0.315083 0.583861 0.554531 0.134361
H7    H     H_    0.149650 0.989401 0.426686 0.115477
H8    H     H_    0.806471 0.104887 0.550218 0.137507
H9    H     H_    0.900358 0.440640 0.444463 0.178446
H10   H     H_    0.100888 0.256702 0.563648 0.132585
H11   H     H_    0.397804 0.935917 0.445281 0.176655
H12   H     H_    0.530445 0.986071 0.939186 0.149219
H13   H     H_    0.585252 0.789050 0.557012 0.123185
H14   H     H_    0.907518 0.271817 0.437942 0.120948
H15   H     H_    0.193961 0.200899 0.573994 0.141948
H16   H     H_    0.406487 0.767757 0.435938 0.121591
H17   H     H_    0.677076 0.737226 0.577921 0.158623
H18   H     H_    0.900041 0.258171 0.564761 0.131116
H19   H     H_    0.202851 0.177057 0.448338 0.168417
H20   H     H_    0.397599 0.747997 0.562403 0.128444
H21   H     H_    0.696116 0.693296 0.456035 0.161002
H22   H     H_    0.894223 0.427798 0.571211 0.146532
H23   H     H_    0.966851 0.486789 0.059285 0.149180
H24   H     H_    0.108353 0.226280 0.437844 0.129226
H25   H     H_    0.390550 0.916998 0.571357 0.144936
H26   H     H_    0.603236 0.741453 0.434543 0.130773
H27   H     H_    0.527871 0.245093 0.056706 0.096920
H28   H     H_    0.473499 0.246759 0.944136 0.095918
H29   H     H_    0.027872 0.745092 0.056707 0.096868
H30   H     H_    0.973500 0.746760 0.944137 0.096075
H31   H     H_    0.842688 0.296463 0.940126 0.145628
H32   H     H_    0.156980 0.296863 0.059716 0.145135
H33   H     H_    0.342687 0.796454 0.940128 0.145543
H34   H     H_    0.030444 0.486071 0.939186 0.149215
H35   H     H_    0.656978 0.796868 0.059719 0.145163
H36   H     H_    0.856582 0.323489 0.063224 0.139493
H37   H     H_    0.142728 0.325703 0.936881 0.139927
H38   H     H_    0.356579 0.823476 0.063227 0.139496
H39   H     H_    0.642724 0.825718 0.936884 0.139873
H40   H     H_    0.173092 0.101666 0.053250 0.164573
H41   H     H_    0.827347 0.101684 0.948419 0.163282
H42   H     H_    0.673091 0.601668 0.053244 0.164615
H43   H     H_    0.327348 0.601677 0.948415 0.163739
H44   H     H_    0.572053 0.460459 0.954612 0.132655
H45   H     H_    0.541915 0.427034 0.456114 0.132413
H46   H     H_    0.428223 0.459083 0.045491 0.132564
H47   H     H_    0.072055 0.960468 0.954610 0.132603
H48   H     H_    0.928220 0.959089 0.045496 0.132563
H49   H     H_    0.649442 0.556014 0.929414 0.139802
H50   H     H_    0.351418 0.555219 0.071761 0.139052
H51   H     H_    0.149447 0.056021 0.929418 0.139327
H52   H     H_    0.851415 0.055224 0.071765 0.139050
H53   H     H_    0.526620 0.978287 0.561494 0.141990
H54   H     H_    0.521200 0.985412 0.431782 0.130900
H55   H     H_    0.035702 0.480884 0.559400 0.148993
H56   H     H_    0.415118 0.442626 0.559624 0.136293
H57   H     H_    0.027398 0.488821 0.430095 0.130330
H58   H     H_    0.932123 0.062384 0.450183 0.189321
H59   H     H_    0.952566 0.986956 0.377452 0.252274
H60   H     H_    0.025525 0.050917 0.569735 0.192389
H61   H     H_    0.996192 0.981117 0.641228 0.246729
H62   H     H_    0.436374 0.564294 0.448577 0.189405
H63   H     H_    0.457307 0.488652 0.375983 0.250974
H64   H     H_    0.531310 0.551910 0.568137 0.191773
H65   H     H_    0.502271 0.483051 0.639837 0.245359
H66   H     H_    0.549312 0.438107 0.079400 0.234942
H67   H     H_    0.037783 0.928009 0.457870 0.130777
H68   H     H_    0.546315 0.590036 0.075704 0.218051
H69   H     H_    0.450418 0.437802 0.920266 0.235592
H70   H     H_    0.454044 0.589652 0.925417 0.217985
H71   H     H_    0.049310 0.938108 0.079396 0.234934
H72   H     H_    0.046316 0.090038 0.075706 0.218050
H73   H     H_    0.950418 0.937809 0.920274 0.235670
H74   H     H_    0.954044 0.089660 0.925423 0.217789
H75   H     H_    0.910045 0.936827 0.560400 0.145504
H76   H     H_    0.648507 0.490127 0.560318 0.165113
N1    N     N_3   0.931824 0.975081 0.428294 -0.614860
N2    N     N_3   0.017948 0.964461 0.591124 -0.607616
N3    N     N_3   0.436199 0.477021 0.426698 -0.614225
N4    N     N_3   0.523356 0.465547 0.589535 -0.604059
N5    N     N_3   0.578289 0.516649 0.089669 -0.614017
N6    N     N_3   0.421718 0.516656 0.910898 -0.614612
N7    N     N_3   0.078288 0.016647 0.089670 -0.613914
N8    N     N_3   0.921718 0.016662 0.910904 -0.613288
O1    O     O_R   0.784290 0.290360 0.830540 -0.519313
O2    O     O_R   0.456020 0.282110 0.333230 -0.506696
O3    O     O_R   0.043980 0.782110 0.666770 -0.482376
O4    O     O_R   0.956020 0.782110 0.333230 -0.508526
O5    O     O_R   0.679070 0.374030 0.674430 -0.488169
O6    O     O_R   0.320930 0.374030 0.325570 -0.477636
O7    O     O_R   0.179070 0.874030 0.674430 -0.489780
O8    O     O_R   0.820930 0.874030 0.325570 -0.477547
O9    O     O_3   0.665360 0.165350 0.749070 -0.291178
O10   O     O_3   0.334640 0.165350 0.250930 -0.268809
O11   O     O_3   0.165360 0.665350 0.749070 -0.274068
O12   O     O_R   0.215710 0.290360 0.169460 -0.520857
O13   O     O_3   0.834640 0.665350 0.250930 -0.268726
O14   O     O_R   0.762610 0.041070 0.825230 -0.493182
O15   O     O_R   0.237390 0.041070 0.174770 -0.497536
O16   O     O_R   0.262610 0.541070 0.825230 -0.496597
O17   O     O_R   0.737390 0.541070 0.174770 -0.497692
O18   O     O_R   0.667390 0.924160 0.829970 -0.527500
O19   O     O_R   0.332610 0.924160 0.170030 -0.531099
O20   O     O_R   0.167390 0.424160 0.829970 -0.530285
O21   O     O_R   0.832610 0.424160 0.170030 -0.531065
O22   O     O_R   0.553980 0.081420 0.821780 -0.499370
O23   O     O_R   0.284290 0.790360 0.830540 -0.519644
O24   O     O_R   0.446020 0.081420 0.178220 -0.498277
O25   O     O_R   0.053980 0.581420 0.821780 -0.500092
O26   O     O_R   0.946020 0.581420 0.178220 -0.498302
O27   O     O_R   0.543210 0.283170 0.826740 -0.522161
O28   O     O_R   0.456790 0.283170 0.173260 -0.521923
O29   O     O_R   0.043210 0.783170 0.826740 -0.522809
O30   O     O_R   0.956790 0.783170 0.173260 -0.521869
O31   O     O_R   0.678350 0.375000 0.822720 -0.494107
O32   O     O_R   0.321650 0.375000 0.177280 -0.498875
O33   O     O_R   0.178350 0.875000 0.822720 -0.495574
O34   O     O_R   0.715710 0.790360 0.169460 -0.521054
O35   O     O_R   0.821650 0.875000 0.177280 -0.499021
O36   O     O_R   0.785060 0.289300 0.670580 -0.523401
O37   O     O_R   0.214940 0.289300 0.329420 -0.522229
O38   O     O_R   0.285060 0.789300 0.670580 -0.517141
O39   O     O_R   0.714940 0.789300 0.329420 -0.520585
O40   O     O_R   0.763330 0.040090 0.676940 -0.504321
O41   O     O_R   0.236670 0.040090 0.323060 -0.507182
O42   O     O_R   0.263330 0.540090 0.676940 -0.508646
O43   O     O_R   0.736670 0.540090 0.323060 -0.505209
O44   O     O_R   0.668160 0.923110 0.670000 -0.516561
O45   O     O_R   0.554690 0.080440 0.673480 -0.527925
O46   O     O_R   0.331840 0.923110 0.330000 -0.521162
O47   O     O_R   0.168160 0.423110 0.670000 -0.515361
O48   O     O_R   0.831840 0.423110 0.330000 -0.521732
O49   O     O_R   0.445310 0.080440 0.326520 -0.508287
O50   O     O_R   0.054690 0.580440 0.673480 -0.515455
O51   O     O_R   0.945310 0.580440 0.326520 -0.508696
O52   O     O_R   0.543980 0.282110 0.666770 -0.483554

loop_
_geom_bond_atom_site_label_1
_geom_bond_atom_site_label_2
_ccdc_geom_bond_type
C1    O18   A    
C14   C23   A    
C7    C10   D    
C21   C26   A    
C99   O33   A    
H70   N6    S    
C98   O12   A    
C4    C53   S    
C64   C103  S    
H58   N1    S    
C28   N6    S    
H68   N5    S    
C26   H39   S    
C108  O50   A    
C28   C69   S    
C17   C91   A    
C111  O6    A    
C54   O28   A    
C6    C55   S    
Cr4   O8    S    
C35   C102  A    
C78   H4    S    
C61   H75   S    
C39   C100  S    
C34   H48   S    
Cr9   O46   S    
C107  O2    A    
C75   H76   S    
C112  O38   A    
Cr11  O13   S    
C75   C93   A    
C104  O47   A    
C97   O1    A    
C63   C81   A    
C64   C68   A    
C56   O30   A    
C59   H56   S    
C50   H54   S    
C42   C109  S    
C87   H13   S    
C73   C90   S    
C89   H24   S    
C95   C112  S    
C90   H25   S    
C14   C36   S    
C15   C25   S    
C98   O32   A    
C65   C70   A    
C79   H5    S    
C12   C22   A    
C94   C111  S    
Cr7   O13   S    
C76   H2    S    
Cr5   O12   S    
C2    C32   S    
C67   C72   A    
Cr9   O10   S    
C112  O7    A    
C74   C92   S    
Cr4   O13   S    
C17   C39   A    
Cr8   O45   S    
C62   C105  S    
C19   C37   A    
C28   H43   S    
C76   C94   A    
Cr3   O33   S    
Cr12  O27   S    
C78   C83   A    
Cr10  O50   S    
C85   H15   S    
C66   C71   A    
C29   C33   S    
C78   C96   A    
C8    C9    S    
Cr11  O21   S    
C70   C74   A    
C8    H1    S    
C3    C96   S    
C58   C102  A    
C65   C101  S    
C109  O4    A    
C18   C35   A    
C36   O16   A    
C57   N3    S    
C49   H53   S    
C77   H3    S    
Cr1   O40   S    
C86   H16   S    
C85   H10   S    
H63   N3    S    
C12   C58   A    
Cr4   O35   S    
C30   N8    S    
C36   O20   A    
Cr9   O24   S    
C87   C92   S    
C106  O52   A    
C19   H32   S    
C21   H35   S    
C106  O45   A    
C56   O26   A    
C101  O40   A    
C3    O39   A    
C7    C56   S    
Cr2   O10   S    
C12   C47   S    
C51   H55   S    
C70   C87   S    
C59   N4    S    
Cr1   O9    S    
C37   C98   S    
C57   H45   S    
Cr12  O5    S    
H65   N4    S    
C16   C26   A    
C97   O31   A    
C10   H23   S    
C63   C67   A    
C84   H9    S    
C67   C85   S    
H60   N2    S    
C41   C106  S    
C30   C34   S    
C27   C31   S    
C51   C52   A    
C103  O41   A    
C31   C102  S    
C74   C96   A    
C5    C54   S    
C28   C32   S    
C62   C66   A    
C104  O42   A    
C52   H57   S    
C105  O43   A    
Cr6   O42   S    
C86   C90   S    
Cr8   O22   S    
Cr10  O47   S    
Cr3   O29   S    
Cr12  O31   S    
C85   C89   S    
C30   C91   S    
Cr2   O28   S    
Cr11  O51   S    
C68   C73   A    
C89   H19   S    
C32   H50   S    
C77   C95   A    
C55   O29   A    
Cr6   O11   S    
C60   C61   S    
C27   N5    S    
C66   C84   S    
H59   N1    S    
H61   N2    S    
C109  O51   A    
C19   C23   A    
C54   O24   A    
C34   H52   S    
C13   C33   S    
C42   C52   A    
Cr7   O43   S    
C61   N2    S    
Cr11  O26   S    
C20   C38   A    
C62   C79   A    
H66   N5    S    
C15   C80   A    
C21   C39   A    
C44   C57   S    
C111  O37   A    
Cr1   O36   S    
Cr10  O20   S    
C110  O5    A    
Cr11  O48   S    
Cr3   O7    S    
Cr5   O10   S    
C1    C16   S    
C87   H17   S    
C4    H28   S    
Cr7   O39   S    
C64   C82   A    
C13   C38   A    
C6    H30   S    
C100  O35   A    
C16   C91   A    
C40   C107  S    
C47   O21   A    
C68   C86   S    
C15   C24   A    
C20   H33   S    
Cr6   O16   S    
C42   C46   A    
C14   C69   A    
Cr5   O15   S    
C57   C59   S    
C17   C34   S    
C73   C95   A    
C47   O17   A    
C2    C69   A    
Cr8   O18   S    
C6    C11   D    
C108  O3    A    
C100  O34   A    
C44   C45   A    
Cr7   O17   S    
Cr2   O32   S    
C31   H49   S    
C88   H18   S    
C32   H46   S    
Cr12  O9    S    
C45   C59   S    
Cr4   O30   S    
Cr5   O41   S    
H69   N6    S    
Cr6   O23   S    
C46   C60   S    
C92   H21   S    
C18   C22   A    
C55   O25   A    
C24   H38   S    
Cr8   O44   S    
C30   H41   S    
C38   C99   S    
C27   C58   S    
C5    H27   S    
C76   C81   A    
C5    C8    D    
C99   O23   A    
Cr6   O38   S    
C71   C93   A    
Cr5   O37   S    
C41   C49   A    
C29   H40   S    
C53   O22   A    
Cr9   O19   S    
Cr3   O3    S    
C107  O49   A    
H64   N4    S    
C43   C48   A    
Cr2   O2    S    
H72   N7    S    
C3    O8    A    
C72   C94   A    
C83   H8    S    
Cr4   O4    S    
C41   C45   A    
C82   H7    S    
C92   H26   S    
C72   C89   S    
C84   H14   S    
C2    C37   A    
C43   C51   A    
C81   H6    S    
C84   C88   S    
C22   H36   S    
C77   C82   A    
C60   H67   S    
C40   C50   A    
C53   O27   A    
C25   O19   A    
H62   N3    S    
C25   O15   A    
C63   C104  S    
C43   C108  S    
C33   H51   S    
Cr7   O34   S    
C90   H20   S    
Cr1   O14   S    
C13   C80   A    
C65   C83   A    
C29   N7    S    
Cr8   O9    S    
C27   H42   S    
Cr1   O1    S    
C71   C88   S    
C101  O44   A    
C46   C48   A    
C110  O36   A    
C60   N1    S    
C40   C44   A    
Cr10  O25   S    
H71   N7    S    
C31   H44   S    
Cr12  O52   S    
C7    H29   S    
C49   C50   A    
C48   C61   S    
C10   C11   S    
C103  O46   A    
C88   H22   S    
C9    H12   S    
C1    O14   A    
H73   N8    S    
C105  O48   A    
C23   H37   S    
C4    C9    D    
C35   C97   S    
C29   C80   S    
C75   C79   A    
C86   H11   S    
C20   C24   A    
H74   N8    S    
Cr2   O6    S    
C18   H31   S    
C11   H34   S    
Cr9   O49   S    
Cr10  O11   S    
Cr3   O11   S    
C93   C110  S    
C33   H47   S    
