data_mof_unit_40485.cif
_audit_creation_date              2012-12-11T14:21:04-0500
_audit_creation_method            fapswitch 2.2
_symmetry_space_group_name_H-M    P1
_symmetry_Int_Tables_number       1
_space_group_crystal_system       triclinic
_cell_length_a                    22.072957
_cell_length_b                    7.198047
_cell_length_c                    14.873766
_cell_angle_alpha                 90.000698
_cell_angle_beta                  107.300262
_cell_angle_gamma                 89.999414
_cell_volume                      2256.26497086

loop_
_atom_site_label
_atom_site_type_symbol
_atom_type_description
_atom_site_fract_x
_atom_site_fract_y
_atom_site_fract_z
_atom_type_partial_charge
O1    O     O_R   0.584770 0.505770 0.002090 -0.521191
O2    O     O_R   0.415230 0.005770 0.997910 -0.521187
O3    O     O_R   0.467060 0.173340 0.861950 -0.543462
O4    O     O_R   0.532940 0.673340 0.138050 -0.543459
C1    C     C_R   0.454141 0.343868 0.825621 0.763284
C2    C     C_R   0.545859 0.843869 0.174379 0.763266
O5    O     O_R   0.587510 0.175890 0.993210 -0.530949
O6    O     O_R   0.412490 0.675890 0.006790 -0.530943
O7    O     O_R   0.536540 0.008150 0.130100 -0.516916
O8    O     O_R   0.463460 0.508150 0.869900 -0.516924
C3    C     C_R   0.613156 0.344274 0.000268 0.714837
C4    C     C_R   0.386844 0.844275 0.999731 0.714822
O9    O     O_3   0.483140 0.340040 0.044760 -0.373593
O10   O     O_3   0.516860 0.840040 0.955240 -0.373606
V1    V     V_3+5 0.503130 0.064190 0.991700 1.687138
V2    V     V_3+5 0.496870 0.564190 0.008300 1.687144
C5    C     C_2   0.214755 0.743478 0.995358 0.240140
C6    C     C_2   0.785241 0.243476 0.004623 0.240160
C7    C     C_2   0.182982 0.888231 0.018683 0.207760
C8    C     C_2   0.817016 0.388237 0.981313 0.207749
C9    C     C_2   0.284934 0.740193 0.022686 0.205223
C10   C     C_2   0.715063 0.240203 0.977297 0.205219
C11   C     C_2   0.317468 0.854067 0.981200 0.229272
C12   C     C_2   0.682532 0.354062 0.018796 0.229264
C13   C     C_R   0.927832 0.881862 0.722282 -0.240424
C14   C     C_R   0.072165 0.381874 0.277719 -0.240398
C15   C     C_R   0.574509 0.845986 0.277048 -0.153961
C16   C     C_R   0.425487 0.345992 0.722954 -0.153981
C17   C     C_R   0.938724 0.787296 0.570577 0.452622
C18   C     C_R   0.061278 0.287251 0.429417 0.452620
C19   C     C_R   0.965201 0.814613 0.668073 0.306376
C20   C     C_R   0.034800 0.314581 0.331922 0.306389
C21   C     C_R   0.863140 0.916601 0.680385 0.175199
C22   C     C_R   0.136852 0.416677 0.319623 0.175208
C23   C     C_R   0.833605 0.861594 0.585715 -0.035861
C24   C     C_R   0.166391 0.361644 0.414288 -0.035833
C25   C     C_R   0.872512 0.818370 0.526962 -0.149680
C26   C     C_R   0.127487 0.318343 0.473036 -0.149664
C27   C     C_R   0.766364 0.844919 0.548250 0.036643
C28   C     C_R   0.233634 0.345006 0.451750 0.036648
C29   C     C_R   0.737452 0.844524 0.450067 0.034315
C30   C     C_R   0.262545 0.344560 0.549933 0.034318
C31   C     C_R   0.776664 0.818464 0.392116 -0.097248
C32   C     C_R   0.223336 0.318418 0.607881 -0.097243
C33   C     C_R   0.842475 0.804426 0.428141 0.378466
C34   C     C_R   0.157525 0.304339 0.571854 0.378471
C35   C     C_R   0.728434 0.802865 0.606309 -0.114891
C36   C     C_R   0.271570 0.303060 0.393682 -0.114927
C37   C     C_R   0.663281 0.774003 0.570561 0.447497
C38   C     C_R   0.336725 0.274243 0.429424 0.447487
C39   C     C_R   0.632551 0.789179 0.472231 -0.101100
C40   C     C_R   0.367449 0.289305 0.527762 -0.101100
C41   C     C_R   0.669831 0.845343 0.412790 -0.057385
C42   C     C_R   0.330166 0.345398 0.587211 -0.057397
C43   C     C_R   0.567135 0.746499 0.429285 0.402709
C44   C     C_R   0.432862 0.246579 0.570705 0.402694
C45   C     C_R   0.540313 0.768858 0.332590 -0.201998
C46   C     C_R   0.459683 0.268892 0.667404 -0.201993
C47   C     C_R   0.638204 0.895598 0.317667 0.344910
C48   C     C_R   0.361790 0.395601 0.682342 0.344900
H1    H     H_    0.491591 0.726141 0.299869 0.191259
H2    H     H_    0.508403 0.226153 0.700121 0.191255
H3    H     H_    0.756252 0.791951 0.317809 0.219376
H4    H     H_    0.243750 0.291859 0.682182 0.219374
H5    H     H_    0.750019 0.775907 0.680426 0.219575
H6    H     H_    0.249991 0.276169 0.319556 0.219582
O11   O     O_R   0.036450 0.233070 0.130130 -0.538080
O12   O     O_R   0.963550 0.733070 0.869870 -0.538087
O13   O     O_R   0.912470 0.560570 0.006790 -0.513902
O14   O     O_R   0.087530 0.060570 0.993210 -0.513906
C49   C     C_R   0.886673 0.392116 0.999572 0.733901
C50   C     C_R   0.113326 0.892115 0.000426 0.733922
O15   O     O_R   0.032920 0.562940 0.138050 -0.525648
O16   O     O_R   0.967080 0.062940 0.861950 -0.525661
O17   O     O_R   0.084790 0.730500 0.002090 -0.535367
O18   O     O_R   0.915210 0.230500 0.997910 -0.535362
C51   C     C_R   0.045275 0.394290 0.174848 0.828440
C52   C     C_R   0.954725 0.894288 0.825152 0.828452
O19   O     O_3   0.016820 0.396170 0.955260 -0.372503
O20   O     O_3   0.983180 0.896170 0.044740 -0.372485
V3    V     V_3+5 0.996880 0.672090 0.008300 1.711975
V4    V     V_3+5 0.003120 0.172090 0.991700 1.711958
Br1   Br    Br    0.173310 0.532203 0.923658 -0.254431
Br2   Br    Br    0.826682 0.032175 0.076302 -0.254423
Cl1   Cl    Cl    0.046932 0.771056 0.723080 -0.453995
Cl2   Cl    Cl    0.953073 0.270999 0.276909 -0.454002
Br3   Br    Br    0.820041 0.072384 0.748819 -0.447066
Br4   Br    Br    0.179931 0.572588 0.251216 -0.447123
Br5   Br    Br    0.510100 0.634298 0.489261 -0.326736
Br6   Br    Br    0.489881 0.134281 0.510724 -0.326777
Cl3   Cl    Cl    0.225341 0.077165 0.084846 -0.484058
Cl4   Cl    Cl    0.774660 0.577191 0.915166 -0.484013
Br7   Br    Br    0.326242 0.566955 0.120256 -0.313019
Br8   Br    Br    0.673748 0.066996 0.879713 -0.313052
Cl5   Cl    Cl    0.276963 0.012700 0.892524 -0.484864
Cl6   Cl    Cl    0.723039 0.512669 0.107484 -0.484890
Br9   Br    Br    0.884191 0.786062 0.331524 -0.210836
Br10  Br    Br    0.115813 0.285736 0.668471 -0.210859
Cl7   Cl    Cl    0.673670 0.043704 0.252088 -0.570226
Cl8   Cl    Cl    0.326317 0.543644 0.747943 -0.570206
Cl9   Cl    Cl    0.625189 0.731785 0.657312 -0.448691
Cl10  Cl    Cl    0.374837 0.232332 0.342653 -0.448636
Cl11  Cl    Cl    0.989810 0.690227 0.511280 -0.412792
Cl12  Cl    Cl    0.010198 0.190142 0.488702 -0.412808

loop_
_geom_bond_atom_site_label_1
_geom_bond_atom_site_label_2
_ccdc_geom_bond_type
C13   C19   A    
C46   H2    S    
C19   Cl1   S    
C47   Cl7   S    
O11   C51   A    
O2    C4    A    
C2    O7    A    
C41   C47   A    
C31   H3    S    
C35   C37   A    
C42   C48   A    
C32   H4    S    
O5    C3    A    
C8    Cl4   S    
C4    C11   S    
C17   Cl11  S    
O12   V3    S    
C23   C25   A    
C36   C38   A    
C12   Cl6   S    
C37   Cl9   S    
C49   O18   A    
C3    C12   S    
C18   C26   A    
C10   Br8   S    
O13   C49   A    
C21   C23   A    
C14   C22   A    
C32   C34   A    
C37   C39   A    
O1    C3    A    
C38   C40   A    
C8    C49   S    
C44   C46   A    
C39   C43   A    
C44   Br6   S    
C34   Br10  S    
O6    V2    S    
C29   C31   A    
C7    C50   S    
C30   C32   A    
O16   V4    S    
C50   O17   A    
O15   V3    S    
C40   C42   A    
C16   C48   A    
O12   C52   A    
C14   C51   S    
C13   C52   S    
C24   C28   A    
C7    Cl3   S    
C27   C29   A    
C15   C45   A    
O18   V4    S    
O8    V2    S    
C14   C20   A    
O17   V3    S    
O5    V1    S    
C48   Cl8   S    
C5    C9    S    
C5    Br1   S    
O4    V2    S    
C23   C27   A    
C1    C16   S    
C6    Br2   S    
C2    C15   S    
C33   Br9   S    
O6    C4    A    
C20   Cl2   S    
O1    V2    S    
C22   Br4   S    
O2    V1    S    
C31   C33   A    
C29   C41   A    
O4    C2    A    
C38   Cl10  S    
C43   C45   A    
C10   C12   D    
C17   C25   A    
C24   C26   A    
O3    V1    S    
C27   C35   A    
C28   C36   A    
C6    C10   S    
O20   V3    S    
O3    C1    A    
O19   V4    S    
C45   H1    S    
C16   C46   A    
C36   H6    S    
C9    C11   D    
C21   Br3   S    
C1    O8    A    
C17   C19   A    
C15   C47   A    
C30   C42   A    
C18   C20   A    
C9    Br7   S    
C28   C30   A    
C5    C7    D    
C22   C24   A    
C11   Cl5   S    
C6    C8    D    
O7    V1    S    
O14   V4    S    
C26   C34   A    
O13   V3    S    
O11   V4    S    
C43   Br5   S    
O16   C52   A    
O9    V2    S    
C18   Cl12  S    
O15   C51   A    
O10   V1    S    
O14   C50   A    
C39   C41   A    
C25   C33   A    
C35   H5    S    
C40   C44   A    
C13   C21   A    
