data_mof_unit_38340.cif
_audit_creation_date              2012-12-10T20:54:31-0500
_audit_creation_method            fapswitch 2.2
_symmetry_space_group_name_H-M    P1
_symmetry_Int_Tables_number       1
_space_group_crystal_system       triclinic
_cell_length_a                    12.811622
_cell_length_b                    15.851864
_cell_length_c                    15.097861
_cell_angle_alpha                 90.134723
_cell_angle_beta                  96.624
_cell_angle_gamma                 88.350348
_cell_volume                      3044.46368666

loop_
_atom_site_label
_atom_site_type_symbol
_atom_type_description
_atom_site_fract_x
_atom_site_fract_y
_atom_site_fract_z
_atom_type_partial_charge
C1    C     C_R   0.496632 0.339073 0.499471 1.017666
C2    C     C_R   0.552362 0.566859 0.052696 -0.077900
C3    C     C_R   0.507177 0.499797 0.905777 -0.174524
C4    C     C_R   0.504601 0.500565 0.095197 -0.176551
C5    C     C_R   0.549385 0.568777 0.957336 0.446204
C6    C     C_R   0.462476 0.431963 0.043763 0.360209
C7    C     C_1   0.503119 0.499855 0.807259 0.256418
C8    C     C_1   0.502173 0.500849 0.193273 0.258838
C9    C     C_R   0.297901 0.505276 0.483116 1.055547
C10   C     C_R   0.702449 0.498181 0.516897 1.069360
C11   C     C_R   0.815250 0.490550 0.527701 -0.370784
C12   C     C_R   0.501433 0.661121 0.500364 1.006162
C13   C     C_R   0.185881 0.518492 0.475229 -0.315928
C14   C     C_R   0.049216 0.617541 0.509875 0.463012
C15   C     C_R   0.974833 0.407891 0.571905 0.481363
C16   C     C_R   0.145709 0.602300 0.477744 0.213980
C17   C     C_R   0.865120 0.415162 0.564027 0.305794
C18   C     C_R   0.127737 0.450559 0.499568 0.408540
C19   C     C_R   0.873575 0.559315 0.503915 0.344390
C20   C     C_R   0.028865 0.467785 0.527972 -0.250535
C21   C     C_R   0.983210 0.549433 0.514470 -0.248797
C22   C     C_R   0.479652 0.957447 0.582799 0.060746
C23   C     C_R   0.451211 0.955630 0.417947 0.079502
C24   C     C_R   0.446029 0.044513 0.416652 0.056973
C25   C     C_R   0.471496 0.913671 0.500805 0.047349
C26   C     C_R   0.463460 0.088305 0.498141 0.048563
C27   C     C_3   0.485362 0.097992 0.667290 -0.419226
C28   C     C_3   0.600602 0.118553 0.696303 -0.338286
C29   C     C_3   0.609874 0.182272 0.772371 -0.795805
C30   C     C_3   0.432762 0.904648 0.331912 -0.477345
C31   C     C_3   0.317276 0.880671 0.313769 -0.271585
C32   C     C_3   0.297923 0.826534 0.230174 -0.769495
C33   C     C_3   0.489609 0.908461 0.670524 -0.400404
C34   C     C_R   0.475245 0.046416 0.581367 0.076526
C35   C     C_3   0.380221 0.889010 0.695903 -0.373651
C36   C     C_3   0.387376 0.838549 0.782342 -0.708774
C37   C     C_3   0.423079 0.092585 0.328765 -0.390730
C38   C     C_3   0.523559 0.103045 0.283516 -0.328739
C39   C     C_3   0.499108 0.106851 0.182168 -0.772298
C40   C     C_3   0.448212 0.348864 0.896584 -0.390037
C41   C     C_3   0.333441 0.346760 0.854893 -0.251029
C42   C     C_3   0.310339 0.262382 0.808996 -0.724917
C43   C     C_3   0.609225 0.633802 0.110886 -0.300248
C44   C     C_3   0.532520 0.702773 0.137784 -0.322730
C45   C     C_1   0.484642 0.824312 0.501240 -0.011383
C46   C     C_3   0.591235 0.779369 0.176334 -0.792099
C47   C     C_1   0.475177 0.177151 0.496780 -0.041106
C48   C     C_1   0.486017 0.251281 0.497768 -0.082414
C49   C     C_1   0.494559 0.749595 0.500623 -0.017178
C50   C     C_R   0.470307 0.429065 0.949863 -0.059041
H1    H     H_    0.777724 0.587433 0.319759 0.342362
H2    H     H_    0.645945 0.060009 0.718117 0.226786
H3    H     H_    0.636310 0.145550 0.639392 0.248187
H4    H     H_    0.437408 0.157373 0.657259 0.223583
H5    H     H_    0.451379 0.065908 0.721991 0.201256
H6    H     H_    0.319490 0.860959 0.171225 0.239549
H7    H     H_    0.344955 0.766640 0.238715 0.276584
H8    H     H_    0.213440 0.811243 0.218300 0.273595
H9    H     H_    0.295051 0.845116 0.371535 0.305987
H10   H     H_    0.266012 0.938465 0.305289 0.224005
H11   H     H_    0.455624 0.939234 0.273970 0.212190
H12   H     H_    0.264987 0.287591 0.381619 0.374469
H13   H     H_    0.483979 0.846788 0.335844 0.225927
H14   H     H_    0.426657 0.776296 0.773717 0.312049
H15   H     H_    0.432038 0.873392 0.837582 0.265839
H16   H     H_    0.307076 0.827918 0.800122 0.240186
H17   H     H_    0.334991 0.948800 0.704255 0.229760
H18   H     H_    0.336395 0.852067 0.641857 0.279685
H19   H     H_    0.535906 0.848669 0.665628 0.236912
H20   H     H_    0.535156 0.942959 0.725224 0.207805
H21   H     H_    0.473586 0.044376 0.155760 0.236136
H22   H     H_    0.435410 0.154328 0.162584 0.327218
H23   H     H_    0.815968 0.193983 0.620058 0.367538
H24   H     H_    0.570578 0.124084 0.151942 0.248780
H25   H     H_    0.561986 0.162083 0.307826 0.260371
H26   H     H_    0.580729 0.049818 0.300594 0.228156
H27   H     H_    0.361646 0.060410 0.284249 0.214180
H28   H     H_    0.386924 0.155945 0.338587 0.216054
H29   H     H_    0.554498 0.293457 0.146869 0.339062
H30   H     H_    0.764655 0.695931 0.899556 0.398787
H31   H     H_    0.355753 0.255292 0.751010 0.253551
H32   H     H_    0.331301 0.209259 0.856159 0.251372
H33   H     H_    0.225387 0.259595 0.785160 0.297437
H34   H     H_    0.086387 0.723468 0.333024 0.362955
H35   H     H_    0.279209 0.357299 0.906378 0.271757
H36   H     H_    0.318046 0.398259 0.804951 0.246282
H37   H     H_    0.499829 0.343645 0.842568 0.183330
H38   H     H_    0.472032 0.292314 0.937754 0.239385
H39   H     H_    0.533875 0.830723 0.187588 0.231969
H40   H     H_    0.638424 0.762749 0.240635 0.296272
H41   H     H_    0.643873 0.803077 0.129000 0.282099
H42   H     H_    0.477141 0.723231 0.079229 0.259608
H43   H     H_    0.485311 0.677595 0.188469 0.214844
H44   H     H_    0.651754 0.604388 0.171873 0.189497
H45   H     H_    0.141019 0.756996 0.692541 0.375694
H46   H     H_    0.672586 0.661799 0.077643 0.268826
H47   H     H_    0.010532 0.323998 0.799014 0.376011
H48   H     H_    0.571424 0.243149 0.749093 0.271988
H49   H     H_    0.572371 0.158514 0.829860 0.247358
H50   H     H_    0.694103 0.193245 0.794367 0.277783
N1    N     N_1   0.499970 0.500020 0.270540 -0.055797
N2    N     N_1   0.500030 0.499980 0.729460 -0.064730
O1    O     O_R   0.500000 0.378020 0.573650 -0.606639
O2    O     O_2   0.885268 0.710234 0.415247 -0.247613
O3    O     O_3   0.730935 0.620060 0.355923 -0.556528
O4    O     O_2   0.246923 0.313822 0.554357 -0.297133
O5    O     O_2   0.080394 0.287842 0.461311 -0.233427
O6    O     O_3   0.234321 0.345423 0.385039 -0.536081
O7    O     O_2   0.725303 0.343494 0.658281 -0.289935
O8    O     O_2   0.719449 0.307759 0.499592 -0.367023
O9    O     O_3   0.865725 0.238177 0.608398 -0.449410
O10   O     O_2   0.268973 0.733727 0.513937 -0.293782
O11   O     O_2   0.285641 0.660960 0.372518 -0.348537
O12   O     O_R   0.500000 0.621980 0.426350 -0.587384
O13   O     O_3   0.120876 0.756187 0.383614 -0.487780
O14   O     O_2   0.027162 0.786508 0.536017 -0.170648
O15   O     O_2   0.944171 0.693912 0.635483 -0.243303
O16   O     O_3   0.146665 0.703981 0.658342 -0.526928
O17   O     O_2   0.072187 0.265255 0.642497 -0.190640
O18   O     O_2   0.141398 0.400750 0.696737 -0.323727
O19   O     O_3   0.966885 0.353057 0.749155 -0.493443
O20   O     O_2   0.317256 0.391624 0.149446 -0.221693
O21   O     O_2   0.355633 0.281046 0.045255 -0.329182
O22   O     O_3   0.494545 0.309727 0.179876 -0.552438
O23   O     O_R   0.500050 0.378020 0.426320 -0.592522
O24   O     O_2   0.575377 0.657893 0.804841 -0.304544
O25   O     O_2   0.572485 0.737509 0.942342 -0.349315
O26   O     O_3   0.737465 0.643664 0.923146 -0.537435
O27   O     O_R   0.499950 0.621980 0.573680 -0.607267
O28   O     O_R   0.346340 0.499990 0.561490 -0.618973
O29   O     O_R   0.653660 0.500010 0.438510 -0.589139
O30   O     O_R   0.346380 0.499990 0.414160 -0.550835
O31   O     O_R   0.653620 0.500010 0.585840 -0.574762
O32   O     O_2   0.743601 0.695404 0.508898 -0.267152
S1    S     S_3+6 0.809420 0.649791 0.446845 0.057169
S2    S     S_3+6 0.171721 0.345580 0.477052 0.060500
S3    S     S_3+6 0.790388 0.325263 0.583415 0.060087
S4    S     S_3+6 0.210498 0.688763 0.436821 0.024186
S5    S     S_3+6 0.037497 0.703673 0.584859 0.143589
S6    S     S_3+6 0.043160 0.354448 0.665679 0.108112
S7    S     S_3+6 0.402806 0.351095 0.102253 0.008697
S8    S     S_3+6 0.605878 0.654883 0.903887 -0.003682
Zn1   Zn    Zn3+2 0.499970 0.500000 0.598370 1.104235
Zn2   Zn    Zn3+2 0.500030 0.500000 0.401630 1.118231

loop_
_geom_bond_atom_site_label_1
_geom_bond_atom_site_label_2
_ccdc_geom_bond_type
O30   Zn2   S    
O2    S1    D    
C41   C42   S    
C35   C36   S    
C42   H32   S    
C10   O31   A    
C32   H8    S    
C4    C8    S    
C12   C49   S    
C27   H4    S    
C46   H39   S    
C38   H26   S    
C9    O28   A    
C41   H36   S    
O9    S3    S    
C37   C38   S    
C29   H48   S    
O17   S6    D    
O19   S6    S    
C28   C29   S    
C19   C21   A    
C1    O23   A    
O6    S2    S    
C3    C7    S    
C30   C31   S    
N1    Zn2   S    
C27   H5    S    
H12   O6    S    
O23   Zn2   S    
C19   S1    S    
C43   H44   S    
O7    S3    D    
C39   H24   S    
C31   H9    S    
C9    C13   S    
C10   O29   A    
H47   O19   S    
C44   H43   S    
C26   C34   A    
C47   C48   T    
C22   C25   A    
C39   H22   S    
C18   S2    S    
O18   S6    D    
C35   H17   S    
C8    N1    T    
C1    O1    A    
C44   H42   S    
C33   H19   S    
O3    S1    S    
O14   S5    D    
O4    S2    D    
C27   C34   S    
C30   H13   S    
O15   S5    D    
C42   H31   S    
C32   H7    S    
C3    C50   A    
C44   C46   S    
H23   O9    S    
C12   O12   A    
C38   H25   S    
H45   O16   S    
C15   C20   A    
C22   C34   A    
O31   Zn1   S    
C12   O27   A    
C29   H49   S    
C23   C30   S    
O10   S4    D    
C4    C6    A    
C36   H15   S    
C46   H41   S    
H30   O26   S    
C37   H27   S    
C7    N2    T    
O25   S8    D    
O12   Zn2   S    
C31   H10   S    
C2    C4    A    
C43   C44   S    
O5    S2    D    
C36   H16   S    
C31   C32   S    
O13   S4    S    
C45   C49   T    
C2    C43   S    
H1    O3    S    
C11   C19   A    
O21   S7    D    
C43   H46   S    
C6    C50   A    
C6    S7    S    
O28   Zn1   S    
C26   C47   S    
O27   Zn1   S    
C13   C18   A    
C40   C41   S    
H34   O13   S    
C33   H20   S    
C14   C16   A    
O22   S7    S    
C30   H11   S    
C2    C5    A    
N2    Zn1   S    
O16   S5    S    
C25   C45   S    
C40   H37   S    
C15   S6    S    
H29   O22   S    
C9    O30   A    
C24   C37   S    
C15   C17   A    
C22   C33   S    
C11   C17   A    
C29   H50   S    
O8    S3    D    
C16   S4    S    
C42   H33   S    
C24   C26   A    
C3    C5    A    
O1    Zn1   S    
C28   H3    S    
C1    C48   S    
O32   S1    D    
C46   H40   S    
C41   H35   S    
C37   H28   S    
C40   H38   S    
C28   H2    S    
C5    S8    S    
C38   C39   S    
C35   H18   S    
C40   C50   S    
C33   C35   S    
O24   S8    D    
C18   C20   A    
C23   C25   A    
C14   S5    S    
C10   C11   S    
C23   C24   A    
C14   C21   A    
C20   C21   A    
C13   C16   A    
C27   C28   S    
C39   H21   S    
O11   S4    D    
C17   S3    S    
O20   S7    D    
C36   H14   S    
O26   S8    S    
C32   H6    S    
O29   Zn2   S    
