data_mof_unit_53690.cif
_audit_creation_date              2012-12-11T15:39:24-0500
_audit_creation_method            fapswitch 2.2
_symmetry_space_group_name_H-M    P1
_symmetry_Int_Tables_number       1
_space_group_crystal_system       triclinic
_cell_length_a                    17.335634
_cell_length_b                    24.311576
_cell_length_c                    14.939965
_cell_angle_alpha                 89.998177
_cell_angle_beta                  125.429892
_cell_angle_gamma                 90.049389
_cell_volume                      5130.58376969

loop_
_atom_site_label
_atom_site_type_symbol
_atom_type_description
_atom_site_fract_x
_atom_site_fract_y
_atom_site_fract_z
_atom_type_partial_charge
C1    C     C_R   0.317575 0.366667 0.908309 -0.127127
C2    C     C_R   0.427677 0.499957 0.630501 0.053197
C3    C     C_R   0.113843 0.815627 0.999409 0.048308
C4    C     C_R   0.949392 0.999954 0.274514 0.040885
C5    C     C_R   0.939077 0.999969 0.634634 0.041188
C6    C     C_R   0.172911 0.501171 0.693658 0.070216
C7    C     C_R   0.798511 0.501345 0.368423 0.087701
C8    C     C_R   0.695532 0.000710 0.634641 0.071218
C9    C     C_R   0.325461 0.000992 0.276995 0.072731
C10   C     C_R   0.022946 0.552966 0.606221 0.169124
C11   C     C_R   0.926791 0.553491 0.527743 0.162449
C12   C     C_R   0.570750 0.052123 0.469407 0.159215
C13   C     C_R   0.689994 0.375875 0.091840 -0.126661
C14   C     C_R   0.477696 0.052478 0.378990 0.166603
C15   C     C_R   0.071694 0.502947 0.640875 0.038873
C16   C     C_R   0.878271 0.503747 0.482911 0.029095
C17   C     C_R   0.616348 0.002343 0.518558 0.033236
C18   C     C_R   0.428169 0.002923 0.334632 0.032999
C19   C     C_R   0.019581 0.454456 0.620373 -0.197606
C20   C     C_R   0.921908 0.454910 0.541089 -0.204620
C21   C     C_R   0.575403 0.953661 0.457626 -0.199124
C22   C     C_R   0.481191 0.954021 0.365070 -0.198551
C23   C     C_3   0.933152 0.604245 0.474950 -0.523861
C24   C     C_R   0.849559 0.848675 0.908099 -0.122788
C25   C     C_3   0.038179 0.603596 0.561387 -0.530319
C26   C     C_3   0.456132 0.102726 0.419041 -0.524166
C27   C     C_3   0.558008 0.102422 0.517234 -0.519591
C28   C     C_R   0.165331 0.693614 0.900129 -0.167031
C29   C     C_R   0.841345 0.686346 0.098942 -0.167403
C30   C     C_R   0.787731 0.267101 0.899606 -0.170660
C31   C     C_R   0.206907 0.267020 0.098555 -0.170628
C32   C     C_R   0.740990 0.313193 0.899769 -0.166189
C33   C     C_R   0.262450 0.307719 0.098695 -0.169199
C34   C     C_R   0.108971 0.733671 0.899912 -0.170515
C35   C     C_R   0.145876 0.847651 0.090961 -0.139503
C36   C     C_R   0.888092 0.732492 0.098822 -0.169726
C37   C     C_R   0.760502 0.332645 0.999305 0.143294
C38   C     C_R   0.247328 0.323033 0.999303 0.148823
C39   C     C_R   0.137884 0.758517 0.999359 0.141543
C40   C     C_R   0.855247 0.758960 0.999305 0.141462
C41   C     C_R   0.410107 0.634224 0.091537 -0.127205
C42   C     C_R   0.598115 0.623982 0.907977 -0.125339
C43   C     C_R   0.942120 0.151863 0.090773 -0.139782
C44   C     C_R   0.055368 0.151960 0.908133 -0.121845
C45   C     C_R   0.840903 0.313478 0.098581 -0.167494
C46   C     C_R   0.323332 0.650463 0.000099 0.043353
C47   C     C_R   0.163540 0.307403 0.899645 -0.168388
C48   C     C_R   0.207918 0.733599 0.098940 -0.170397
C49   C     C_R   0.788396 0.732511 0.899912 -0.170727
C50   C     C_R   0.264394 0.693616 0.099212 -0.170011
C51   C     C_R   0.741710 0.686339 0.900124 -0.166348
C52   C     C_R   0.887701 0.267402 0.098516 -0.170958
C53   C     C_R   0.108017 0.266689 0.899539 -0.170215
C54   C     C_R   0.249482 0.678543 0.999829 0.148783
C55   C     C_R   0.761039 0.667024 0.999648 0.142680
C56   C     C_R   0.854809 0.240840 0.999058 0.142097
C57   C     C_R   0.688132 0.636904 0.999915 0.041177
C58   C     C_R   0.137281 0.241776 0.999046 0.141723
C59   C     C_R   0.392694 0.549768 0.467836 -0.173264
C60   C     C_R   0.411265 0.549798 0.389744 -0.169203
C61   C     C_R   0.896296 0.049755 0.466785 -0.171955
C62   C     C_R   0.896119 0.049724 0.374055 -0.168377
C63   C     C_R   0.431450 0.499958 0.360384 0.150159
C64   C     C_R   0.395773 0.499939 0.516795 0.140760
C65   C     C_R   0.906975 0.999946 0.335180 0.143670
C66   C     C_R   0.906064 0.999955 0.519767 0.142717
C67   C     C_R   0.411247 0.450097 0.389730 -0.169404
C68   C     C_R   0.879445 0.183339 0.999205 0.045309
C69   C     C_R   0.392680 0.450106 0.467826 -0.172365
C70   C     C_R   0.896026 0.950167 0.374008 -0.168051
C71   C     C_R   0.896200 0.950145 0.466736 -0.170657
C72   C     C_R   0.501432 0.454206 0.271179 -0.128847
C73   C     C_R   0.447034 0.454306 0.695027 -0.139718
C74   C     C_R   0.980310 0.953907 0.248516 -0.124852
C75   C     C_R   0.954055 0.954125 0.697905 -0.124489
C76   C     C_R   0.231307 0.546341 0.729452 -0.139091
C77   C     C_R   0.750371 0.546215 0.304381 -0.163477
C78   C     C_R   0.745151 0.046103 0.697873 -0.142351
C79   C     C_R   0.113501 0.184543 0.999234 0.049552
C80   C     C_R   0.267242 0.046441 0.246520 -0.145660
C81   C     C_R   0.501169 0.545773 0.270875 -0.128263
C82   C     C_R   0.447044 0.545627 0.695051 -0.140447
C83   C     C_R   0.980291 0.046022 0.248453 -0.125334
C84   C     C_R   0.954086 0.045821 0.697942 -0.124498
C85   C     C_R   0.229476 0.454814 0.727555 -0.127619
C86   C     C_R   0.753870 0.454995 0.305142 -0.136814
C87   C     C_R   0.743160 0.954508 0.697358 -0.121657
C88   C     C_R   0.269230 0.954394 0.251200 -0.123544
C89   C     C_R   0.319321 0.634875 0.908734 -0.127898
C90   C     C_R   0.476990 0.499980 0.304131 0.042701
C91   C     C_R   0.690230 0.623961 0.092045 -0.126361
C92   C     C_R   0.849426 0.151215 0.907976 -0.124208
C93   C     C_R   0.145260 0.152625 0.090787 -0.143708
C94   C     C_R   0.408954 0.366484 0.091235 -0.126491
C95   C     C_R   0.597893 0.375889 0.907780 -0.125425
C96   C     C_R   0.942232 0.848089 0.090869 -0.140137
C97   C     C_R   0.055379 0.848012 0.908152 -0.122569
C98   C     C_R   0.321364 0.351127 0.999623 0.042500
C99   C     C_R   0.687798 0.362867 0.999665 0.041074
C100  C     C_R   0.879649 0.816536 0.999330 0.044957
H1    H     H_    0.915655 0.597217 0.391504 0.200267
H2    H     H_    0.862442 0.669956 0.177344 0.107811
H3    H     H_    0.764496 0.249681 0.821173 0.105256
H4    H     H_    0.226486 0.251521 0.176917 0.105333
H5    H     H_    0.683482 0.329467 0.821458 0.107722
H6    H     H_    0.321677 0.322998 0.177038 0.104251
H7    H     H_    0.050248 0.749118 0.821500 0.104979
H8    H     H_    0.943485 0.749794 0.177246 0.106168
H9    H     H_    0.862114 0.329971 0.176961 0.107765
H10   H     H_    0.144935 0.322422 0.821367 0.102699
H11   H     H_    0.227116 0.748957 0.177248 0.105056
H12   H     H_    0.062988 0.639026 0.618912 0.186712
H13   H     H_    0.765267 0.749851 0.821474 0.104830
H14   H     H_    0.323922 0.678659 0.177598 0.104075
H15   H     H_    0.684322 0.669913 0.821830 0.107367
H16   H     H_    0.943231 0.250235 0.176946 0.105206
H17   H     H_    0.049650 0.250912 0.821168 0.104134
H18   H     H_    0.387664 0.589000 0.498095 0.105488
H19   H     H_    0.417508 0.589020 0.360398 0.103699
H20   H     H_    0.897661 0.089031 0.501487 0.105142
H21   H     H_    0.897562 0.088951 0.341041 0.107585
H22   H     H_    0.417469 0.410886 0.360352 0.103807
H23   H     H_    0.438278 0.138843 0.364620 0.190917
H24   H     H_    0.387636 0.410866 0.498074 0.105923
H25   H     H_    0.897391 0.910938 0.340950 0.108003
H26   H     H_    0.897485 0.910872 0.501395 0.105296
H27   H     H_    0.441858 0.646810 0.174799 0.082201
H28   H     H_    0.570747 0.628860 0.822667 0.093622
H29   H     H_    0.988873 0.165941 0.174633 0.083607
H30   H     H_    0.009527 0.164864 0.823400 0.080520
H31   H     H_    0.211446 0.588330 0.708223 0.097760
H32   H     H_    0.754003 0.587803 0.331980 0.103441
H33   H     H_    0.738325 0.087962 0.670086 0.097884
H34   H     H_    0.565896 0.094396 0.595460 0.204980
H35   H     H_    0.285413 0.089023 0.249200 0.111518
H36   H     H_    0.505376 0.587422 0.297134 0.081395
H37   H     H_    0.428820 0.587820 0.668227 0.084359
H38   H     H_    0.970251 0.088704 0.258728 0.093219
H39   H     H_    0.937651 0.088121 0.671286 0.082090
H40   H     H_    0.205751 0.413301 0.701321 0.083382
H41   H     H_    0.764616 0.412977 0.333608 0.084361
H42   H     H_    0.731916 0.912372 0.669354 0.082772
H43   H     H_    0.290826 0.911855 0.262690 0.094010
H44   H     H_    0.440300 0.353803 0.174331 0.082558
H45   H     H_    0.897525 0.640175 0.482309 0.189266
H46   H     H_    0.570465 0.371000 0.822448 0.093765
H47   H     H_    0.989055 0.834065 0.174719 0.084004
H48   H     H_    0.009488 0.834976 0.823472 0.081115
H49   H     H_    0.265869 0.354334 0.824954 0.083016
H50   H     H_    0.747955 0.370931 0.177097 0.093589
H51   H     H_    0.810113 0.835534 0.823431 0.081460
H52   H     H_    0.183028 0.834071 0.175120 0.084098
H53   H     H_    0.506038 0.412597 0.297858 0.081660
H54   H     H_    0.428800 0.412094 0.668192 0.084713
H55   H     H_    0.970286 0.911218 0.258856 0.093473
H56   H     H_    0.078861 0.595809 0.526258 0.199717
H57   H     H_    0.937613 0.911807 0.671238 0.082341
H58   H     H_    0.269324 0.648842 0.826123 0.082301
H59   H     H_    0.748282 0.628761 0.177368 0.092147
H60   H     H_    0.809927 0.164293 0.823293 0.081350
H61   H     H_    0.181748 0.166471 0.174740 0.084191
H62   H     H_    0.054190 0.415416 0.655166 0.123344
H63   H     H_    0.884702 0.416015 0.515446 0.124523
H64   H     H_    0.610956 0.914483 0.487649 0.122983
H65   H     H_    0.447648 0.915103 0.327373 0.126978
H66   H     H_    0.406714 0.094773 0.442309 0.201426
H67   H     H_    0.598864 0.138135 0.518768 0.186783
H68   H     H_    0.146885 0.678589 0.821914 0.103524
N1    N     N_R   0.394180 0.396910 0.943210 -0.039326
N2    N     N_R   0.474350 0.471570 0.793850 -0.037946
N3    N     N_R   0.025650 0.971570 0.206150 -0.041617
N4    N     N_R   0.974350 0.971570 0.793850 -0.038921
N5    N     N_R   0.319480 0.528420 0.793810 -0.038240
N6    N     N_R   0.680520 0.528420 0.206190 -0.038247
N7    N     N_R   0.819480 0.028420 0.793810 -0.039444
N8    N     N_R   0.180520 0.028420 0.206190 -0.042232
N9    N     N_R   0.525640 0.528390 0.206120 -0.036780
N10   N     N_R   0.474360 0.528390 0.793880 -0.037833
N11   N     N_R   0.025640 0.028390 0.206120 -0.041533
N12   N     N_R   0.605820 0.396910 0.056790 -0.042081
N13   N     N_R   0.974360 0.028390 0.793880 -0.038773
N14   N     N_R   0.319490 0.471590 0.793840 -0.037847
N15   N     N_R   0.680510 0.471590 0.206160 -0.038909
N16   N     N_R   0.819490 0.971590 0.793840 -0.040036
N17   N     N_R   0.180510 0.971590 0.206160 -0.042317
N18   N     N_R   0.394130 0.603080 0.943110 -0.039000
N19   N     N_R   0.605870 0.603080 0.056890 -0.041557
N20   N     N_R   0.894130 0.103080 0.943110 -0.037280
N21   N     N_R   0.105870 0.103080 0.056890 -0.037262
N22   N     N_R   0.450990 0.396900 0.056840 -0.039342
N23   N     N_R   0.894180 0.896910 0.943210 -0.037767
N24   N     N_R   0.549010 0.396900 0.943160 -0.042029
N25   N     N_R   0.950990 0.896900 0.056840 -0.036884
N26   N     N_R   0.049010 0.896900 0.943160 -0.038069
N27   N     N_R   0.105820 0.896910 0.056790 -0.037478
N28   N     N_R   0.450950 0.603070 0.056740 -0.038937
N29   N     N_R   0.549050 0.603070 0.943260 -0.041937
N30   N     N_R   0.950950 0.103070 0.056740 -0.036572
N31   N     N_R   0.049050 0.103070 0.943260 -0.037602
N32   N     N_R   0.525650 0.471570 0.206150 -0.036816
Ni1   Ni    Ni4+2 0.434860 0.434850 0.869700 0.212941
Ni2   Ni    Ni4+2 0.565140 0.434850 0.130300 0.212425
Ni3   Ni    Ni4+2 0.934860 0.934850 0.869700 0.205177
Ni4   Ni    Ni4+2 0.065140 0.934850 0.130300 0.209017
Ni5   Ni    Ni4+2 0.565130 0.565140 0.130240 0.211349
Ni6   Ni    Ni4+2 0.434870 0.565140 0.869760 0.211831
Ni7   Ni    Ni4+2 0.065130 0.065140 0.130240 0.207734
Ni8   Ni    Ni4+2 0.934870 0.065140 0.869760 0.204539

loop_
_geom_bond_atom_site_label_1
_geom_bond_atom_site_label_2
_ccdc_geom_bond_type
C49   H13   S    
C13   C99   A    
C77   N6    A    
C36   H8    S    
N14   Ni1   S    
C89   N18   A    
C41   H27   S    
C19   C20   A    
C47   C53   A    
C38   C98   S    
N23   N25   A    
C89   H58   S    
C46   C89   A    
C23   H1    S    
C15   C19   A    
C23   H45   S    
C29   C36   A    
C26   C27   S    
C85   N14   A    
C6    C85   A    
N2    N10   A    
C60   C63   A    
C34   H7    S    
N1    N22   A    
N8    Ni7   S    
N18   N28   A    
C76   N5    A    
C13   H50   S    
C79   C93   A    
C82   H37   S    
N12   Ni2   S    
C10   C15   A    
C9    C88   A    
C4    C65   S    
C76   H31   S    
C45   H9    S    
C7    C86   A    
C94   C98   A    
C44   H30   S    
C40   C49   A    
C96   C100  A    
N28   Ni5   S    
C60   H19   S    
C51   C55   A    
C83   H38   S    
C11   C23   S    
N3    Ni4   S    
C14   C18   A    
N2    Ni1   S    
C25   H12   S    
C6    C15   S    
C22   H65   S    
N4    N13   A    
C26   H66   S    
C84   H39   S    
C43   C68   A    
C49   C51   A    
N9    N32   A    
C12   C17   A    
C29   H2    S    
N6    Ni5   S    
C41   C46   A    
C31   C33   A    
C71   H26   S    
C1    H49   S    
N5    Ni6   S    
C3    C35   A    
C43   N30   A    
C88   H43   S    
C91   H59   S    
C42   H28   S    
C7    C77   A    
N21   N31   A    
C48   C50   A    
N26   N27   A    
C28   C34   A    
C59   C60   A    
C21   H64   S    
C18   C22   A    
C21   C22   A    
C61   H20   S    
C8    C78   A    
N15   Ni2   S    
N3    N11   A    
N29   Ni6   S    
C95   H46   S    
N23   Ni3   S    
N7    Ni8   S    
C61   C66   A    
C42   C57   A    
C2    C64   S    
C63   C67   A    
C52   H16   S    
C80   H35   S    
N11   Ni7   S    
N18   Ni6   S    
C12   C27   S    
C34   C39   A    
C43   H29   S    
N13   Ni8   S    
C80   N8    A    
N8    N17   A    
N12   N24   A    
C87   N16   A    
C5    C84   A    
C28   C54   A    
N22   Ni2   S    
N27   Ni4   S    
C29   C55   A    
C69   H24   S    
C32   C37   A    
C20   H63   S    
C30   C56   A    
N19   Ni5   S    
C51   H15   S    
C67   C69   A    
C19   H62   S    
C97   N26   A    
C5    C75   A    
N4    Ni3   S    
C94   N22   A    
C24   H51   S    
C72   N32   A    
C65   C70   A    
C72   C90   A    
C11   C16   A    
C3    C97   A    
C66   C71   A    
C93   H61   S    
N24   Ni1   S    
C46   C54   S    
C38   C47   A    
C50   C54   A    
C64   C69   A    
C14   C26   S    
N25   Ni4   S    
C85   H40   S    
C74   N3    A    
C70   C71   A    
C2    C73   A    
C95   N24   A    
C81   C90   A    
C58   C79   S    
C70   H25   S    
C88   N17   A    
N19   N29   A    
N5    N14   A    
C9    C80   A    
C59   H18   S    
C93   N21   A    
C32   H5    S    
C55   C57   S    
C86   N15   A    
C97   H48   S    
C2    C82   A    
C35   H52   S    
C37   C45   A    
C13   N12   A    
C67   H22   S    
N1    Ni1   S    
C37   C99   S    
C36   C40   A    
C31   C58   A    
C81   H36   S    
C96   H47   S    
C91   N19   A    
N20   Ni8   S    
C72   H53   S    
C57   C91   A    
C62   C65   A    
N30   Ni7   S    
C24   C100  A    
C27   H34   S    
C4    C74   A    
C44   C79   A    
C7    C16   S    
C33   H6    S    
C8    C17   S    
C12   C14   A    
C5    C66   S    
N20   N30   A    
C40   C100  S    
C42   N29   A    
C53   C58   A    
C92   N20   A    
C6    C76   A    
C35   N27   A    
C41   N28   A    
C47   H10   S    
C33   C38   A    
C45   C52   A    
C83   N11   A    
C16   C20   A    
C92   H60   S    
C8    C87   A    
C94   H44   S    
C31   H4    S    
C1    C98   A    
C81   N9    A    
C59   C64   A    
C56   C68   S    
C30   C32   A    
C75   H57   S    
C78   N7    A    
C4    C83   A    
N21   Ni7   S    
C53   H17   S    
N26   Ni3   S    
N10   Ni6   S    
C63   C90   S    
C1    N1    A    
N31   Ni8   S    
C68   C92   A    
N9    Ni5   S    
C74   H55   S    
C24   N23   A    
C95   C99   A    
C23   C25   S    
C87   H42   S    
C61   C62   A    
C78   H33   S    
C17   C21   A    
C10   C25   S    
C10   C11   A    
C28   H68   S    
C3    C39   S    
C96   N25   A    
C9    C18   S    
C48   H11   S    
C44   N31   A    
N32   Ni2   S    
C26   H23   S    
N17   Ni4   S    
C75   N4    A    
N16   Ni3   S    
C30   H3    S    
N7    N16   A    
C73   H54   S    
C50   H14   S    
C73   N2    A    
N6    N15   A    
C82   N10   A    
C77   H32   S    
C62   H21   S    
C52   C56   A    
C86   H41   S    
C27   H67   S    
C39   C48   A    
C25   H56   S    
C84   N13   A    
