data_mof_unit_53996.cif
_audit_creation_date              2012-12-10T21:07:44-0500
_audit_creation_method            fapswitch 2.2
_symmetry_space_group_name_H-M    P1
_symmetry_Int_Tables_number       1
_space_group_crystal_system       triclinic
_cell_length_a                    8.611668
_cell_length_b                    17.412506
_cell_length_c                    16.832532
_cell_angle_alpha                 87.699371
_cell_angle_beta                  97.933632
_cell_angle_gamma                 90.624337
_cell_volume                      2497.84003913

loop_
_atom_site_label
_atom_site_type_symbol
_atom_type_description
_atom_site_fract_x
_atom_site_fract_y
_atom_site_fract_z
_atom_type_partial_charge
C1    C     C_R   0.507746 0.352752 0.502267 0.884117
C2    C     C_R   0.499131 0.646834 0.498364 0.867850
C3    C     C_1   0.605730 0.965999 0.480506 0.079670
C4    C     C_1   0.612540 0.034018 0.484774 0.092374
C5    C     C_R   0.433412 0.444252 0.832648 -0.368140
C6    C     C_R   0.613358 0.532202 0.171444 -0.367290
C7    C     C_R   0.428195 0.442996 0.748794 0.137073
C8    C     C_R   0.615091 0.535428 0.254910 0.154088
C9    C     C_R   0.576640 0.558218 0.749050 -0.115380
C10   C     C_R   0.381343 0.462109 0.247394 -0.116776
C11   C     C_R   0.581934 0.562306 0.833654 -0.075602
C12   C     C_R   0.372588 0.459326 0.162469 -0.072773
C13   C     C_R   0.507238 0.503874 0.876372 0.119948
C14   C     C_R   0.491853 0.495686 0.123578 0.117336
C15   C     C_1   0.501528 0.502052 0.963686 0.098502
C16   C     C_1   0.494917 0.498598 0.036031 0.099775
C17   C     C_R   0.201027 0.500013 0.479329 0.988280
C18   C     C_R   0.798987 0.501185 0.520619 0.954033
C19   C     C_2   0.036696 0.499462 0.468004 -0.393300
C20   C     C_2   0.963403 0.502331 0.532002 -0.361653
C21   C     C_R   0.672774 0.839543 0.535080 -0.183649
C22   C     C_R   0.506034 0.153856 0.430673 -0.160504
C23   C     C_R   0.641599 0.761851 0.542265 -0.243177
C24   C     C_R   0.474380 0.230480 0.437072 -0.226252
C25   C     C_R   0.513732 0.729762 0.494588 -0.023083
C26   C     C_R   0.533917 0.269370 0.505976 -0.060648
C27   C     C_R   0.411686 0.775952 0.439649 0.030930
C28   C     C_R   0.628330 0.229423 0.571107 0.016204
C29   C     C_R   0.448147 0.854923 0.429514 0.009764
C30   C     C_R   0.664724 0.151040 0.562730 -0.002566
C31   C     C_R   0.578516 0.885637 0.478962 0.064445
C32   C     C_R   0.600294 0.114441 0.492276 0.065422
H1    H     H_    0.976403 0.496161 0.407091 0.166563
H2    H     H_    0.023811 0.505363 0.592997 0.200814
H3    H     H_    0.770996 0.863849 0.573491 0.180471
H4    H     H_    0.455424 0.124924 0.377238 0.188480
H5    H     H_    0.719352 0.726232 0.584244 0.152622
H6    H     H_    0.401975 0.259690 0.387401 0.163408
H7    H     H_    0.376116 0.398788 0.863997 0.170102
H8    H     H_    0.705467 0.560764 0.143235 0.172059
H9    H     H_    0.634640 0.602169 0.716385 0.136177
H10   H     H_    0.291754 0.433913 0.277439 0.130976
N1    N     N_R   0.500040 0.500030 0.707230 -0.092923
N2    N     N_R   0.499960 0.499970 0.292770 -0.089294
O1    O     O_R   0.500000 0.389130 0.566570 -0.585977
O2    O     O_R   0.500000 0.610870 0.433430 -0.555363
O3    O     O_R   0.499990 0.389100 0.433480 -0.630217
O4    O     O_R   0.500010 0.610900 0.566520 -0.636533
O5    O     O_R   0.271750 0.500010 0.550980 -0.550478
O6    O     O_R   0.728250 0.499990 0.449020 -0.593861
O7    O     O_R   0.271740 0.499980 0.417890 -0.651624
O8    O     O_R   0.728260 0.500020 0.582110 -0.637062
Zn1   Zn    Zn3+2 0.500010 0.500020 0.588860 0.973125
Zn2   Zn    Zn3+2 0.499990 0.499980 0.411140 0.976387
C33   C     C_3   0.255958 0.743545 0.400208 -0.445450
C34   C     C_3   0.119741 0.775241 0.438910 -0.407716
C35   C     C_3   0.966170 0.735757 0.408118 -0.759731
H11   H     H_    0.942599 0.741734 0.341597 0.272707
H12   H     H_    0.972178 0.673925 0.427158 0.272550
H13   H     H_    0.868504 0.762469 0.433423 0.264576
H14   H     H_    0.143128 0.765514 0.505187 0.235611
H15   H     H_    0.106576 0.837949 0.425609 0.245328
H16   H     H_    0.239452 0.756614 0.334562 0.197479
H17   H     H_    0.250893 0.680066 0.406514 0.216749
C36   C     C_3   0.687545 0.268193 0.649270 -0.452830
C37   C     C_3   0.836343 0.315637 0.642412 -0.307981
C38   C     C_3   0.880023 0.363801 0.716099 -0.792717
H18   H     H_    0.782672 0.403048 0.723470 0.262564
H19   H     H_    0.905856 0.325892 0.770893 0.250277
H20   H     H_    0.985538 0.399085 0.708918 0.266940
H21   H     H_    0.935108 0.276677 0.636535 0.219612
H22   H     H_    0.818785 0.354101 0.587975 0.226095
H23   H     H_    0.594634 0.303185 0.668515 0.227659
H24   H     H_    0.711874 0.225786 0.700298 0.187541
C39   C     C_2   0.350459 0.903970 0.367346 0.354837
H25   H     H_    0.294800 0.879453 0.312380 0.082014
O9    O     O_2   0.327712 0.971762 0.377220 -0.586774
C40   C     C_2   0.773930 0.108765 0.625833 0.365389
H26   H     H_    0.871736 0.138588 0.659055 0.075438
O10   O     O_2   0.755266 0.040646 0.642193 -0.567094
C41   C     C_2   0.343722 0.377260 0.709925 0.378142
H27   H     H_    0.351239 0.321183 0.740785 0.036203
O11   O     O_2   0.256025 0.384992 0.647060 -0.556215
C42   C     C_2   0.742423 0.580467 0.298029 0.417245
H28   H     H_    0.860438 0.576517 0.282772 0.014231
O12   O     O_2   0.715333 0.627262 0.345876 -0.559523
C43   C     C_2   0.666667 0.628127 0.873443 0.399372
H29   H     H_    0.720367 0.671411 0.837601 0.065104
O13   O     O_2   0.678419 0.635216 0.945872 -0.565789
C44   C     C_2   0.237668 0.418092 0.118360 0.384445
H30   H     H_    0.149387 0.391976 0.151207 0.058157
O14   O     O_2   0.222573 0.412429 0.045660 -0.571312

loop_
_geom_bond_atom_site_label_1
_geom_bond_atom_site_label_2
_ccdc_geom_bond_type
C43   H29   S    
C10   H10   S    
C19   C20   D    
C33   C34   S    
C17   O7    A    
C41   H27   S    
C35   H11   S    
C18   O8    A    
C2    O2    A    
C21   C31   A    
O6    Zn2   S    
C22   C32   A    
C22   C24   A    
C12   C44   S    
C42   O12   D    
C40   O10   D    
C35   H12   S    
C27   C29   A    
C15   C16   T    
C36   H23   S    
C34   C35   S    
C18   C20   S    
N1    Zn1   S    
C37   H22   S    
C11   C43   S    
C33   H16   S    
C24   H6    S    
C7    N1    A    
C5    C13   A    
C20   H2    S    
C37   C38   S    
O1    Zn1   S    
C41   O11   D    
O4    Zn1   S    
C9    N1    A    
C10   N2    A    
C38   H18   S    
C6    H8    S    
C42   H28   S    
C19   H1    S    
C17   O5    A    
C5    C7    A    
C40   H26   S    
C1    O3    A    
C35   H13   S    
C6    C8    A    
C2    O4    A    
C23   H5    S    
C36   H24   S    
C38   H19   S    
C39   H25   S    
C6    C14   A    
C9    C11   A    
C44   O14   D    
C37   H21   S    
C33   H17   S    
O2    Zn2   S    
C3    C31   S    
C39   O9    D    
C4    C32   S    
C10   C12   A    
O3    Zn2   S    
C21   H3    S    
C7    C41   S    
C12   C14   A    
C13   C15   S    
C1    C26   S    
C14   C16   S    
C3    C4    T    
O8    Zn1   S    
C18   O6    A    
C5    H7    S    
C8    C42   S    
C26   C28   A    
C8    N2    A    
C24   C26   A    
C29   C39   S    
C25   C27   A    
C22   H4    S    
C27   C33   S    
C9    H9    S    
O7    Zn2   S    
C38   H20   S    
C21   C23   A    
C28   C36   S    
C29   C31   A    
C30   C32   A    
C11   C13   A    
C1    O1    A    
C44   H30   S    
O5    Zn1   S    
C28   C30   A    
C17   C19   S    
C2    C25   S    
C34   H15   S    
C23   C25   A    
C30   C40   S    
N2    Zn2   S    
C36   C37   S    
C43   O13   D    
C34   H14   S    
