data_mof_unit_51755.cif
_audit_creation_date              2012-10-26T21:21:04-0400
_audit_creation_method            fapswitch 2.2
_symmetry_space_group_name_H-M    P1
_symmetry_Int_Tables_number       1
_space_group_crystal_system       triclinic
_cell_length_a                    10.796663
_cell_length_b                    10.923882
_cell_length_c                    9.693431
_cell_angle_alpha                 90.24275
_cell_angle_beta                  90.028278
_cell_angle_gamma                 89.880619
_cell_volume                      1143.24464989

loop_
_atom_site_label
_atom_site_type_symbol
_atom_type_description
_atom_site_fract_x
_atom_site_fract_y
_atom_site_fract_z
_atom_type_partial_charge
C1    C     C_R   0.493149 0.265676 0.499663 0.571080
C2    C     C_2   0.464706 0.136136 0.498955 0.221795
C3    C     C_2   0.426438 0.431820 0.921737 0.000895
C4    C     C_R   0.262622 0.505915 0.500204 0.566510
C5    C     C_2   0.427457 0.430718 0.077461 -0.002410
C6    C     C_R   0.504069 0.734550 0.500378 0.550363
C7    C     C_R   0.737366 0.505765 0.500098 0.535129
C8    C     C_R   0.128448 0.681608 0.676999 -0.087445
C9    C     C_R   0.063519 0.759055 0.766533 0.251860
C10   C     C_R   0.934605 0.760728 0.763321 -0.092703
C11   C     C_R   0.870439 0.683498 0.673878 -0.148922
C12   C     C_R   0.065243 0.598199 0.589779 -0.015892
C13   C     C_R   0.934188 0.598577 0.589013 0.018707
C14   C     C_R   0.128847 0.516254 0.500513 0.021932
C15   C     C_R   0.063993 0.441037 0.409056 -0.110071
C16   C     C_R   0.936368 0.440927 0.409010 -0.129711
C17   C     C_R   0.871088 0.516294 0.500142 0.017448
C18   C     C_2   0.498034 0.933371 0.390191 -0.108939
C19   C     C_2   0.517056 0.866101 0.502790 -0.059260
C20   C     C_2   0.511037 0.066064 0.396505 -0.157626
Cu1   Cu    Cu3+1 0.500020 0.500020 0.638630 0.988276
Cu2   Cu    Cu3+1 0.499980 0.499980 0.361370 0.972550
H1    H     H_    0.112547 0.379155 0.339944 0.147305
H2    H     H_    0.228137 0.193312 0.750225 0.381663
H3    H     H_    0.558060 0.558640 0.106377 0.210856
H4    H     H_    0.307831 0.746648 0.920080 0.330777
H5    H     H_    0.480547 0.890930 0.290550 0.173638
H6    H     H_    0.565453 0.107378 0.314744 0.127948
H7    H     H_    0.360991 0.372038 0.870014 0.168493
H8    H     H_    0.561864 0.554788 0.894179 0.208261
H9    H     H_    0.363911 0.368911 0.128525 0.152752
H10   H     H_    0.228003 0.688936 0.675683 0.175969
H11   H     H_    0.883481 0.822927 0.829505 0.156181
H12   H     H_    0.770880 0.692752 0.671549 0.144127
H13   H     H_    0.888166 0.378920 0.339927 0.141706
H14   H     H_    0.543214 0.908774 0.599744 0.163969
N1    N     N_2   0.498640 0.498660 0.846910 -0.353225
N2    N     N_2   0.498610 0.498630 0.153040 -0.346237
O1    O     O_R   0.500020 0.321960 0.617040 -0.448268
O2    O     O_2   0.416317 0.051316 0.752233 -0.257602
O3    O     O_3   0.254565 0.203852 0.653218 -0.514282
O4    O     O_2   0.117932 0.985797 0.846700 -0.206860
O5    O     O_2   0.096118 0.832025 0.026945 -0.282651
O6    O     O_3   0.296516 0.828356 0.877857 -0.454108
O7    O     O_R   0.499980 0.321920 0.382900 -0.518883
O8    O     O_R   0.319670 0.500020 0.617100 -0.498656
O9    O     O_R   0.319630 0.499980 0.382950 -0.492399
O10   O     O_R   0.500020 0.678080 0.617100 -0.499213
O11   O     O_R   0.499980 0.678040 0.382960 -0.496245
O12   O     O_R   0.680370 0.500020 0.617050 -0.505751
O13   O     O_R   0.680330 0.499980 0.382900 -0.499101
O14   O     O_2   0.278454 0.980161 0.566700 -0.228609
S1    S     S_3+6 0.352068 0.086778 0.620650 0.056780
S2    S     S_3+6 0.142986 0.854615 0.883316 0.058096

loop_
_geom_bond_atom_site_label_1
_geom_bond_atom_site_label_2
_ccdc_geom_bond_type
C8    C9    A    
O2    S1    D    
H2    O3    S    
H3    N2    S    
C9    C10   A    
O5    S2    D    
Cu1   O1    S    
C13   C17   A    
C8    C12   A    
Cu1   O10   S    
O3    S1    S    
C3    C5    S    
C15   H1    S    
Cu2   O9    S    
C7    O13   A    
C6    O11   A    
C4    O8    A    
C5    N2    D    
O14   S1    D    
C6    C19   S    
C11   C13   A    
C1    O7    A    
C6    O10   A    
Cu2   O11   S    
Cu1   O12   S    
C12   C14   A    
Cu1   O8    S    
C10   H11   S    
C18   C20   S    
C19   H14   S    
C16   H13   S    
C4    C14   S    
C10   C11   A    
C1    O1    A    
H4    O6    S    
C15   C16   A    
C8    H10   S    
O6    S2    S    
Cu2   O7    S    
Cu1   N1    S    
C12   C13   A    
C3    N1    D    
C1    C2    S    
C7    O12   A    
C3    H7    S    
C18   C19   D    
C14   C15   A    
Cu2   O13   S    
C9    S2    S    
C20   H6    S    
C7    C17   S    
Cu1   Cu2   S    
C2    C20   D    
C4    O9    A    
C11   H12   S    
O4    S2    D    
C18   H5    S    
H8    N1    S    
C16   C17   A    
C5    H9    S    
C2    S1    S    
Cu2   N2    S    
