data_mof_unit_64924.cif
_audit_creation_date              2012-12-10T18:17:33-0500
_audit_creation_method            fapswitch 2.2
_symmetry_space_group_name_H-M    P1
_symmetry_Int_Tables_number       1
_space_group_crystal_system       triclinic
_cell_length_a                    14.682673
_cell_length_b                    15.916497
_cell_length_c                    17.283969
_cell_angle_alpha                 90.063509
_cell_angle_beta                  85.837411
_cell_angle_gamma                 90.321564
_cell_volume                      4028.48735144

loop_
_atom_site_label
_atom_site_type_symbol
_atom_type_description
_atom_site_fract_x
_atom_site_fract_y
_atom_site_fract_z
_atom_type_partial_charge
C1    C     C_R   0.500231 0.660058 0.500017 0.813750
C2    C     C_R   0.405004 0.534166 0.774670 -0.209041
C3    C     C_R   0.466062 0.565827 0.149968 -0.056544
C4    C     C_R   0.461146 0.557668 0.229962 -0.187310
C5    C     C_R   0.583641 0.453895 0.219346 -0.047755
C6    C     C_R   0.588202 0.463704 0.138666 -0.156387
C7    C     C_R   0.527795 0.517178 0.104222 0.169660
C8    C     C_2   0.454049 0.499130 0.982055 0.255582
C9    C     C_2   0.528049 0.519253 0.019844 -0.288136
C10   C     C_R   0.518877 0.501838 0.265277 -0.093805
C11   C     C_3   0.411994 0.947693 0.462967 -0.426691
C12   C     C_R   0.488117 0.497819 0.650344 0.821989
C13   C     C_3   0.583057 0.952982 0.450942 -0.183981
C14   C     C_3   0.585457 0.050123 0.458491 -0.411328
C15   C     C_1   0.498952 0.250687 0.499691 -0.003763
C16   C     C_3   0.498745 0.916918 0.501028 0.068308
C17   C     C_3   0.411133 0.047173 0.454586 -0.093248
C18   C     C_3   0.494236 0.083022 0.499435 0.032718
C19   C     C_3   0.484531 0.049381 0.585255 -0.248834
C20   C     C_3   0.498202 0.952121 0.585839 -0.212993
C21   C     C_1   0.497121 0.175395 0.499430 0.041441
C22   C     C_1   0.500257 0.824669 0.500520 -0.033557
C23   C     C_R   0.499767 0.339959 0.499964 0.861578
C24   C     C_1   0.500663 0.749378 0.500227 -0.085551
C25   C     C_3   0.953277 0.454619 0.426951 -0.205064
C26   C     C_3   0.940941 0.457712 0.576608 -0.238095
C27   C     C_3   0.048218 0.450174 0.571910 0.114999
C28   C     C_3   0.907751 0.501028 0.500985 -0.119303
C29   C     C_3   0.060168 0.456647 0.426398 -0.414345
C30   C     C_3   0.092353 0.499611 0.500507 -0.039215
C31   C     C_3   0.055381 0.592200 0.500443 -0.277878
C32   C     C_3   0.946505 0.594975 0.500182 0.088369
C33   C     C_1   0.195439 0.498818 0.499002 0.207819
C34   C     C_R   0.511934 0.498669 0.349773 0.831458
C35   C     C_1   0.804488 0.501340 0.501521 0.351013
C36   C     C_R   0.480301 0.495232 0.735043 -0.091815
C37   C     C_R   0.545511 0.453900 0.777290 0.277099
C38   C     C_R   0.535763 0.454705 0.857950 -0.172203
C39   C     C_R   0.461874 0.495889 0.897152 0.062226
C40   C     C_R   0.395796 0.534382 0.855249 -0.093221
Cu1   Cu    Cu3+1 0.410070 0.500090 0.500100 1.043176
Cu2   Cu    Cu3+1 0.589930 0.499910 0.499900 1.110937
H1    H     H_    0.635517 0.426365 0.102062 0.179844
H2    H     H_    0.407510 0.915241 0.406537 0.219128
H3    H     H_    0.572461 0.938193 0.389121 0.181870
H4    H     H_    0.597344 0.078153 0.399641 0.186740
H5    H     H_    0.644263 0.071448 0.490372 0.250763
H6    H     H_    0.565875 0.938008 0.607094 0.221265
H7    H     H_    0.413605 0.063695 0.608436 0.178171
H8    H     H_    0.412592 0.595730 0.264551 0.159725
H9    H     H_    0.351355 0.922774 0.497344 0.253619
H10   H     H_    0.090604 0.393215 0.419395 0.258535
H11   H     H_    0.923482 0.501116 0.625549 0.179244
H12   H     H_    0.072915 0.477296 0.625732 0.186162
H13   H     H_    0.084432 0.618906 0.444226 0.151883
H14   H     H_    0.936701 0.489518 0.374330 0.166194
H15   H     H_    0.088289 0.491980 0.374360 0.167425
H16   H     H_    0.592941 0.532146 0.987576 0.156217
H17   H     H_    0.338265 0.566215 0.884838 0.179091
H18   H     H_    0.420838 0.609128 0.123576 0.166543
H19   H     H_    0.353953 0.565783 0.743241 0.175847
H20   H     H_    0.585530 0.422353 0.890211 0.173153
N1    N     N_1   0.275150 0.498610 0.498410 -0.137381
N2    N     N_1   0.724850 0.501380 0.501620 -0.104482
O1    O     O_R   0.424030 0.620640 0.500090 -0.577695
O2    O     O_R   0.575910 0.620490 0.499920 -0.557554
O3    O     O_R   0.415250 0.500090 0.613690 -0.583806
O4    O     O_R   0.567140 0.499950 0.613520 -0.544658
O5    O     O_R   0.424090 0.379510 0.500080 -0.553318
O6    O     O_R   0.575970 0.379360 0.499910 -0.536304
O7    O     O_R   0.432860 0.500050 0.386480 -0.579589
O8    O     O_R   0.584750 0.499910 0.386310 -0.552073
Br1   Br    Br    0.645996 0.391092 0.729335 -0.433001
C41   C     C_2   0.421836 0.073415 0.368682 0.847301
O9    O     O_2   0.420136 0.147925 0.351396 -0.533355
O10   O     O_R   0.434789 0.013869 0.309307 -0.768367
H21   H     H_    0.441495 0.040250 0.255814 0.358248
C42   C     C_2   0.673902 0.914112 0.467444 0.881208
O11   O     O_2   0.712810 0.868141 0.419020 -0.554665
O12   O     O_R   0.713993 0.931175 0.536728 -0.710709
H22   H     H_    0.774350 0.901282 0.540192 0.372937
C43   C     C_2   0.429853 0.909106 0.643218 0.856427
O13   O     O_2   0.347706 0.917872 0.638813 -0.535229
O14   O     O_R   0.461842 0.859400 0.702019 -0.734504
H23   H     H_    0.410497 0.833690 0.736775 0.348252
C44   C     C_2   0.319430 0.083709 0.487773 0.845279
O15   O     O_2   0.258203 0.038359 0.515987 -0.521412
O16   O     O_R   0.304614 0.170419 0.484843 -0.712235
H24   H     H_    0.241950 0.187091 0.508140 0.379460
C45   C     C_2   0.546533 0.092987 0.639775 0.873967
O17   O     O_2   0.513022 0.137488 0.691989 -0.542604
O18   O     O_R   0.641133 0.082089 0.631277 -0.712470
H25   H     H_    0.674234 0.114692 0.671242 0.365364
C46   C     C_2   0.915329 0.367115 0.414488 0.942583
O19   O     O_2   0.840206 0.359304 0.388919 -0.566036
O20   O     O_R   0.964841 0.295485 0.431538 -0.700116
H26   H     H_    0.931118 0.241457 0.420740 0.360852
C47   C     C_2   0.891471 0.377890 0.604792 0.965552
O21   O     O_2   0.836335 0.342304 0.566229 -0.553421
O22   O     O_R   0.907257 0.346839 0.678267 -0.688334
H27   H     H_    0.870280 0.294276 0.692060 0.367707
Br2   Br    Br    0.094093 0.334208 0.573478 -0.401481
C48   C     C_2   0.920698 0.646958 0.430692 0.867753
O23   O     O_2   0.862553 0.622871 0.388408 -0.589787
O24   O     O_R   0.961038 0.726093 0.417988 -0.696238
H28   H     H_    0.937946 0.755919 0.371506 0.363339
C49   C     C_2   0.643460 0.390007 0.252169 0.896451
O25   O     O_2   0.617944 0.351244 0.310912 -0.565235
O26   O     O_R   0.728226 0.371825 0.213808 -0.734308
H29   H     H_    0.762303 0.326520 0.240875 0.367371
Br3   Br    Br    0.887459 0.659150 0.587985 -0.411882
C50   C     C_2   0.094893 0.647218 0.561978 0.946511
O27   O     O_2   0.141006 0.708802 0.542104 -0.533820
O28   O     O_R   0.079659 0.628019 0.640781 -0.743423
H30   H     H_    0.110150 0.669574 0.675268 0.355827
Br4   Br    Br    0.338668 0.467095 0.034648 -0.446375

loop_
_geom_bond_atom_site_label_1
_geom_bond_atom_site_label_2
_ccdc_geom_bond_type
C32   Br3   S    
C20   C43   S    
C18   C21   S    
Cu1   Cu2   S    
C14   C18   S    
C19   C20   S    
C25   H14   S    
C50   O28   S    
O28   H30   S    
C27   H12   S    
C14   H4    S    
C25   C28   S    
C12   O4    A    
C26   C27   S    
C29   C30   S    
C41   O10   S    
C36   C37   A    
C18   C19   S    
C3    C7    A    
C30   C31   S    
C44   O16   S    
Cu2   O6    S    
C9    H16   S    
C23   O5    A    
O22   H27   S    
C14   H5    S    
C48   O24   S    
C28   C35   S    
C8    C9    D    
C1    O1    A    
C31   C50   S    
C35   N2    T    
C8    C39   S    
C12   C36   S    
C2    H19   S    
C16   C20   S    
Cu1   O7    S    
C3    H18   S    
C15   C23   S    
C25   C46   S    
C40   H17   S    
C13   C14   S    
C27   C30   S    
Cu2   O4    S    
C49   O26   S    
C23   O6    A    
C50   O27   D    
C1    O2    A    
C25   C29   S    
C38   C39   A    
C12   O3    A    
C33   N1    T    
C41   O9    D    
C17   C44   S    
C28   C32   S    
O10   H21   S    
Cu1   O3    S    
C39   C40   A    
C44   O15   D    
Cu1   O1    S    
C4    H8    S    
C37   C38   A    
C11   C16   S    
C19   H7    S    
C45   O18   S    
C31   C32   S    
C49   O25   D    
O20   H26   S    
Cu2   O8    S    
C17   C18   S    
C32   C48   S    
C11   H2    S    
C10   C34   S    
O14   H23   S    
C46   O20   S    
C20   H6    S    
C26   C47   S    
C29   H15   S    
C47   O21   D    
C43   O14   S    
C6    H1    S    
C17   C41   S    
C22   C24   T    
Cu1   N1    S    
C4    C10   A    
C3    C4    A    
C26   H11   S    
C34   O8    A    
Cu1   O5    S    
C5    C49   S    
C2    C36   A    
C7    C9    S    
C37   Br1   S    
C13   C42   S    
C11   C17   S    
C16   C22   S    
C30   C33   S    
C42   O11   D    
C26   C28   S    
O12   H22   S    
Cu2   N2    S    
C6    C7    A    
O24   H28   S    
C27   Br2   S    
C47   O22   S    
C5    C10   A    
C19   C45   S    
O26   H29   S    
C13   H3    S    
C45   O17   D    
C5    C6    A    
O18   H25   S    
C42   O12   S    
C46   O19   D    
C11   H9    S    
C8    Br4   S    
C2    C40   A    
C15   C21   T    
O16   H24   S    
C1    C24   S    
C43   O13   D    
C13   C16   S    
C48   O23   D    
Cu2   O2    S    
C31   H13   S    
C34   O7    A    
C38   H20   S    
C29   H10   S    
