data_mof_unit_8989.cif
_audit_creation_date              2012-12-10T17:31:25-0500
_audit_creation_method            fapswitch 2.2
_symmetry_space_group_name_H-M    P1
_symmetry_Int_Tables_number       1
_space_group_crystal_system       triclinic
_cell_length_a                    19.155002
_cell_length_b                    18.442759
_cell_length_c                    12.354666
_cell_angle_alpha                 90.000035
_cell_angle_beta                  128.919382
_cell_angle_gamma                 89.999396
_cell_volume                      3395.75088761

loop_
_atom_site_label
_atom_site_type_symbol
_atom_type_description
_atom_site_fract_x
_atom_site_fract_y
_atom_site_fract_z
_atom_type_partial_charge
C1    C     C_R   0.608475 0.895737 0.648590 0.795589
C2    C     C_R   0.608481 0.104263 0.648596 0.790018
C3    C     C_R   0.108483 0.395738 0.648598 0.790010
C4    C     C_R   0.108475 0.604262 0.648592 0.795617
C5    C     C_R   0.233719 0.783994 0.026430 0.086559
C6    C     C_R   0.233324 0.215524 0.025672 0.087293
C7    C     C_R   0.733321 0.284475 0.025676 0.087296
C8    C     C_R   0.733701 0.715990 0.026400 0.086557
C9    C     C_R   0.665775 0.267118 0.036538 0.157284
C10   C     C_R   0.666353 0.733586 0.037597 0.155788
C11   C     C_R   0.166390 0.766378 0.037662 0.155795
C12   C     C_R   0.165766 0.232871 0.036512 0.157294
C13   C     C_R   0.591703 0.226701 0.932768 -0.224509
C14   C     C_R   0.592237 0.773961 0.933819 -0.220134
C15   C     C_R   0.092282 0.725994 0.933902 -0.220142
C16   C     C_R   0.091690 0.273283 0.932733 -0.224512
C17   C     C_R   0.586838 0.198830 0.824056 -0.178480
C18   C     C_R   0.587122 0.801504 0.824697 -0.174179
C19   C     C_R   0.087150 0.698467 0.824757 -0.174186
C20   C     C_R   0.086834 0.301161 0.824033 -0.178488
C21   C     C_R   0.307635 0.824450 0.133630 -0.251539
C22   C     C_R   0.307331 0.175214 0.133081 -0.255099
C23   C     C_R   0.807329 0.324789 0.133079 -0.255093
C24   C     C_R   0.807627 0.675549 0.133620 -0.251531
C25   C     C_R   0.245403 0.832993 0.253816 -0.160792
C26   C     C_R   0.244759 0.166300 0.252731 -0.164904
C27   C     C_R   0.744772 0.333688 0.252756 -0.164894
C28   C     C_R   0.745369 0.666976 0.253762 -0.160802
C29   C     C_R   0.661877 0.170418 0.721889 -0.120418
C30   C     C_R   0.661866 0.829595 0.721927 -0.126799
C31   C     C_R   0.161864 0.670404 0.721931 -0.126826
C32   C     C_R   0.161888 0.329588 0.721897 -0.120412
C33   C     C_R   0.682638 0.986124 0.282199 -0.131781
C34   C     C_R   0.182630 0.513953 0.282199 -0.131874
C35   C     C_R   0.344104 0.001266 0.628266 0.657020
C36   C     C_R   0.844104 0.498727 0.628268 0.657029
C37   C     C_R   0.311189 0.003076 0.702745 -0.316872
C38   C     C_R   0.811191 0.496907 0.702748 -0.316868
C39   C     C_R   0.384511 0.098848 0.342502 0.806272
C40   C     C_R   0.384609 0.901064 0.342651 0.804634
C41   C     C_R   0.884606 0.598934 0.342647 0.804614
C42   C     C_R   0.884513 0.401151 0.342504 0.806267
C43   C     C_R   0.369876 0.003357 0.847416 -0.251209
C44   C     C_R   0.869878 0.496627 0.847419 -0.251211
C45   C     C_R   0.463114 0.001538 0.921671 0.030221
C46   C     C_R   0.963116 0.498456 0.921673 0.030217
C47   C     C_R   0.494103 0.999968 0.841892 0.205607
C48   C     C_R   0.994104 0.500035 0.841893 0.205601
C49   C     C_R   0.526698 0.000048 0.071708 -0.024968
C50   C     C_R   0.026699 0.499954 0.071710 -0.024967
C51   C     C_R   0.619223 0.993351 0.137070 0.029639
C52   C     C_R   0.119221 0.506690 0.137073 0.029674
C53   C     C_R   0.647422 0.993670 0.056710 -0.242867
C54   C     C_R   0.147422 0.506370 0.056715 -0.242852
C55   C     C_R   0.586708 0.998139 0.913861 -0.152932
C56   C     C_R   0.086711 0.501874 0.913867 -0.152951
C57   C     C_R   0.502782 0.004209 0.160224 -0.072853
C58   C     C_R   0.002785 0.495770 0.160226 -0.072856
C59   C     C_R   0.655125 0.989311 0.363038 0.529645
C60   C     C_R   0.155114 0.510744 0.363036 0.529601
C61   C     C_R   0.672083 0.291631 0.149807 -0.194742
C62   C     C_R   0.672826 0.709247 0.151099 -0.190110
C63   C     C_R   0.172874 0.790707 0.151177 -0.190099
C64   C     C_R   0.172066 0.208351 0.149772 -0.194742
C65   C     C_R   0.312587 0.850605 0.244519 -0.054284
C66   C     C_R   0.312242 0.149040 0.243943 -0.054240
C67   C     C_R   0.812245 0.350958 0.243950 -0.054236
C68   C     C_R   0.812573 0.649385 0.244498 -0.054287
C69   C     C_R   0.719907 0.195628 0.697192 -0.227169
C70   C     C_R   0.719759 0.804242 0.697043 -0.212551
C71   C     C_R   0.219742 0.695768 0.697027 -0.212529
C72   C     C_R   0.219929 0.304388 0.697214 -0.227192
C73   C     C_R   0.276038 0.754547 0.770966 0.038645
C74   C     C_R   0.276152 0.245546 0.770950 0.047350
C75   C     C_R   0.776119 0.254477 0.770916 0.047333
C76   C     C_R   0.776059 0.745464 0.770985 0.038665
C77   C     C_R   0.282113 0.784046 0.880536 -0.229628
C78   C     C_R   0.282045 0.215829 0.880227 -0.231477
C79   C     C_R   0.782015 0.284191 0.880196 -0.231478
C80   C     C_R   0.782122 0.715956 0.880541 -0.229636
C81   C     C_R   0.725979 0.259023 0.910216 0.069013
C82   C     C_R   0.726204 0.741257 0.910706 0.070974
C83   C     C_R   0.226209 0.758735 0.910722 0.070980
C84   C     C_R   0.225993 0.240984 0.910225 0.069012
C85   C     C_R   0.657796 0.208243 0.818406 0.072414
C86   C     C_R   0.657960 0.791963 0.818788 0.071242
C87   C     C_R   0.157970 0.708026 0.818813 0.071245
C88   C     C_R   0.157803 0.291759 0.818406 0.072417
Cu1   Cu    Cu3+1 0.526340 1.000000 0.421010 0.941792
Cu2   Cu    Cu3+1 0.026340 0.500000 0.421010 0.941827
Cu3   Cu    Cu3+1 0.473640 1.000000 0.578990 0.975000
Cu4   Cu    Cu3+1 0.973640 0.500000 0.578990 0.975005
H1    H     H_    0.248032 0.852878 0.338807 0.183437
H2    H     H_    0.247301 0.146338 0.337599 0.182919
H3    H     H_    0.747320 0.353645 0.337632 0.182923
H4    H     H_    0.747992 0.647083 0.338744 0.183434
H5    H     H_    0.717799 0.990718 0.103854 0.158668
H6    H     H_    0.217799 0.509339 0.103862 0.158674
H7    H     H_    0.433969 0.010264 0.118180 0.145596
H8    H     H_    0.933975 0.489683 0.118183 0.145590
H9    H     H_    0.340352 0.004089 0.898310 0.152350
H10   H     H_    0.840355 0.495891 0.898314 0.152348
H11   H     H_    0.239663 0.004131 0.648482 0.147183
H12   H     H_    0.739665 0.495846 0.648486 0.147177
H13   H     H_    0.616247 0.999281 0.864396 0.210037
H14   H     H_    0.116251 0.500723 0.864402 0.210034
H15   H     H_    0.537490 0.216189 0.936238 0.164476
H16   H     H_    0.538122 0.784612 0.937472 0.164231
H17   H     H_    0.038181 0.715328 0.937581 0.164227
H18   H     H_    0.037469 0.283785 0.936186 0.164469
H19   H     H_    0.620240 0.278927 0.157856 0.138224
H20   H     H_    0.621166 0.722174 0.159456 0.139594
H21   H     H_    0.121229 0.777764 0.159560 0.139594
H22   H     H_    0.120214 0.221046 0.157805 0.138227
H23   H     H_    0.362954 0.835466 0.133800 0.155411
H24   H     H_    0.362790 0.164406 0.133496 0.153129
H25   H     H_    0.862785 0.335603 0.133484 0.153121
H26   H     H_    0.862963 0.664555 0.133819 0.155411
H27   H     H_    0.720528 0.170328 0.618576 0.164810
H28   H     H_    0.720218 0.829375 0.618155 0.191867
H29   H     H_    0.220191 0.670643 0.618125 0.191937
H30   H     H_    0.220552 0.329691 0.618602 0.164752
H31   H     H_    0.327552 0.829071 0.935741 0.132267
H32   H     H_    0.327439 0.170763 0.935333 0.130388
H33   H     H_    0.827398 0.329264 0.935290 0.130384
H34   H     H_    0.827560 0.670930 0.935746 0.132275
H35   H     H_    0.524565 0.172895 0.742236 0.203755
H36   H     H_    0.524744 0.827286 0.742791 0.203984
H37   H     H_    0.024770 0.672684 0.742863 0.204010
H38   H     H_    0.024561 0.327094 0.742204 0.203737
N1    N     N_R   0.566260 0.000000 0.302220 -0.229543
N2    N     N_R   0.066260 0.500000 0.302220 -0.229513
N3    N     N_R   0.434410 1.000000 0.697680 -0.219544
N4    N     N_R   0.934410 0.500000 0.697680 -0.219542
O1    O     O_R   0.608610 0.924520 0.551740 -0.565777
O2    O     O_R   0.608610 0.075480 0.551740 -0.606183
O3    O     O_R   0.108610 0.424520 0.551740 -0.606196
O4    O     O_R   0.108610 0.575480 0.551740 -0.565580
O5    O     O_R   0.564110 0.924510 0.685150 -0.618138
O6    O     O_R   0.564110 0.075490 0.685150 -0.614013
O7    O     O_R   0.064110 0.424510 0.685150 -0.614003
O8    O     O_R   0.064110 0.575490 0.685150 -0.618171
O9    O     O_R   0.435880 0.075470 0.314850 -0.598382
O10   O     O_R   0.435880 0.924530 0.314850 -0.594067
O11   O     O_R   0.935880 0.575470 0.314850 -0.594054
O12   O     O_R   0.935880 0.424530 0.314850 -0.598395
O13   O     O_R   0.391380 0.075460 0.448260 -0.536226
O14   O     O_R   0.391380 0.924540 0.448260 -0.536678
O15   O     O_R   0.891380 0.575460 0.448260 -0.536681
O16   O     O_R   0.891380 0.424540 0.448260 -0.536225
C89   C     C_1   0.777238 0.974943 0.351664 0.312951
N5    N     N_1   0.852646 0.965990 0.407141 -0.274414
C90   C     C_1   0.277220 0.525195 0.351662 0.312875
N6    N     N_1   0.352622 0.534197 0.407137 -0.274411
O17   O     O_3   0.286234 0.000828 0.484861 -0.714789
H39   H     H_    0.223485 0.001939 0.450409 0.288495
O18   O     O_3   0.786234 0.499166 0.484862 -0.714795
H40   H     H_    0.723485 0.498048 0.450411 0.288491
C91   C     C_1   0.326740 0.785417 0.732493 0.223089
N7    N     N_1   0.366566 0.810565 0.700234 -0.314962
C92   C     C_1   0.326904 0.214837 0.732455 0.214154
N8    N     N_1   0.366743 0.189842 0.700101 -0.318601
C93   C     C_1   0.826859 0.285196 0.732408 0.214163
N9    N     N_1   0.866689 0.310199 0.700046 -0.318576
C94   C     C_1   0.826772 0.714601 0.732527 0.223097
N10   N     N_1   0.866608 0.689459 0.700279 -0.314966
O19   O     O_3   0.720109 0.978129 0.503790 -0.744050
H41   H     H_    0.704278 0.005736 0.553099 0.366852
O20   O     O_3   0.220072 0.521978 0.503778 -0.743847
H42   H     H_    0.204319 0.494221 0.553090 0.366652

loop_
_geom_bond_atom_site_label_1
_geom_bond_atom_site_label_2
_ccdc_geom_bond_type
C26   H2    S    
C83   C87   A    
C25   H1    S    
C94   N10   T    
Cu1   O1    S    
O20   H42   S    
C14   C18   A    
C27   H3    S    
C93   N9    T    
C3    O7    A    
C48   C56   A    
C13   H15   S    
C35   N3    A    
Cu3   O13   S    
C92   N8    T    
C16   H18   S    
C32   C72   A    
C15   C19   A    
C59   N1    A    
C18   C86   A    
C55   H13   S    
C2    C29   S    
C9    C61   A    
C60   O20   S    
C48   N4    A    
C28   C68   A    
C35   O17   S    
C5    C11   A    
Cu2   O11   S    
C19   C87   A    
C4    O8    A    
C12   C64   A    
C9    C13   A    
C41   O15   A    
C77   C83   A    
C6    C22   A    
C71   C73   A    
C49   C57   A    
C75   C93   S    
C25   C63   A    
C23   C67   A    
C29   C69   A    
C26   C64   A    
C22   C66   A    
C38   H12   S    
C27   C61   A    
C18   H36   S    
C11   C15   A    
O18   H40   S    
C12   C16   A    
C44   C46   A    
C22   H24   S    
C49   C51   A    
C70   H28   S    
C50   C52   A    
C89   N5    T    
C3    O3    A    
C30   C86   A    
C78   H32   S    
C30   C70   A    
C29   C85   A    
C1    O5    A    
C21   H23   S    
Cu2   N2    S    
C62   H20   S    
C45   C47   A    
C79   H33   S    
C33   C59   A    
Cu1   O2    S    
C47   N3    A    
C34   C60   A    
C60   N2    A    
C10   C62   A    
C6    C12   A    
C21   C65   A    
Cu3   O14   S    
Cu2   O4    S    
C52   C54   A    
C41   C68   S    
C46   C48   A    
C53   C55   A    
C54   C56   A    
C14   H16   S    
C31   C87   A    
C40   O14   A    
C26   C66   A    
C84   C88   A    
C6    C84   A    
C72   C74   A    
C10   C14   A    
C58   N2    A    
O19   H41   S    
C79   C81   A    
C44   H10   S    
C17   H35   S    
C53   H5    S    
Cu1   O9    S    
C69   H27   S    
C2    O2    A    
C51   C53   A    
C5    C21   A    
C50   C58   A    
C37   C43   A    
C43   H9    S    
C38   C44   A    
C77   H31   S    
C78   C84   A    
Cu2   Cu4   S    
C91   N7    T    
Cu3   N3    S    
C45   C49   A    
C16   C20   A    
C58   H8    S    
C76   C94   S    
Cu4   O7    S    
C43   C45   A    
C56   H14   S    
C36   O18   S    
Cu3   O5    S    
C80   C82   A    
C7    C81   A    
C39   O9    A    
C40   C65   S    
C40   O10   A    
Cu4   O16   S    
C42   C67   S    
C39   C66   S    
C17   C85   A    
C32   C88   A    
Cu1   Cu3   S    
C42   O12   A    
O17   H39   S    
Cu2   O3    S    
Cu4   O8    S    
C35   C37   A    
C47   C55   A    
C34   C90   S    
C19   H37   S    
C7    C9    A    
C46   C50   A    
C33   C89   S    
C72   H30   S    
C24   H26   S    
C57   N1    A    
Cu4   N4    S    
C76   C80   A    
C20   H38   S    
C36   N4    A    
C23   H25   S    
C74   C92   S    
C37   H11   S    
C5    C83   A    
C33   C51   A    
Cu1   O10   S    
C73   C91   S    
C34   C52   A    
Cu1   N1    S    
C13   C17   A    
C28   H4    S    
C2    O6    A    
C36   C38   A    
Cu2   O12   S    
C82   C86   A    
C70   C76   A    
C15   H17   S    
C80   H34   S    
C61   H19   S    
C7    C23   A    
C20   C88   A    
C59   O19   S    
C31   C71   A    
C1    C30   S    
C8    C24   A    
C69   C75   A    
C3    C32   S    
C42   O16   A    
C4    C31   S    
C27   C67   A    
C24   C68   A    
C4    O4    A    
Cu3   O6    S    
C63   H21   S    
C71   H29   S    
C8    C82   A    
C41   O11   A    
C64   H22   S    
C8    C10   A    
C74   C78   A    
C39   O13   A    
Cu4   O15   S    
C25   C65   A    
C73   C77   A    
C54   H6    S    
C90   N6    T    
C1    O1    A    
C11   C63   A    
C75   C79   A    
C81   C85   A    
C28   C62   A    
C57   H7    S    
