data_mof_unit_43253.cif
_audit_creation_date              2012-12-11T14:44:05-0500
_audit_creation_method            fapswitch 2.2
_symmetry_space_group_name_H-M    P1
_symmetry_Int_Tables_number       1
_space_group_crystal_system       triclinic
_cell_length_a                    19.105825
_cell_length_b                    10.963559
_cell_length_c                    18.875901
_cell_angle_alpha                 90.031527
_cell_angle_beta                  90.184478
_cell_angle_gamma                 90.428338
_cell_volume                      3953.76256798

loop_
_atom_site_label
_atom_site_type_symbol
_atom_type_description
_atom_site_fract_x
_atom_site_fract_y
_atom_site_fract_z
_atom_type_partial_charge
C1    C     C_R   0.729423 0.375919 0.145662 0.552554
C2    C     C_R   0.269081 0.380945 0.852297 0.566859
C3    C     C_R   0.229140 0.875400 0.145471 0.611566
C4    C     C_R   0.769079 0.880913 0.852307 0.566619
C5    C     C_R   0.517633 0.392729 0.930411 0.075581
C6    C     C_R   0.482843 0.387552 0.075414 0.053458
C7    C     C_R   0.017544 0.892427 0.930745 0.075309
C8    C     C_R   0.982682 0.887936 0.075757 0.055965
C9    C     C_R   0.015713 0.002108 0.970596 0.279629
C10   C     C_R   0.000384 0.999560 0.042711 0.280674
C11   C     C_R   0.515700 0.502261 0.970395 0.279477
C12   C     C_R   0.500401 0.499375 0.042518 0.282894
C13   C     C_R   0.688965 0.896498 0.031407 0.040649
C14   C     C_R   0.285415 0.022455 0.976221 0.071648
C15   C     C_R   0.188530 0.397377 0.031222 0.030078
C16   C     C_R   0.785990 0.522114 0.976065 0.106643
C17   C     C_R   0.693462 0.877279 0.958660 0.072202
C18   C     C_R   0.278610 0.000091 0.048976 0.044156
C19   C     C_R   0.193234 0.377903 0.958508 0.071253
C20   C     C_R   0.780484 0.499324 0.048544 0.043166
C21   C     C_R   0.746899 0.934486 0.919448 0.004030
C22   C     C_R   0.240704 0.898339 0.070755 0.071692
C23   C     C_R   0.246916 0.434633 0.919420 0.003537
C24   C     C_R   0.741323 0.398780 0.070932 0.037530
C25   C     C_R   0.788524 0.027072 0.951140 0.046948
C26   C     C_R   0.206588 0.821276 0.021220 0.086392
C27   C     C_R   0.288670 0.526981 0.951186 0.046590
C28   C     C_R   0.706779 0.321967 0.021507 0.101137
C29   C     C_R   0.782728 0.049596 0.023143 0.107678
C30   C     C_R   0.214042 0.841464 0.948352 0.069098
C31   C     C_R   0.282809 0.549531 0.023177 0.106206
C32   C     C_R   0.714065 0.341836 0.948572 0.068201
C33   C     C_R   0.734432 0.982490 0.064489 0.031318
C34   C     C_R   0.254774 0.941202 0.926706 0.058711
C35   C     C_R   0.234309 0.482739 0.064449 0.023923
C36   C     C_R   0.754820 0.441354 0.926698 0.049043
C37   C     C_R   0.542937 0.075503 0.473017 -0.151220
C38   C     C_R   0.530767 0.079644 0.544661 -0.180301
C39   C     C_R   0.046726 0.578615 0.473994 -0.153567
C40   C     C_R   0.034569 0.582827 0.545799 -0.181684
C41   C     C_R   0.489317 0.171504 0.572526 0.029089
C42   C     C_R   0.512237 0.161054 0.427289 0.056652
C43   C     C_R   0.991230 0.672428 0.573287 0.030791
C44   C     C_R   0.014313 0.661884 0.428038 0.049310
C45   C     C_R   0.529788 0.155156 0.147397 0.572474
C46   C     C_R   0.469111 0.156091 0.853323 0.587756
C47   C     C_R   0.029515 0.655193 0.147585 0.565617
C48   C     C_R   0.968965 0.656048 0.853479 0.586487
C49   C     C_R   0.461501 0.263861 0.527730 0.120425
C50   C     C_R   0.470357 0.254699 0.454041 0.103045
C51   C     C_R   0.962604 0.763554 0.528245 0.122897
C52   C     C_R   0.971609 0.754411 0.454625 0.102627
C53   C     C_R   0.784794 0.030435 0.476156 0.102352
C54   C     C_R   0.184866 0.912214 0.546463 0.046842
C55   C     C_R   0.284320 0.534559 0.477089 0.112628
C56   C     C_R   0.687392 0.408611 0.545806 0.044217
C57   C     C_R   0.778835 0.023616 0.549366 0.210335
C58   C     C_R   0.175880 0.901690 0.473330 0.250998
C59   C     C_R   0.277112 0.527121 0.550581 0.223927
C60   C     C_R   0.678024 0.397118 0.472865 0.249081
C61   C     C_R   0.746731 0.920983 0.579089 -0.044975
C62   C     C_R   0.235619 0.897043 0.429124 0.038551
C63   C     C_R   0.246133 0.422610 0.579568 -0.048904
C64   C     C_R   0.736853 0.403979 0.427499 0.023181
C65   C     C_R   0.709224 0.838503 0.536018 -0.114141
C66   C     C_R   0.302563 0.904750 0.456980 -0.183254
C67   C     C_R   0.209381 0.339938 0.536184 -0.115409
C68   C     C_R   0.803013 0.429338 0.453751 -0.210626
C69   C     C_R   0.709728 0.849555 0.462762 0.175974
C70   C     C_R   0.311958 0.919082 0.529548 0.212676
C71   C     C_R   0.210032 0.351712 0.463129 0.175601
C72   C     C_R   0.812689 0.442073 0.526507 0.205869
C73   C     C_R   0.747991 0.946417 0.431838 0.014841
C74   C     C_R   0.252305 0.926638 0.573841 0.092429
C75   C     C_R   0.247823 0.449407 0.432561 0.002160
C76   C     C_R   0.753992 0.434330 0.572083 0.090948
C77   C     C_R   0.729138 0.013467 0.139803 0.611628
C78   C     C_R   0.259692 0.973263 0.853098 0.566792
C79   C     C_R   0.229095 0.513585 0.139804 0.609641
C80   C     C_R   0.759681 0.473265 0.853089 0.562704
C81   C     C_R   0.727564 0.375480 0.353521 0.576014
C82   C     C_R   0.268979 0.380256 0.648804 0.543844
C83   C     C_R   0.226492 0.872329 0.354626 0.585292
C84   C     C_R   0.769109 0.879867 0.648645 0.546234
C85   C     C_R   0.533306 0.156206 0.353827 0.561156
C86   C     C_R   0.465460 0.158150 0.645259 0.577861
C87   C     C_R   0.033999 0.656250 0.354223 0.554682
C88   C     C_R   0.966252 0.658315 0.645677 0.585375
C89   C     C_R   0.740563 0.976190 0.356498 0.554332
C90   C     C_R   0.259603 0.972933 0.645239 0.599841
C91   C     C_R   0.240289 0.477820 0.356997 0.554663
C92   C     C_R   0.760141 0.475132 0.644550 0.607966
C93   C     C_R   0.498617 0.165810 0.925812 0.039051
C94   C     C_R   0.498698 0.163260 0.075293 0.005169
C95   C     C_R   0.997918 0.665603 0.926276 0.035431
C96   C     C_R   0.997486 0.663465 0.075851 0.033710
C97   C     C_R   0.502590 0.278851 0.963739 0.002416
C98   C     C_R   0.492923 0.276581 0.038631 -0.033142
C99   C     C_R   0.002152 0.778726 0.964140 -0.001187
C100  C     C_R   0.992353 0.776759 0.039046 -0.023915
C101  C     C_R   0.498489 0.054743 0.036411 -0.182968
C102  C     C_R   0.500211 0.055915 0.963681 -0.169787
C103  C     C_R   0.996295 0.554854 0.037117 -0.163406
C104  C     C_R   0.998573 0.555775 0.964349 -0.171536
Cr1   Cr    Cr6+3 0.772000 0.169640 0.250110 1.048245
Cr2   Cr    Cr6+3 0.228000 0.169640 0.749890 1.040487
Cr3   Cr    Cr6+3 0.272000 0.669640 0.250110 1.048852
Cr4   Cr    Cr6+3 0.728000 0.669640 0.749890 1.040843
Cr5   Cr    Cr6+3 0.614960 0.323350 0.249260 1.038485
Cr6   Cr    Cr6+3 0.385040 0.323350 0.750740 1.032603
Cr7   Cr    Cr6+3 0.114960 0.823350 0.249260 1.044867
Cr8   Cr    Cr6+3 0.885040 0.823350 0.750740 1.033121
Cr9   Cr    Cr6+3 0.616670 0.010620 0.250840 1.030040
Cr10  Cr    Cr6+3 0.383330 0.010620 0.749160 1.078137
Cr11  Cr    Cr6+3 0.116670 0.510620 0.250840 1.031768
Cr12  Cr    Cr6+3 0.883330 0.510620 0.749160 1.075897
H1    H     H_    0.499345 0.966825 0.062355 0.169360
H2    H     H_    0.497963 0.968409 0.937117 0.167622
H3    H     H_    0.996532 0.467030 0.063220 0.164986
H4    H     H_    0.995949 0.468197 0.937890 0.167163
H5    H     H_    0.684242 0.758487 0.558630 0.177863
H6    H     H_    0.347440 0.899546 0.422104 0.121636
H7    H     H_    0.185012 0.259021 0.558408 0.178496
H8    H     H_    0.847178 0.434612 0.417910 0.118541
H9    H     H_    0.577087 0.004748 0.453317 0.167938
H10   H     H_    0.552849 0.009598 0.578328 0.143340
H11   H     H_    0.081680 0.509167 0.454212 0.168632
H12   H     H_    0.057467 0.513974 0.579723 0.142440
O1    O     O_R   0.787540 0.042690 0.170470 -0.499436
O2    O     O_R   0.212460 0.042690 0.829530 -0.518772
O3    O     O_R   0.287540 0.542690 0.170470 -0.500390
O4    O     O_R   0.712460 0.542690 0.829530 -0.518832
O5    O     O_R   0.556540 0.252920 0.323970 -0.469089
O6    O     O_R   0.443460 0.252920 0.676030 -0.488451
O7    O     O_R   0.056540 0.752920 0.323970 -0.472132
O8    O     O_R   0.943460 0.752920 0.676030 -0.487636
O9    O     O_R   0.545870 0.051100 0.330840 -0.523819
O10   O     O_R   0.454130 0.051100 0.669160 -0.479352
O11   O     O_R   0.045870 0.551100 0.330840 -0.523044
O12   O     O_R   0.954130 0.551100 0.669160 -0.475519
O13   O     O_R   0.681340 0.959300 0.325510 -0.498882
O14   O     O_R   0.318660 0.959300 0.674490 -0.446518
O15   O     O_R   0.181340 0.459300 0.325510 -0.492387
O16   O     O_R   0.818660 0.459300 0.674490 -0.450605
O17   O     O_3   0.667880 0.167870 0.250070 -0.275891
O18   O     O_3   0.332120 0.167870 0.749930 -0.263232
O19   O     O_3   0.167880 0.667870 0.250070 -0.282068
O20   O     O_3   0.832120 0.667870 0.749930 -0.262537
O21   O     O_R   0.765660 0.292160 0.175050 -0.485802
O22   O     O_R   0.234340 0.292160 0.824950 -0.453953
O23   O     O_R   0.265660 0.792160 0.175050 -0.484118
O24   O     O_R   0.734340 0.792160 0.824950 -0.454779
O25   O     O_R   0.670190 0.408980 0.168550 -0.524566
O26   O     O_R   0.329810 0.408980 0.831450 -0.543183
O27   O     O_R   0.170190 0.908980 0.168550 -0.520102
O28   O     O_R   0.829810 0.908980 0.831450 -0.543225
O29   O     O_R   0.556580 0.251450 0.175160 -0.495579
O30   O     O_R   0.443420 0.251450 0.824840 -0.478034
O31   O     O_R   0.056580 0.751450 0.175160 -0.499493
O32   O     O_R   0.943420 0.751450 0.824840 -0.478579
O33   O     O_R   0.545920 0.049510 0.170320 -0.536706
O34   O     O_R   0.454080 0.049510 0.829680 -0.523945
O35   O     O_R   0.045920 0.549510 0.170320 -0.541055
O36   O     O_R   0.954080 0.549510 0.829680 -0.525464
O37   O     O_R   0.681390 0.957840 0.176710 -0.528696
O38   O     O_R   0.318610 0.957840 0.823290 -0.493134
O39   O     O_R   0.181390 0.457840 0.176710 -0.524765
O40   O     O_R   0.818610 0.457840 0.823290 -0.494517
O41   O     O_R   0.787500 0.044280 0.330990 -0.471375
O42   O     O_R   0.212500 0.044280 0.669010 -0.509997
O43   O     O_R   0.287500 0.544280 0.330990 -0.492469
O44   O     O_R   0.712500 0.544280 0.669010 -0.511445
O45   O     O_R   0.765610 0.293630 0.323860 -0.506591
O46   O     O_R   0.234390 0.293630 0.676140 -0.522358
O47   O     O_R   0.265610 0.793630 0.323860 -0.502092
O48   O     O_R   0.734390 0.793630 0.676140 -0.522673
O49   O     O_R   0.670140 0.410570 0.329080 -0.454944
O50   O     O_R   0.329860 0.410570 0.670920 -0.472339
O51   O     O_R   0.170140 0.910570 0.329080 -0.452314
O52   O     O_R   0.829860 0.910570 0.670920 -0.472613
N1    N     N_3   0.829510 0.123134 0.447228 -0.551225
H13   H     H_    0.880629 0.108295 0.464915 0.250363
H14   H     H_    0.813412 0.205733 0.467944 0.263270
N2    N     N_3   0.126414 0.905398 0.594014 -0.624994
H15   H     H_    0.099179 0.824407 0.584293 0.235638
H16   H     H_    0.093691 0.980019 0.585650 0.231028
N3    N     N_3   0.330699 0.625582 0.447580 -0.570291
H17   H     H_    0.373257 0.579440 0.425861 0.239618
H18   H     H_    0.353006 0.681262 0.486439 0.279907
N4    N     N_3   0.630489 0.389599 0.594229 -0.626585
H19   H     H_    0.608028 0.304398 0.583931 0.239020
H20   H     H_    0.593275 0.457884 0.587084 0.229412
O53   O     O_3   0.809794 0.114014 0.590177 -0.692433
H21   H     H_    0.786571 0.115486 0.637064 0.329979
O54   O     O_3   0.109813 0.891415 0.443946 -0.671455
H22   H     H_    0.075176 0.930488 0.475182 0.321741
O55   O     O_3   0.305449 0.618097 0.592872 -0.689857
H23   H     H_    0.281891 0.616210 0.639593 0.327849
O56   O     O_3   0.612471 0.374849 0.444876 -0.672470
H24   H     H_    0.577153 0.415206 0.474807 0.321205
O57   O     O_3   0.675635 0.760348 0.423871 -0.689671
H25   H     H_    0.696783 0.756067 0.376140 0.335230
O58   O     O_3   0.378660 0.928564 0.557606 -0.651591
H26   H     H_    0.413613 0.917748 0.519432 0.320736
O59   O     O_3   0.176747 0.261955 0.423942 -0.685585
H27   H     H_    0.198849 0.257108 0.376675 0.337844
O60   O     O_3   0.878717 0.462906 0.553742 -0.652941
H28   H     H_    0.913489 0.456484 0.515096 0.325678
N5    N     N_3   0.543725 0.395607 0.859141 -0.593936
H29   H     H_    0.591989 0.440775 0.858970 0.260439
H30   H     H_    0.509237 0.445517 0.827510 0.224676
N6    N     N_3   0.447104 0.385639 0.142342 -0.621432
H31   H     H_    0.401439 0.436504 0.137311 0.252815
H32   H     H_    0.478317 0.425497 0.181677 0.237168
N7    N     N_3   0.043849 0.894975 0.859552 -0.593360
H33   H     H_    0.092143 0.940045 0.859476 0.260514
H34   H     H_    0.009514 0.944905 0.827761 0.224780
N8    N     N_3   0.947268 0.886458 0.142865 -0.612069
H35   H     H_    0.901734 0.937724 0.138038 0.255316
H36   H     H_    0.978803 0.926140 0.182001 0.235534
O61   O     O_3   0.027784 0.115598 0.941076 -0.679554
H37   H     H_    0.029220 0.110485 0.888915 0.308704
O62   O     O_3   0.002674 0.109767 0.078507 -0.661472
H38   H     H_    0.996210 0.096884 0.129804 0.311480
O63   O     O_3   0.527583 0.615905 0.941003 -0.679895
H39   H     H_    0.529136 0.610948 0.888841 0.308864
O64   O     O_3   0.502600 0.609419 0.078481 -0.661867
H40   H     H_    0.496369 0.596214 0.129781 0.311304
N9    N     N_3   0.640935 0.820380 0.069984 -0.584562
H41   H     H_    0.602378 0.873553 0.093322 0.276285
H42   H     H_    0.668268 0.770205 0.108003 0.256059
N10   N     N_3   0.319678 0.131225 0.951793 -0.590799
H43   H     H_    0.292104 0.205784 0.971013 0.227286
H44   H     H_    0.369185 0.135174 0.974581 0.232488
N11   N     N_3   0.139678 0.322535 0.069576 -0.585467
H45   H     H_    0.101514 0.376817 0.092704 0.277461
H46   H     H_    0.166336 0.271588 0.107732 0.259901
N12   N     N_3   0.819372 0.631911 0.952048 -0.577939
H47   H     H_    0.791889 0.705160 0.973127 0.244060
H48   H     H_    0.868989 0.635814 0.974583 0.254336
N13   N     N_3   0.646014 0.792927 0.925345 -0.559944
H49   H     H_    0.652884 0.707084 0.948362 0.298235
H50   H     H_    0.594976 0.822211 0.934779 0.275223
N14   N     N_3   0.307513 0.081660 0.101084 -0.632870
H51   H     H_    0.287339 0.168865 0.092880 0.238558
H52   H     H_    0.361692 0.085132 0.094810 0.245184
N15   N     N_3   0.145688 0.293835 0.925097 -0.559249
H53   H     H_    0.152327 0.208011 0.948208 0.298417
H54   H     H_    0.094673 0.323458 0.934326 0.275553
N16   N     N_3   0.812884 0.581095 0.098405 -0.634473
H55   H     H_    0.847409 0.531126 0.129959 0.238042
H56   H     H_    0.774011 0.617083 0.130998 0.235805
N17   N     N_3   0.835707 0.103411 0.911236 -0.627328
H57   H     H_    0.883098 0.058456 0.903748 0.274034
H58   H     H_    0.813176 0.127635 0.862742 0.240434
N18   N     N_3   0.162711 0.725239 0.047196 -0.618873
H59   H     H_    0.141856 0.670385 0.007165 0.249485
H60   H     H_    0.121042 0.770903 0.069087 0.250041
N19   N     N_3   0.336022 0.603127 0.911362 -0.626598
H61   H     H_    0.383327 0.557913 0.903864 0.273813
H62   H     H_    0.313566 0.627596 0.862874 0.240710
N20   N     N_3   0.662896 0.226132 0.047669 -0.611557
H63   H     H_    0.642079 0.170984 0.007763 0.247641
H64   H     H_    0.621272 0.272093 0.069406 0.254857
N21   N     N_3   0.828118 0.139334 0.055002 -0.554238
H65   H     H_    0.878575 0.105599 0.052171 0.271290
H66   H     H_    0.827999 0.219346 0.025202 0.262600
N22   N     N_3   0.176929 0.765086 0.898127 -0.628305
H67   H     H_    0.185247 0.791063 0.845680 0.228370
H68   H     H_    0.196070 0.676797 0.901754 0.235542
N23   N     N_3   0.328204 0.639227 0.055064 -0.554058
H69   H     H_    0.378661 0.605530 0.052179 0.271864
H70   H     H_    0.328029 0.719310 0.025327 0.262614
N24   N     N_3   0.676672 0.265512 0.898534 -0.628599
H71   H     H_    0.684856 0.291374 0.846046 0.229682
H72   H     H_    0.695735 0.177161 0.902139 0.234845
N25   N     N_3   0.425071 0.365917 0.557596 -0.551558
H73   H     H_    0.462194 0.419572 0.584212 0.229201
H74   H     H_    0.404323 0.422253 0.518657 0.262070
N26   N     N_3   0.436709 0.339880 0.407480 -0.662041
H75   H     H_    0.408384 0.291355 0.369107 0.234087
H76   H     H_    0.474654 0.393519 0.382489 0.263917
N27   N     N_3   0.925073 0.864427 0.557880 -0.548065
H77   H     H_    0.961722 0.920240 0.583674 0.228944
H78   H     H_    0.903100 0.918633 0.518739 0.265091
N28   N     N_3   0.936738 0.837899 0.407911 -0.644815
H79   H     H_    0.908635 0.787995 0.369966 0.231037
H80   H     H_    0.973920 0.892434 0.382411 0.271004

loop_
_geom_bond_atom_site_label_1
_geom_bond_atom_site_label_2
_ccdc_geom_bond_type
C58   C62   A    
C71   C75   A    
O58   H26   S    
C32   N24   S    
C69   O57   S    
C101  C102  A    
C56   C76   A    
C48   C95   S    
C55   C59   A    
N27   H78   S    
Cr5   O5    S    
C29   N21   S    
O57   H25   S    
C14   C18   A    
O62   H38   S    
C72   C76   A    
Cr5   O29   S    
C68   H8    S    
C97   C98   A    
C19   N15   S    
Cr3   O43   S    
N1    H13   S    
N14   H51   S    
C15   C19   A    
C41   C86   S    
C48   O32   A    
C37   C38   A    
C81   O49   A    
C7    C99   A    
C2    O22   A    
Cr2   O22   S    
C43   C88   S    
C6    C98   A    
C104  H4    S    
C28   N20   S    
N26   H76   S    
C5    C11   A    
Cr7   O19   S    
C16   N12   S    
N7    H34   S    
Cr9   O37   S    
N17   H57   S    
C50   N26   S    
C95   C99   A    
Cr10  O34   S    
C6    N6    S    
Cr6   O50   S    
C77   O37   A    
N23   H69   S    
C40   H12   S    
Cr11  O19   S    
C58   O54   S    
N13   H49   S    
C51   C52   A    
N2    H15   S    
C7    C9    A    
N24   H71   S    
Cr9   O17   S    
C37   C42   A    
C84   O52   A    
C9    O61   S    
C45   O33   A    
C53   C73   A    
C88   O12   A    
Cr7   O31   S    
C60   O56   S    
C54   C74   A    
C20   N16   S    
C8    C100  A    
C86   O6    A    
C40   C43   A    
C20   C24   A    
C29   C33   A    
N2    H16   S    
C25   N17   S    
N18   H60   S    
C70   C74   A    
C31   N23   S    
N4    H20   S    
N11   H45   S    
C66   H6    S    
C69   C73   A    
C79   O3    A    
C96   C100  A    
C23   C27   A    
C44   C87   S    
Cr5   O25   S    
C9    C10   A    
N20   H63   S    
C37   H9    S    
Cr6   O30   S    
Cr12  O16   S    
C63   C67   A    
Cr8   O52   S    
C47   O35   A    
C44   C52   A    
Cr10  O10   S    
C17   N13   S    
O56   H24   S    
C2    O26   A    
Cr4   O24   S    
N25   H73   S    
Cr7   O51   S    
Cr2   O42   S    
C79   O39   A    
C51   N27   S    
Cr8   O8    S    
C92   O16   A    
C45   C94   S    
C59   O55   S    
C6    C12   A    
C41   C49   A    
C38   H10   S    
N9    H41   S    
Cr10  O38   S    
C72   O60   S    
C91   O15   A    
Cr1   O21   S    
N15   H54   S    
C25   C29   A    
C4    O24   A    
N5    H29   S    
N12   H48   S    
C75   C91   S    
C78   O38   A    
C39   H11   S    
C30   C34   A    
C63   C82   S    
C27   C31   A    
O60   H28   S    
C82   O46   A    
C28   C32   A    
C45   O29   A    
N26   H75   S    
C94   C101  A    
C38   C41   A    
Cr3   O3    S    
C36   C80   S    
Cr10  O18   S    
C55   C75   A    
C39   C40   A    
N17   H58   S    
C62   C66   A    
C12   O64   S    
C47   O31   A    
N16   H55   S    
O59   H27   S    
Cr9   O33   S    
N3    H18   S    
C47   C96   S    
C17   C21   A    
Cr8   O20   S    
C57   O53   S    
C68   C72   A    
N13   H50   S    
C62   C83   S    
C81   O45   A    
C86   O10   A    
C19   C23   A    
N7    H33   S    
N4    H19   S    
C13   C33   A    
O61   H37   S    
Cr6   O26   S    
C53   N1    S    
Cr2   O2    S    
Cr3   O19   S    
C89   O13   A    
C93   C97   A    
N8    H36   S    
O64   H40   S    
C61   C65   A    
C49   N25   S    
C16   C20   A    
Cr11  O11   S    
Cr1   O17   S    
N18   H59   S    
C90   O42   A    
N10   H44   S    
O63   H39   S    
Cr2   O46   S    
C13   N9    S    
C56   N4    S    
C77   O1    A    
N22   H67   S    
C84   O48   A    
C1    O25   A    
N21   H66   S    
C80   O4    A    
C90   O14   A    
C22   C26   A    
Cr1   O41   S    
C10   O62   S    
C76   C92   S    
Cr8   O28   S    
C4    O28   A    
C42   C50   A    
C26   C30   A    
N16   H56   S    
C65   H5    S    
N25   H74   S    
N11   H46   S    
N27   H77   S    
C54   C58   A    
C54   N2    S    
C59   C63   A    
Cr6   O6    S    
C30   N22   S    
C3    O27   A    
Cr11  O39   S    
N19   H61   S    
C64   C68   A    
Cr10  O14   S    
C103  C104  A    
C27   N19   S    
C11   O63   S    
N15   H53   S    
C87   O7    A    
Cr12  O20   S    
N21   H65   S    
C85   O9    A    
C18   N14   S    
C70   O58   S    
N23   H70   S    
C21   C25   A    
N12   H47   S    
C52   N28   S    
C53   C57   A    
Cr8   O32   S    
N22   H68   S    
C14   N10   S    
Cr12  O36   S    
C103  H3    S    
C24   C28   A    
C87   O11   A    
C1    O21   A    
N19   H62   S    
C61   C84   S    
C102  H2    S    
C93   C102  A    
C14   C34   A    
Cr1   O1    S    
C55   N3    S    
C32   C36   A    
C57   C61   A    
C39   C44   A    
C48   O36   A    
Cr5   O17   S    
C91   O43   A    
C73   C89   S    
C5    N5    S    
C15   C35   A    
C66   C70   A    
C3    O23   A    
C83   O51   A    
Cr2   O18   S    
C99   C100  A    
C13   C17   A    
C33   C77   S    
C60   C64   A    
Cr9   O9    S    
C101  H1    S    
C74   C90   S    
C18   C22   A    
C78   O2    A    
Cr3   O23   S    
C67   H7    S    
N9    H42   S    
C26   N18   S    
O53   H21   S    
C16   C36   A    
C95   C104  A    
N28   H80   S    
C4    C21   S    
C43   C51   A    
N8    H35   S    
N28   H79   S    
C46   C93   S    
Cr3   O47   S    
C92   O44   A    
Cr4   O44   S    
C65   C69   A    
Cr4   O48   S    
C31   C35   A    
C35   C79   S    
N10   H43   S    
N5    H30   S    
C42   C85   S    
N14   H52   S    
C83   O47   A    
C5    C97   A    
C67   C71   A    
Cr9   O13   S    
Cr11  O15   S    
Cr11  O35   S    
O55   H23   S    
Cr7   O7    S    
C7    N7    S    
C64   C81   S    
Cr4   O4    S    
C8    N8    S    
C88   O8    A    
N6    H32   S    
C89   O41   A    
O54   H22   S    
C56   C60   A    
C71   O59   S    
N20   H64   S    
N6    H31   S    
N3    H17   S    
C1    C24   S    
C8    C10   A    
C49   C50   A    
C46   O34   A    
C96   C103  A    
C15   N11   S    
C2    C23   S    
Cr5   O49   S    
C94   C98   A    
N1    H14   S    
Cr12  O40   S    
C3    C22   S    
Cr1   O45   S    
Cr4   O20   S    
Cr6   O18   S    
Cr7   O27   S    
C82   O50   A    
C80   O40   A    
C34   C78   S    
C11   C12   A    
C85   O5    A    
Cr12  O12   S    
N24   H72   S    
C46   O30   A    
