data_mof_unit_6761.cif
_audit_creation_date              2012-12-10T19:24:03-0500
_audit_creation_method            fapswitch 2.2
_symmetry_space_group_name_H-M    P1
_symmetry_Int_Tables_number       1
_space_group_crystal_system       triclinic
_cell_length_a                    10.525617
_cell_length_b                    10.496607
_cell_length_c                    9.761799
_cell_angle_alpha                 90.144662
_cell_angle_beta                  90.279049
_cell_angle_gamma                 90.398041
_cell_volume                      1078.47307934

loop_
_atom_site_label
_atom_site_type_symbol
_atom_type_description
_atom_site_fract_x
_atom_site_fract_y
_atom_site_fract_z
_atom_type_partial_charge
C1    C     C_R   0.499644 0.257494 0.499668 0.874736
C2    C     C_R   0.500355 0.742506 0.500332 0.874750
C3    C     C_3   0.491702 0.959808 0.630351 -0.148260
C4    C     C_3   0.508295 0.040193 0.369650 -0.148265
C5    C     C_3   0.437783 0.402992 0.048072 -0.077568
C6    C     C_3   0.562217 0.597008 0.951928 -0.077572
C7    C     C_3   0.552251 0.398051 0.951299 -0.078967
C8    C     C_3   0.447749 0.601948 0.048701 -0.078973
C9    C     C_3   0.385430 0.504966 0.950951 -0.056181
C10   C     C_3   0.614570 0.495034 0.049049 -0.056190
C11   C     C_R   0.257896 0.495414 0.499584 0.930882
C12   C     C_R   0.742105 0.504583 0.500416 0.930897
C13   C     C_3   0.037644 0.410169 0.587933 -0.005658
C14   C     C_3   0.962356 0.589824 0.412065 -0.005662
C15   C     C_3   0.951068 0.385718 0.462173 -0.301231
C16   C     C_3   0.048932 0.614275 0.537826 -0.301227
C17   C     C_3   0.876685 0.505969 0.501038 -0.097287
C18   C     C_3   0.123315 0.494024 0.498961 -0.097284
C19   C     C_3   0.961870 0.529161 0.626399 0.178055
C20   C     C_3   0.038130 0.470832 0.373600 0.178051
C21   C     C_3   0.599946 0.043611 0.572878 -0.186607
C22   C     C_3   0.400052 0.956389 0.427122 -0.186610
C23   C     C_3   0.608657 0.958780 0.443936 -0.169030
C24   C     C_3   0.391340 0.041221 0.556064 -0.169032
C25   C     C_3   0.500430 0.877639 0.501186 0.032211
C26   C     C_3   0.499567 0.122361 0.498814 0.032211
H1    H     H_    0.908159 0.293013 0.431125 0.161300
H2    H     H_    0.091840 0.706981 0.568874 0.161293
H3    H     H_    0.697755 0.921831 0.399288 0.167375
H4    H     H_    0.302243 0.078173 0.600714 0.167366
H5    H     H_    0.681263 0.083915 0.631963 0.156881
H6    H     H_    0.318735 0.916085 0.368037 0.156874
H7    H     H_    0.484993 0.923194 0.736713 0.143996
H8    H     H_    0.515005 0.076806 0.263288 0.143996
H9    H     H_    0.596364 0.312282 0.905390 0.133690
H10   H     H_    0.403636 0.687718 0.094609 0.133692
H11   H     H_    0.385223 0.321447 0.093476 0.122797
H12   H     H_    0.614777 0.678553 0.906524 0.122798
H13   H     H_    0.288789 0.509078 0.905125 0.147131
H14   H     H_    0.711211 0.490922 0.094875 0.147120
N1    N     N_3   0.499910 0.500030 0.863290 -0.073473
N2    N     N_3   0.500090 0.499970 0.136710 -0.073474
O1    O     O_R   0.500010 0.313960 0.616610 -0.598947
O2    O     O_R   0.499990 0.686040 0.383390 -0.598945
O3    O     O_R   0.500060 0.313950 0.383350 -0.641252
O4    O     O_R   0.499940 0.686050 0.616650 -0.641251
O5    O     O_R   0.313930 0.499970 0.616610 -0.589763
O6    O     O_R   0.686070 0.500030 0.383390 -0.589769
O7    O     O_R   0.313980 0.499960 0.383350 -0.625079
O8    O     O_R   0.686020 0.500040 0.616650 -0.625078
Zn1   Zn    Zn3+2 0.499970 0.500010 0.655740 0.961620
Zn2   Zn    Zn3+2 0.500030 0.499990 0.344260 0.961616
C27   C     C_2   0.073903 0.308362 0.688276 0.881678
O9    O     O_2   0.990485 0.247751 0.746125 -0.643686
O10   O     O_R   0.201526 0.283842 0.716508 -0.816880
H15   H     H_    0.212936 0.215407 0.788542 0.329214
C28   C     C_2   0.926094 0.691626 0.311717 0.881690
O11   O     O_2   0.009512 0.752210 0.253834 -0.643684
O12   O     O_R   0.798470 0.716169 0.283519 -0.816890
H16   H     H_    0.787053 0.784595 0.211478 0.329215
C29   C     C_3   0.920522 0.564766 0.770866 -0.838694
H17   H     H_    0.005700 0.579480 0.836639 0.231864
H18   H     H_    0.864667 0.654017 0.767972 0.236268
H19   H     H_    0.861483 0.487184 0.814923 0.258881
C30   C     C_3   0.079479 0.435224 0.229135 -0.838688
H20   H     H_    0.994301 0.420511 0.163360 0.231859
H21   H     H_    0.138520 0.512804 0.185077 0.258894
H22   H     H_    0.135332 0.345973 0.232031 0.236261

loop_
_geom_bond_atom_site_label_1
_geom_bond_atom_site_label_2
_ccdc_geom_bond_type
C16   H2    S    
C7    C10   S    
C21   C26   S    
C11   C18   S    
C5    H11   S    
C10   N2    S    
C11   O5    A    
C12   O6    A    
C1    O3    A    
C27   O9    D    
C2    O4    A    
C21   H5    S    
C22   H6    S    
C13   C18   S    
C23   H3    S    
C24   C26   S    
C28   O12   S    
C3    H7    S    
C9    H13   S    
C10   H14   S    
C8    H10   S    
C29   H18   S    
C15   H1    S    
C1    O1    A    
O5    Zn1   S    
C2    O2    A    
C8    C9    S    
C30   H21   S    
C22   C25   S    
C12   C17   S    
C6    H12   S    
C18   C20   S    
O2    Zn2   S    
C23   C25   S    
O12   H16   S    
C14   C17   S    
C3    C24   S    
C13   C27   S    
C27   O10   S    
C15   C20   S    
C4    H8    S    
C13   C19   S    
C14   C20   S    
C20   C30   S    
C3    C25   S    
C5    C7    S    
C4    C23   S    
C6    C8    S    
O3    Zn2   S    
O4    Zn1   S    
C6    N1    S    
C29   H19   S    
C5    C9    S    
C11   O7    A    
C4    C22   S    
C4    C26   S    
C30   H22   S    
O10   H15   S    
O8    Zn1   S    
C13   C15   S    
C1    C26   S    
C14   C16   S    
C3    C21   S    
C5    N2    S    
C15   C17   S    
C14   C28   S    
C7    H9    S    
O7    Zn2   S    
C8    N2    S    
C6    C10   S    
C12   O8    A    
C9    N1    S    
C21   C23   S    
O1    Zn1   S    
C28   O11   D    
C19   C29   S    
C16   C19   S    
C17   C19   S    
C2    C25   S    
C22   C24   S    
C7    N1    S    
C29   H17   S    
C24   H4    S    
O6    Zn2   S    
C16   C18   S    
C30   H20   S    
N1    Zn1   S    
N2    Zn2   S    
