data_mof_unit_22417.cif
_audit_creation_date              2012-12-10T18:21:14-0500
_audit_creation_method            fapswitch 2.2
_symmetry_space_group_name_H-M    P1
_symmetry_Int_Tables_number       1
_space_group_crystal_system       triclinic
_cell_length_a                    9.45206
_cell_length_b                    10.657247
_cell_length_c                    17.215133
_cell_angle_alpha                 91.505298
_cell_angle_beta                  87.658677
_cell_angle_gamma                 90.375004
_cell_volume                      1732.05931856

loop_
_atom_site_label
_atom_site_type_symbol
_atom_type_description
_atom_site_fract_x
_atom_site_fract_y
_atom_site_fract_z
_atom_type_partial_charge
C1    C     C_R   0.500479 0.740360 0.499814 0.792137
C2    C     C_R   0.499540 0.259676 0.500150 0.789228
C3    C     C_3   0.379453 0.957645 0.474520 0.350913
C4    C     C_3   0.620745 0.042577 0.525402 0.351172
C5    C     C_3   0.483273 0.039117 0.426464 -0.263796
C6    C     C_3   0.516956 0.961079 0.573470 -0.264637
C7    C     C_3   0.498529 0.122960 0.500119 -0.080839
C8    C     C_3   0.501595 0.877149 0.499806 -0.082625
C9    C     C_3   0.391735 0.042382 0.547652 -0.208336
C10   C     C_3   0.608477 0.957791 0.452269 -0.208817
C11   C     C_3   0.949399 0.389107 0.483324 -0.093666
C12   C     C_3   0.050527 0.610905 0.516701 -0.094674
C13   C     C_3   0.047276 0.423153 0.550640 -0.087396
C14   C     C_3   0.952574 0.576929 0.449476 -0.087419
C15   C     C_3   0.052587 0.466200 0.432968 0.130111
C16   C     C_3   0.947165 0.533855 0.566963 0.125722
C17   C     C_R   0.483106 0.496864 0.649702 0.780902
C18   C     C_R   0.517120 0.501251 0.350221 0.780471
C19   C     C_R   0.476866 0.480841 0.733563 -0.011107
C20   C     C_R   0.525362 0.506765 0.265692 -0.020343
C21   C     C_R   0.580903 0.409325 0.767328 -0.166591
C22   C     C_R   0.415944 0.562313 0.226454 -0.178314
C23   C     C_R   0.575481 0.391696 0.847058 -0.215790
C24   C     C_R   0.423646 0.567188 0.145789 -0.164872
C25   C     C_R   0.466575 0.446223 0.893540 0.186562
C26   C     C_R   0.541806 0.518104 0.104241 0.154269
C27   C     C_R   0.360607 0.515434 0.860016 -0.153907
C28   C     C_R   0.652875 0.465206 0.143150 -0.202244
C29   C     C_R   0.364998 0.531859 0.779931 -0.216038
C30   C     C_R   0.644842 0.459625 0.223780 -0.205587
C31   C     C_2   0.468133 0.436258 0.978466 0.136815
C32   C     C_2   0.547983 0.519396 0.019015 0.132012
Cu1   Cu    Cu3+1 0.356850 0.500010 0.499980 0.933620
Cu2   Cu    Cu3+1 0.643150 0.499990 0.500020 0.933806
H1    H     H_    0.665777 0.366462 0.731949 0.143458
H2    H     H_    0.325400 0.602770 0.258207 0.151555
H3    H     H_    0.903431 0.295897 0.468328 0.153189
H4    H     H_    0.096451 0.704132 0.531707 0.152386
H5    H     H_    0.730967 0.417300 0.253242 0.158506
H6    H     H_    0.282913 0.585960 0.754441 0.151215
H7    H     H_    0.276051 0.557604 0.895969 0.130000
H8    H     H_    0.744506 0.427274 0.110980 0.132247
H9    H     H_    0.337936 0.608871 0.115672 0.131113
H10   H     H_    0.657390 0.337811 0.872851 0.121992
H11   H     H_    0.466739 0.073317 0.367177 0.134034
H12   H     H_    0.533368 0.927016 0.632782 0.134708
H13   H     H_    0.302187 0.078980 0.585196 0.138791
H14   H     H_    0.697982 0.921198 0.414693 0.138090
H15   H     H_    0.091936 0.357198 0.591928 0.114411
H16   H     H_    0.907609 0.643667 0.408777 0.113920
N1    N     N_3   0.141720 0.500030 0.499940 -0.171914
N2    N     N_3   0.858280 0.499970 0.500060 -0.172319
O1    O     O_R   0.379130 0.683150 0.499960 -0.578059
O2    O     O_R   0.620870 0.316850 0.500040 -0.578362
O3    O     O_R   0.620910 0.683140 0.500000 -0.595942
O4    O     O_R   0.379090 0.316860 0.500000 -0.597147
O5    O     O_R   0.365090 0.500030 0.613580 -0.583530
O6    O     O_R   0.634910 0.499970 0.386420 -0.584856
O7    O     O_R   0.606870 0.500020 0.613610 -0.575128
O8    O     O_R   0.393130 0.499980 0.386390 -0.577348
C33   C     C_R   0.105097 0.418694 0.353914 0.125936
C34   C     C_R   0.183288 0.307370 0.346522 -0.109635
C35   C     C_R   0.222555 0.257255 0.272965 -0.172930
C36   C     C_R   0.179741 0.315600 0.206239 -0.085790
C37   C     C_R   0.099940 0.425422 0.212877 -0.137582
C38   C     C_R   0.063423 0.477380 0.286330 -0.200685
H17   H     H_    0.212373 0.258896 0.397647 0.146089
H18   H     H_    0.284331 0.172128 0.267614 0.115139
H19   H     H_    0.207602 0.275292 0.149472 0.135842
H20   H     H_    0.066571 0.470460 0.161104 0.128039
H21   H     H_    0.000695 0.561949 0.289949 0.116344
C39   C     C_R   0.891336 0.582522 0.644881 0.127878
C40   C     C_R   0.923652 0.521806 0.713363 -0.180872
C41   C     C_R   0.880205 0.573457 0.785876 -0.139826
C42   C     C_R   0.802809 0.684875 0.790380 -0.090287
C43   C     C_R   0.769618 0.745183 0.722615 -0.165982
C44   C     C_R   0.815739 0.695334 0.650194 -0.110139
H22   H     H_    0.983762 0.435689 0.711086 0.111711
H23   H     H_    0.906413 0.526945 0.838495 0.116951
H24   H     H_    0.769241 0.725372 0.846191 0.135014
H25   H     H_    0.709750 0.831444 0.726400 0.115729
H26   H     H_    0.793534 0.744816 0.598275 0.144627
N3    N     N_2   0.636938 0.608729 0.979348 -0.433335
H27   H     H_    0.706494 0.569163 0.938283 0.245057
C45   C     C_3   0.697312 0.711025 0.024373 -0.698062
H28   H     H_    0.750383 0.778587 0.984643 0.212734
H29   H     H_    0.777216 0.674906 0.063593 0.224008
H30   H     H_    0.612790 0.761854 0.058865 0.240983
N4    N     N_2   0.382518 0.343286 0.017403 -0.444705
H31   H     H_    0.423077 0.309208 0.067342 0.254372
C46   C     C_3   0.314260 0.247712 0.970465 -0.712260
H32   H     H_    0.250359 0.184826 0.008715 0.214420
H33   H     H_    0.395055 0.190603 0.937150 0.230731
H34   H     H_    0.241622 0.291372 0.930020 0.239405
N5    N     N_2   0.248762 0.904713 0.446671 -0.424893
H35   H     H_    0.264957 0.834269 0.405118 0.251216
C47   C     C_3   0.145331 0.994519 0.424410 -0.740096
H36   H     H_    0.042937 0.945757 0.415542 0.229270
H37   H     H_    0.180562 0.037222 0.368868 0.218894
H38   H     H_    0.129061 0.068728 0.470317 0.239055
N6    N     N_2   0.751034 0.096499 0.553165 -0.424484
H39   H     H_    0.734360 0.165809 0.595408 0.249685
C48   C     C_3   0.857010 0.007906 0.573758 -0.740664
H40   H     H_    0.958831 0.058071 0.581772 0.229459
H41   H     H_    0.873094 0.934558 0.527310 0.238856
H42   H     H_    0.824702 0.964171 0.629409 0.219028

loop_
_geom_bond_atom_site_label_1
_geom_bond_atom_site_label_2
_ccdc_geom_bond_type
C25   C31   S    
C26   C32   S    
N6    H39   S    
C27   C29   A    
C1    C8    S    
C40   C41   A    
N5    H35   S    
C16   C39   S    
C47   H38   S    
C6    C9    S    
C47   H36   S    
C20   C30   A    
C45   H28   S    
C34   C35   A    
C34   H17   S    
N3    H27   S    
C19   C21   A    
C24   C26   A    
C37   H20   S    
C11   H3    S    
C1    O1    A    
C11   N2    S    
C2    C7    S    
C13   N1    S    
C11   C15   S    
C33   C38   A    
C18   O6    A    
C14   N2    S    
C12   C16   S    
C31   N4    S    
C40   H22   S    
C15   N1    S    
N4    C46   S    
C42   H24   S    
Cu1   O4    S    
Cu2   O3    S    
N6    C48   S    
C4    C7    S    
C47   H37   S    
C45   H29   S    
Cu1   O1    S    
C41   C42   A    
C43   C44   A    
C4    C6    S    
C3    C8    S    
C2    O2    A    
C46   H32   S    
C5    C7    S    
C6    C8    S    
C5    H11   S    
C23   H10   S    
C42   C43   A    
C39   C44   A    
C3    C9    S    
C46   H33   S    
C27   H7    S    
C38   H21   S    
C4    N6    S    
Cu1   Cu2   S    
C15   C33   S    
C48   H41   S    
C36   H19   S    
C17   O7    A    
C13   H15   S    
C18   O8    A    
N3    C45   S    
C12   C14   S    
Cu2   O2    S    
Cu1   O8    S    
C41   H23   S    
C21   C23   A    
C10   H14   S    
Cu2   O7    S    
C22   C24   A    
C25   C27   A    
C4    C10   S    
C19   C29   A    
C12   N1    S    
C45   H30   S    
C7    C9    S    
C32   N3    S    
C35   H18   S    
Cu1   O5    S    
C6    H12   S    
Cu2   N2    S    
C31   C32   D    
C16   N2    S    
C20   C22   A    
C39   C40   A    
C3    C5    S    
C43   H25   S    
N5    C47   S    
C9    H13   S    
C21   H1    S    
Cu1   N1    S    
C22   H2    S    
C26   C28   A    
C36   C37   A    
C28   C30   A    
C1    O3    A    
C5    C10   S    
C2    O4    A    
C46   H34   S    
C11   C13   S    
C14   H16   S    
C44   H26   S    
C29   H6    S    
C28   H8    S    
C17   C19   S    
C30   H5    S    
C48   H42   S    
C18   C20   S    
C23   C25   A    
C12   H4    S    
C33   C34   A    
C35   C36   A    
C8    C10   S    
C37   C38   A    
C13   C16   S    
C48   H40   S    
Cu2   O6    S    
C24   H9    S    
C14   C15   S    
C3    N5    S    
N4    H31   S    
C17   O5    A    
