data_mof_unit_38615.cif
_audit_creation_date              2012-12-10T17:24:45-0500
_audit_creation_method            fapswitch 2.2
_symmetry_space_group_name_H-M    P1
_symmetry_Int_Tables_number       1
_space_group_crystal_system       triclinic
_cell_length_a                    23.384094
_cell_length_b                    10.696623
_cell_length_c                    9.618045
_cell_angle_alpha                 89.336282
_cell_angle_beta                  90.418856
_cell_angle_gamma                 94.904971
_cell_volume                      2396.75039211

loop_
_atom_site_label
_atom_site_type_symbol
_atom_type_description
_atom_site_fract_x
_atom_site_fract_y
_atom_site_fract_z
_atom_type_partial_charge
C1    C     C_R   0.494355 0.260968 0.501130 0.810585
C2    C     C_R   0.966025 0.258354 0.671174 0.125683
C3    C     C_R   0.026659 0.275051 0.680944 -0.079390
C4    C     C_R   0.057840 0.376834 0.610757 -0.120774
C5    C     C_R   0.027428 0.461641 0.531901 -0.010001
C6    C     C_R   0.057681 0.560448 0.456867 -0.002844
C7    C     C_R   0.027506 0.648830 0.384743 -0.133962
C8    C     C_R   0.967967 0.640264 0.386796 -0.126918
C9    C     C_R   0.118630 0.398594 0.617047 0.601267
C10   C     C_R   0.117691 0.568150 0.454139 0.605064
C11   C     C_R   0.244348 0.605174 0.562321 0.021576
C12   C     C_R   0.391110 0.498170 0.500021 0.805262
C13   C     C_R   0.303993 0.605653 0.544130 -0.278843
C14   C     C_R   0.328625 0.497465 0.502101 -0.048651
C15   C     C_R   0.293506 0.386838 0.477993 0.138124
C16   C     C_R   0.234201 0.388083 0.485242 -0.106950
C17   C     C_R   0.208862 0.495416 0.527982 0.229675
C18   C     C_R   0.754060 0.398551 0.622674 -0.109459
C19   C     C_R   0.694884 0.406297 0.622617 0.136475
C20   C     C_R   0.667649 0.448462 0.501222 -0.129579
C21   C     C_R   0.697775 0.449311 0.375065 -0.283686
C22   C     C_R   0.755861 0.425096 0.371530 0.023966
C23   C     C_R   0.489826 0.733582 0.498782 0.881429
C24   C     C_R   0.785527 0.413495 0.499196 0.225431
C25   C     C_R   0.430608 0.112698 0.730614 -0.127686
C26   C     C_R   0.404243 0.041681 0.838316 -0.049970
C27   C     C_R   0.401192 0.911581 0.834859 -0.012024
C28   C     C_R   0.424513 0.851644 0.723731 -0.099663
C29   C     C_R   0.452636 0.921615 0.614811 0.071345
C30   C     C_R   0.456170 0.054772 0.618019 0.109009
C31   C     C_R   0.481319 0.123650 0.502568 -0.133089
C32   C     C_R   0.486811 0.060818 0.377065 -0.180710
C33   C     C_R   0.473693 0.932031 0.369611 -0.006376
C34   C     C_R   0.607541 0.482814 0.500767 0.869726
C35   C     C_R   0.471567 0.862556 0.494886 -0.202067
C36   C     C_R   0.595563 0.632154 0.136122 -0.183346
C37   C     C_R   0.646853 0.647769 0.056829 0.048892
C38   C     C_R   0.642143 0.645391 0.910525 -0.143589
C39   C     C_R   0.586629 0.644823 0.854600 -0.042849
C40   C     C_R   0.543668 0.568114 0.924611 0.142352
C41   C     C_R   0.545301 0.566481 0.073605 0.136103
C42   C     C_R   0.458013 0.435088 0.071843 0.085168
C43   C     C_R   0.458210 0.436244 0.924860 -0.073846
C44   C     C_R   0.877282 0.529127 0.454387 0.597408
C45   C     C_R   0.875252 0.330091 0.569413 0.617565
C46   C     C_R   0.935643 0.344054 0.590699 -0.088090
C47   C     C_R   0.966749 0.448198 0.526478 -0.035140
C48   C     C_R   0.937219 0.539827 0.455568 -0.000062
Cu1   Cu    Cu3+1 0.500000 0.499990 0.640660 0.980663
Cu2   Cu    Cu3+1 0.500000 0.500010 0.359340 1.019817
H1    H     H_    0.675573 0.466092 0.278451 0.209397
H2    H     H_    0.497810 0.112769 0.282463 0.241726
H3    H     H_    0.426378 0.211739 0.732896 0.154291
H4    H     H_    0.384186 0.087821 0.922338 0.161751
H5    H     H_    0.378957 0.856778 0.916311 0.139210
H6    H     H_    0.417236 0.750645 0.720850 0.145630
H7    H     H_    0.423915 0.384454 0.868579 0.127463
H8    H     H_    0.049820 0.726047 0.327885 0.202940
H9    H     H_    0.946095 0.711077 0.331257 0.205489
H10   H     H_    0.331810 0.688888 0.568538 0.166619
H11   H     H_    0.207381 0.303106 0.462366 0.189139
H12   H     H_    0.775700 0.379297 0.719510 0.201052
N1    N     N_R   0.847470 0.423520 0.506421 -0.445103
N2    N     N_R   0.147037 0.489450 0.535462 -0.441273
N3    N     N_R   0.500540 0.501210 0.147910 -0.227015
N4    N     N_R   0.500560 0.501290 0.852040 -0.195892
O1    O     O_R   0.500000 0.319640 0.618810 -0.583813
O2    O     O_2   0.844245 0.223454 0.606772 -0.473282
O3    O     O_2   0.149532 0.330826 0.704302 -0.496949
O4    O     O_2   0.146560 0.653378 0.370337 -0.516245
O5    O     O_R   0.500000 0.319660 0.381240 -0.564803
O6    O     O_R   0.417880 0.499950 0.618810 -0.616975
O7    O     O_R   0.417880 0.499980 0.381240 -0.531572
O8    O     O_R   0.500000 0.680340 0.618760 -0.590309
O9    O     O_R   0.500000 0.680360 0.381190 -0.551885
O10   O     O_R   0.582120 0.500020 0.618760 -0.542551
O11   O     O_R   0.582120 0.500050 0.381190 -0.608235
O12   O     O_2   0.848860 0.623309 0.400426 -0.514487
I1    I     I_    0.923654 0.104977 0.790080 -0.122416
I2    I     I_    0.650774 0.332380 0.802618 -0.225530
C49   C     C_2   0.783928 0.407708 0.235140 0.938222
O13   O     O_2   0.759687 0.433405 0.126669 -0.543201
O14   O     O_R   0.836912 0.356438 0.229600 -0.742419
H13   H     H_    0.851006 0.348221 0.130931 0.355121
C50   C     C_2   0.451933 0.877708 0.235445 0.938594
O15   O     O_2   0.462634 0.934149 0.126108 -0.539483
O16   O     O_R   0.416066 0.766116 0.234478 -0.746589
H14   H     H_    0.404227 0.738801 0.137122 0.330852
C51   C     C_2   0.412637 0.352516 0.137204 0.879879
O17   O     O_2   0.365513 0.390319 0.156591 -0.564334
O18   O     O_R   0.421319 0.226226 0.157784 -0.772849
H15   H     H_    0.385028 0.173318 0.184478 0.345834
C52   C     C_2   0.056794 0.180401 0.759450 0.980369
O19   O     O_2   0.058950 0.183795 0.886484 -0.536173
O20   O     O_R   0.082998 0.088143 0.687420 -0.717873
H16   H     H_    0.102409 0.028970 0.751985 0.346937
C53   C     C_2   0.589512 0.742797 0.223925 0.963962
O21   O     O_2   0.564143 0.828093 0.175566 -0.524727
O22   O     O_R   0.617328 0.761001 0.352332 -0.684659
H17   H     H_    0.644320 0.695221 0.376375 0.317951
I3    I     I_    0.725154 0.730275 0.149488 -0.131787
C54   C     C_2   0.692932 0.660441 0.816748 0.957926
O23   O     O_2   0.739973 0.633663 0.857918 -0.528492
O24   O     O_R   0.686422 0.696594 0.677789 -0.714222
H18   H     H_    0.723722 0.700464 0.624167 0.351067
C55   C     C_2   0.571534 0.772635 0.814019 0.917977
O25   O     O_2   0.532254 0.818659 0.872699 -0.558294
O26   O     O_R   0.602757 0.842296 0.711943 -0.678449
H19   H     H_    0.588041 0.927582 0.694420 0.345186
C56   C     C_2   0.221006 0.717171 0.623514 0.917704
O27   O     O_2   0.247953 0.820074 0.613836 -0.564740
O28   O     O_R   0.169086 0.705156 0.695673 -0.743992
H20   H     H_    0.158022 0.788153 0.732435 0.347260
I4    I     I_    0.326492 0.210708 0.450543 -0.311950

loop_
_geom_bond_atom_site_label_1
_geom_bond_atom_site_label_2
_ccdc_geom_bond_type
C39   C55   S    
O16   H14   S    
C52   O19   D    
C9    N2    A    
C19   C20   A    
C49   O13   D    
C28   H6    S    
C7    C8    A    
C13   H10   S    
C50   O15   D    
C2    C46   A    
C5    C47   A    
C26   C27   A    
C1    O5    A    
O14   H13   S    
C18   C24   A    
C28   C29   A    
C9    O3    S    
C8    H9    S    
C30   C31   A    
C33   C35   A    
C27   H5    S    
C55   O25   D    
C15   C16   A    
C1    C31   S    
O26   H19   S    
C18   C19   A    
C33   C50   S    
C56   O27   D    
C32   H2    S    
C2    I1    S    
C53   O22   S    
C47   C48   A    
C16   C17   A    
Cu1   O6    S    
C42   N3    A    
C36   C53   S    
C13   C14   A    
C51   O18   S    
C29   C30   A    
C7    H8    S    
C38   C54   S    
C20   C34   S    
C12   O6    A    
C52   O20   S    
C40   N4    A    
C12   O7    A    
C11   C56   S    
C36   C41   A    
C19   I2    S    
C26   H4    S    
O24   H18   S    
C49   O14   S    
C53   O21   D    
C50   O16   S    
C44   N1    A    
C38   C39   A    
Cu1   O10   S    
Cu1   N4    S    
C22   C49   S    
Cu2   O7    S    
C23   O9    A    
O18   H15   S    
C18   H12   S    
C41   N3    A    
C25   C26   A    
C45   C46   A    
C45   N1    A    
Cu2   O5    S    
C8    C48   A    
C37   C38   A    
O22   H17   S    
C45   O2    S    
C15   I4    S    
C3    C52   S    
C54   O24   S    
C10   O4    S    
C40   C41   A    
C12   C14   S    
C24   N1    S    
C23   C35   S    
C22   C24   A    
C42   C43   A    
C23   O8    A    
C3    C4    A    
Cu2   O11   S    
C21   H1    S    
C25   C30   A    
C46   C47   A    
C11   C17   A    
Cu1   O1    S    
C14   C15   A    
C31   C32   A    
C10   N2    A    
C25   H3    S    
C4    C5    A    
C6    C10   A    
C6    C7    A    
C29   C35   A    
C42   C51   S    
C32   C33   A    
C44   O12   S    
C2    C3    A    
C4    C9    A    
C34   O11   A    
Cu2   O9    S    
C37   I3    S    
C11   C13   A    
C5    C6    A    
C55   O26   S    
C43   N4    A    
C1    O1    A    
O28   H20   S    
C54   O23   D    
Cu2   N3    S    
C56   O28   S    
C43   H7    S    
C39   C40   A    
C20   C21   A    
C36   C37   A    
Cu1   Cu2   S    
C16   H11   S    
O20   H16   S    
Cu1   O8    S    
C17   N2    S    
C51   O17   D    
C21   C22   A    
C44   C48   A    
C34   O10   A    
C27   C28   A    
