data_mof_unit_13493.cif
_audit_creation_date              2012-12-10T20:26:25-0500
_audit_creation_method            fapswitch 2.2
_symmetry_space_group_name_H-M    P1
_symmetry_Int_Tables_number       1
_space_group_crystal_system       triclinic
_cell_length_a                    10.752358
_cell_length_b                    10.678411
_cell_length_c                    9.862473
_cell_angle_alpha                 89.337132
_cell_angle_beta                  90.407168
_cell_angle_gamma                 89.56477
_cell_volume                      1132.25263198

loop_
_atom_site_label
_atom_site_type_symbol
_atom_type_description
_atom_site_fract_x
_atom_site_fract_y
_atom_site_fract_z
_atom_type_partial_charge
C1    C     C_R   0.502981 0.260147 0.500644 0.883810
C2    C     C_R   0.498568 0.128236 0.499313 -0.069550
C3    C     C_R   0.541949 0.064688 0.385409 -0.216834
C4    C     C_R   0.535001 0.935843 0.382761 -0.186048
C5    C     C_R   0.482669 0.871557 0.493109 -0.101953
C6    C     C_R   0.418703 0.937423 0.592677 -0.092823
C7    C     C_3   0.410236 0.922179 0.745340 0.217326
C8    C     C_3   0.433047 0.064181 0.750125 0.318700
C9    C     C_R   0.432484 0.413474 0.071726 0.233722
C10   C     C_R   0.574595 0.578424 0.071569 -0.132117
C11   C     C_R   0.574571 0.578461 0.927578 -0.138327
C12   C     C_R   0.262739 0.496101 0.499597 0.919325
C13   C     C_R   0.432440 0.413533 0.929059 0.286685
C14   C     C_3   0.294877 0.398398 0.922354 -0.528425
C15   C     C_3   0.294897 0.398412 0.076049 -0.514590
C16   C     C_R   0.495228 0.739774 0.498937 0.861859
C17   C     C_R   0.737409 0.501630 0.500330 0.929654
C18   C     C_2   0.932396 0.494041 0.386446 -0.151863
C19   C     C_2   0.869080 0.508927 0.501147 -0.337757
C20   C     C_2   0.066084 0.501042 0.386037 -0.169955
C21   C     C_2   0.131837 0.480352 0.499298 -0.344692
C22   C     C_R   0.432676 0.064069 0.598242 -0.070682
H1    H     H_    0.632931 0.643525 0.125541 0.145833
H2    H     H_    0.632834 0.643603 0.872872 0.149742
H3    H     H_    0.267485 0.307097 0.879016 0.199634
H4    H     H_    0.247181 0.481774 0.117948 0.210946
H5    H     H_    0.912527 0.529911 0.597566 0.145743
H6    H     H_    0.110088 0.526078 0.291073 0.165736
H7    H     H_    0.090825 0.449657 0.593974 0.149919
H8    H     H_    0.586955 0.113504 0.302442 0.164557
H9    H     H_    0.578068 0.886806 0.299463 0.159143
H10   H     H_    0.351429 0.117403 0.787920 0.127863
N1    N     N_R   0.499170 0.499140 0.142800 -0.113742
N2    N     N_R   0.499170 0.499180 0.857150 -0.113077
O1    O     O_R   0.500020 0.316790 0.614690 -0.590318
O2    O     O_R   0.500000 0.316760 0.385350 -0.624890
O3    O     O_R   0.319080 0.500020 0.614640 -0.640766
O4    O     O_R   0.319070 0.499980 0.385300 -0.611601
O5    O     O_R   0.500000 0.683240 0.614650 -0.645179
O6    O     O_R   0.499980 0.683210 0.385310 -0.616265
O7    O     O_R   0.680930 0.500020 0.614700 -0.620845
O8    O     O_R   0.680920 0.499980 0.385360 -0.621698
Zn1   Zn    Zn3+2 0.500010 0.500020 0.653130 0.944370
Zn2   Zn    Zn3+2 0.499990 0.499980 0.346870 0.943648
H11   H     H_    0.885875 0.480262 0.289633 0.172391
O9    O     O_3   0.544543 0.106948 0.813401 -0.640051
C23   C     C_3   0.654736 0.039271 0.783155 0.103279
H12   H     H_    0.725883 0.108015 0.750556 0.163586
H13   H     H_    0.645818 0.972141 0.698646 0.123066
C24   C     C_3   0.702144 0.972054 0.911722 -0.360157
H14   H     H_    0.724205 0.042575 0.990204 0.230840
H15   H     H_    0.629035 0.909732 0.952997 0.213511
C25   C     C_3   0.818314 0.894022 0.883777 -0.980216
H16   H     H_    0.798725 0.823144 0.804995 0.262805
H17   H     H_    0.848641 0.844660 0.978187 0.266085
H18   H     H_    0.894599 0.955726 0.849238 0.271872
H19   H     H_    0.246587 0.481327 0.876709 0.211836
H20   H     H_    0.267590 0.307127 0.121740 0.213114
O10   O     O_3   0.290369 0.897944 0.799503 -0.654806
C26   C     C_3   0.218206 0.814314 0.722151 0.137378
H21   H     H_    0.168344 0.752193 0.794347 0.157527
H22   H     H_    0.273905 0.751721 0.656671 0.149672
C27   C     C_3   0.121941 0.889051 0.638364 -0.373318
H23   H     H_    0.070170 0.952990 0.706060 0.229148
H24   H     H_    0.169196 0.947390 0.560708 0.226539
C28   C     C_3   0.029977 0.803610 0.567419 -0.955693
H25   H     H_    0.079466 0.744890 0.492806 0.278745
H26   H     H_    0.958804 0.861076 0.512692 0.266720
H27   H     H_    0.982311 0.742961 0.642658 0.261056
H28   H     H_    0.482880 0.860740 0.791367 0.120848

loop_
_geom_bond_atom_site_label_1
_geom_bond_atom_site_label_2
_ccdc_geom_bond_type
C2    C22   A    
C3    H8    S    
C8    C22   S    
C27   H24   S    
O4    Zn2   S    
C6    C7    S    
C10   H1    S    
C23   C24   S    
O1    Zn1   S    
C28   H26   S    
C23   H12   S    
C14   C15   S    
O6    Zn2   S    
C25   H16   S    
C28   H27   S    
C7    H28   S    
C2    C3    A    
C9    C15   S    
C27   C28   S    
O10   C26   S    
C23   H13   S    
C13   C14   S    
C9    N1    A    
O7    Zn1   S    
C24   C25   S    
O8    Zn2   S    
C16   O6    A    
C26   C27   S    
C4    C5    A    
C7    O10   S    
C17   C19   S    
C28   H25   S    
C10   N1    A    
C8    O9    S    
C25   H17   S    
C14   H3    S    
C12   O4    A    
C5    C6    A    
C15   H20   S    
C17   O7    A    
O3    Zn1   S    
O2    Zn2   S    
C4    H9    S    
C7    C8    S    
C10   C11   A    
C16   O5    A    
C27   H23   S    
C8    H10   S    
C18   H11   S    
C11   H2    S    
C13   N2    A    
C19   H5    S    
C20   C21   D    
C1    O1    A    
C18   C20   S    
C26   H22   S    
C1    C2    S    
C12   O3    A    
C25   H18   S    
C24   H15   S    
C14   H19   S    
C9    C13   A    
C17   O8    A    
C18   C19   D    
C15   H4    S    
O5    Zn1   S    
C20   H6    S    
C24   H14   S    
O9    C23   S    
N1    Zn2   S    
C21   H7    S    
C12   C21   S    
C11   N2    A    
N2    Zn1   S    
C3    C4    A    
C1    O2    A    
C26   H21   S    
C5    C16   S    
C6    C22   A    
