data_mof_unit_44185.cif
_audit_creation_date              2012-12-10T20:55:08-0500
_audit_creation_method            fapswitch 2.2
_symmetry_space_group_name_H-M    P1
_symmetry_Int_Tables_number       1
_space_group_crystal_system       triclinic
_cell_length_a                    15.855336
_cell_length_b                    15.080193
_cell_length_c                    10.632978
_cell_angle_alpha                 90.01192
_cell_angle_beta                  89.91725
_cell_angle_gamma                 89.968471
_cell_volume                      2542.35818402

loop_
_atom_site_label
_atom_site_type_symbol
_atom_type_description
_atom_site_fract_x
_atom_site_fract_y
_atom_site_fract_z
_atom_type_partial_charge
C1    C     C_R   0.338979 0.499986 0.500317 0.901142
C2    C     C_R   0.575311 0.952451 0.525994 0.159526
C3    C     C_R   0.500054 0.904812 0.499822 -0.023597
C4    C     C_R   0.575337 0.047216 0.525844 0.158327
C5    C     C_R   0.424787 0.047306 0.473772 0.158528
C6    C     C_R   0.500055 0.095015 0.499860 -0.027816
C7    C     C_1   0.500025 0.806898 0.499926 0.087076
C8    C     C_1   0.500031 0.193048 0.499945 0.088360
C9    C     C_R   0.490699 0.500266 0.259663 0.888155
C10   C     C_R   0.509343 0.500273 0.740323 0.887694
C11   C     C_R   0.443915 0.662627 0.103320 0.161063
C12   C     C_R   0.661018 0.499946 0.499764 0.901643
C13   C     C_R   0.555728 0.662741 0.896689 0.160364
C14   C     C_R   0.470157 0.744537 0.050304 0.182032
C15   C     C_R   0.529202 0.744599 0.949686 0.181856
C16   C     C_R   0.519648 0.582470 0.941563 -0.002917
C17   C     C_R   0.480257 0.582433 0.058443 -0.002857
C18   C     C_R   0.480988 0.501111 0.125414 -0.095446
C19   C     C_R   0.519142 0.501145 0.874558 -0.095481
C20   C     C_R   0.492547 0.420505 0.063143 -0.210411
C21   C     C_R   0.507878 0.420517 0.936806 -0.210075
C22   C     C_R   0.956373 0.575381 0.501716 0.358551
C23   C     C_R   0.955732 0.412717 0.483898 0.137776
C24   C     C_R   0.043296 0.574449 0.516461 0.358800
C25   C     C_R   0.912930 0.494692 0.491921 -0.107390
C26   C     C_R   0.087038 0.494109 0.503405 -0.107421
C27   C     C_3   0.368737 0.659812 0.191746 -0.823399
C28   C     C_3   0.630923 0.660088 0.808275 -0.820615
C29   C     C_3   0.437771 0.832277 0.101456 -0.893573
C30   C     C_3   0.561277 0.832406 0.898502 -0.892619
C31   C     C_3   0.109383 0.664680 0.659708 0.103880
C32   C     C_3   0.040927 0.715001 0.732446 -0.315058
C33   C     C_3   0.069470 0.736569 0.866021 -0.989901
C34   C     C_R   0.044540 0.412559 0.487780 0.137440
C35   C     C_3   0.889401 0.683475 0.387043 0.102660
C36   C     C_3   0.958153 0.741503 0.327908 -0.312175
C37   C     C_3   0.929237 0.780519 0.202756 -0.994051
C38   C     C_3   0.908239 0.325705 0.470844 -0.852233
C39   C     C_3   0.092345 0.325581 0.475859 -0.852808
C40   C     C_3   0.343186 0.096370 0.445643 -0.885301
C41   C     C_3   0.656949 0.096184 0.553908 -0.885097
C42   C     C_3   0.343259 0.903509 0.445240 -0.893834
C43   C     C_3   0.656892 0.903308 0.554155 -0.899333
C44   C     C_1   0.823876 0.497582 0.494740 0.040065
C45   C     C_1   0.176094 0.497451 0.502504 0.040620
C46   C     C_1   0.250800 0.499552 0.501427 -0.202132
C47   C     C_1   0.749182 0.499474 0.497381 -0.201535
C48   C     C_R   0.424818 0.952545 0.473563 0.156995
H1    H     H_    0.490410 0.357440 0.111888 0.172860
H2    H     H_    0.491516 0.874177 0.131920 0.246956
H3    H     H_    0.401607 0.867540 0.027471 0.238835
H4    H     H_    0.602954 0.825927 0.815596 0.246150
H5    H     H_    0.507382 0.874148 0.868048 0.246700
H6    H     H_    0.597325 0.867796 0.972472 0.239157
H7    H     H_    0.168309 0.704506 0.661353 0.167596
H8    H     H_    0.124237 0.600923 0.708249 0.118760
H9    H     H_    0.025712 0.777731 0.682472 0.240861
H10   H     H_    0.982884 0.673962 0.737688 0.240690
H11   H     H_    0.083709 0.674594 0.918333 0.269258
H12   H     H_    0.510226 0.357453 0.888035 0.172890
H13   H     H_    0.018436 0.772612 0.916196 0.273381
H14   H     H_    0.126577 0.779191 0.864009 0.267719
H15   H     H_    0.831092 0.723761 0.397284 0.167716
H16   H     H_    0.873247 0.627626 0.322517 0.120638
H17   H     H_    0.974366 0.796391 0.393337 0.240801
H18   H     H_    0.015664 0.701098 0.311094 0.240294
H19   H     H_    0.914052 0.726636 0.135224 0.269332
H20   H     H_    0.980452 0.821847 0.162244 0.271891
H21   H     H_    0.872636 0.822850 0.216772 0.267747
H22   H     H_    0.922474 0.282168 0.552240 0.237321
H23   H     H_    0.314800 0.695724 0.148857 0.227261
H24   H     H_    0.838836 0.333544 0.467065 0.241843
H25   H     H_    0.927425 0.291803 0.382680 0.237021
H26   H     H_    0.078204 0.294349 0.383759 0.237118
H27   H     H_    0.161724 0.332891 0.481710 0.241617
H28   H     H_    0.073332 0.279900 0.552631 0.237285
H29   H     H_    0.348957 0.169497 0.448594 0.238921
H30   H     H_    0.320730 0.078907 0.349996 0.241690
H31   H     H_    0.294324 0.077981 0.515754 0.242153
H32   H     H_    0.651161 0.169317 0.551035 0.239084
H33   H     H_    0.679468 0.078672 0.649504 0.241812
H34   H     H_    0.346408 0.591211 0.209366 0.216219
H35   H     H_    0.705767 0.077759 0.483705 0.242058
H36   H     H_    0.349452 0.830381 0.445589 0.237115
H37   H     H_    0.294857 0.920623 0.516734 0.245410
H38   H     H_    0.319915 0.922297 0.350595 0.241215
H39   H     H_    0.650717 0.830185 0.553620 0.236130
H40   H     H_    0.705278 0.920423 0.482670 0.243999
H41   H     H_    0.680255 0.921991 0.648832 0.242377
H42   H     H_    0.384615 0.691036 0.283214 0.258895
H43   H     H_    0.684739 0.696141 0.851176 0.227650
H44   H     H_    0.653468 0.591535 0.790643 0.216606
H45   H     H_    0.614962 0.691258 0.716807 0.258296
H46   H     H_    0.396105 0.825712 0.184342 0.246138
N1    N     N_1   0.500000 0.270550 0.500000 -0.100935
N2    N     N_1   0.500000 0.729450 0.500000 -0.108738
O1    O     O_R   0.378020 0.573650 0.500040 -0.612577
O2    O     O_3   0.913530 0.655410 0.508974 -0.631587
O3    O     O_R   0.621980 0.573650 0.499960 -0.614021
O4    O     O_R   0.378020 0.426320 0.500100 -0.611547
O5    O     O_R   0.621980 0.426320 0.499900 -0.611094
O6    O     O_R   0.500000 0.573680 0.316780 -0.603372
O7    O     O_R   0.500000 0.573680 0.683220 -0.603649
O8    O     O_R   0.500000 0.426350 0.316830 -0.620490
O9    O     O_R   0.500000 0.426350 0.683170 -0.620281
O10   O     O_3   0.085862 0.653979 0.532082 -0.630672
Zn1   Zn    Zn3+2 0.500000 0.598370 0.500000 0.955312
Zn2   Zn    Zn3+2 0.500000 0.401630 0.500000 0.962708

loop_
_geom_bond_atom_site_label_1
_geom_bond_atom_site_label_2
_ccdc_geom_bond_type
C38   H22   S    
C22   O2    S    
C37   H21   S    
C35   C36   S    
C32   H10   S    
C41   H32   S    
C45   C46   T    
C7    N2    T    
C30   H6    S    
C43   H41   S    
C43   H40   S    
C10   O7    A    
C19   C21   A    
C24   C26   A    
C33   H14   S    
C3    C7    S    
C9    O8    A    
C29   H46   S    
C11   C14   A    
C36   H18   S    
C1    C46   S    
C4    C41   S    
C41   H35   S    
C37   H20   S    
C3    C48   A    
C1    O4    A    
C27   H42   S    
C39   H26   S    
C12   O3    A    
C26   C45   S    
C26   C34   A    
C16   C17   A    
C22   C25   A    
C13   C28   S    
C35   H16   S    
C42   H38   S    
C39   H27   S    
C31   H8    S    
C35   O2    S    
C10   C19   S    
C18   C20   A    
C44   C47   T    
O5    Zn2   S    
C33   H11   S    
C8    N1    T    
C32   H9    S    
C12   C47   S    
C25   C44   S    
C30   H5    S    
C29   H2    S    
C5    C48   A    
C38   H24   S    
O4    Zn2   S    
C34   C39   S    
C42   H36   S    
C21   H12   S    
C4    C6    A    
C1    O1    A    
C36   H17   S    
C9    O6    A    
C6    C8    S    
C28   H45   S    
C2    C4    A    
C20   H1    S    
C31   C32   S    
C11   C27   S    
C2    C43   S    
C23   C34   A    
C41   H33   S    
C17   C18   A    
C40   H31   S    
O6    Zn1   S    
C28   H44   S    
C42   H37   S    
C42   C48   S    
C39   H28   S    
C33   H13   S    
N2    Zn1   S    
C13   C15   A    
C31   O10   S    
C22   C24   A    
C13   C16   A    
C24   O10   S    
C14   C29   S    
O8    Zn2   S    
C27   H23   S    
C15   C30   S    
C29   H3    S    
C30   H4    S    
C11   C17   A    
C40   H29   S    
C27   H34   S    
O7    Zn1   S    
C23   C38   S    
O3    Zn1   S    
C43   H39   S    
C32   C33   S    
C2    C3    A    
C12   O5    A    
C5    C6    A    
C16   C19   A    
C37   H19   S    
C28   H43   S    
C40   H30   S    
C23   C25   A    
N1    Zn2   S    
O1    Zn1   S    
C9    C18   S    
C20   C21   A    
C36   C37   S    
C5    C40   S    
O9    Zn2   S    
C14   C15   A    
C10   O9    A    
C35   H15   S    
C31   H7    S    
C38   H25   S    
