data_mof_unit_42730.cif
_audit_creation_date              2012-10-26T21:02:58-0400
_audit_creation_method            fapswitch 2.2
_symmetry_space_group_name_H-M    P1
_symmetry_Int_Tables_number       1
_space_group_crystal_system       triclinic
_cell_length_a                    12.370069
_cell_length_b                    13.219705
_cell_length_c                    23.528292
_cell_angle_alpha                 76.668834
_cell_angle_beta                  101.364476
_cell_angle_gamma                 117.09863
_cell_volume                      3314.0271625

loop_
_atom_site_label
_atom_site_type_symbol
_atom_type_description
_atom_site_fract_x
_atom_site_fract_y
_atom_site_fract_z
_atom_type_partial_charge
C1    C     C_R   0.854787 0.286469 0.506129 0.531788
C2    C     C_R   0.077104 0.588417 0.876973 0.425458
C3    C     C_R   0.913985 0.525380 0.748900 0.053088
C4    C     C_R   0.999521 0.499248 0.608917 0.547726
C5    C     C_R   0.915603 0.525982 0.689526 -0.187939
C6    C     C_R   0.998491 0.497560 0.671628 -0.033530
C7    C     C_R   0.080202 0.467035 0.713852 -0.111092
C8    C     C_R   0.080117 0.464621 0.773644 0.032631
C9    C     C_R   0.996917 0.494268 0.791329 0.218538
C10   C     C_R   0.069765 0.439232 0.256634 0.044291
C11   C     C_R   0.063894 0.443472 0.314700 -0.148139
C12   C     C_R   0.845309 0.288360 0.040231 -0.014294
C13   C     C_R   0.001844 0.500297 0.328137 0.003291
C14   C     C_R   0.945043 0.555193 0.281467 -0.027295
C15   C     C_R   0.950093 0.549310 0.223460 -0.046141
C16   C     C_R   0.144921 0.713288 0.491891 0.545913
C17   C     C_R   0.011146 0.491881 0.210789 0.252297
C18   C     C_R   0.285094 0.011135 0.409193 -0.129774
C19   C     C_R   0.227250 0.835070 0.479129 0.025488
C20   C     C_R   0.811932 0.084619 0.549387 -0.106069
C21   C     C_R   0.731207 0.968765 0.561937 -0.006464
C22   C     C_R   0.608165 0.932940 0.540348 -0.082412
C23   C     C_R   0.845152 0.292536 0.980081 -0.094479
C24   C     C_R   0.564157 0.011234 0.504950 0.033686
C25   C     C_R   0.650553 0.123554 0.484756 0.020433
C26   C     C_R   0.438205 0.978585 0.484936 0.073901
C27   C     C_R   0.405664 0.048416 0.435521 0.046996
C28   C     C_R   0.000821 0.501362 0.390886 0.539764
C29   C     C_R   0.494202 0.153585 0.411827 -0.131833
C30   C     C_R   0.614480 0.191579 0.436553 -0.109936
C31   C     C_R   0.342892 0.878587 0.511269 0.013336
C32   C     C_R   0.197665 0.902723 0.429280 -0.142630
C33   C     C_R   0.772216 0.163046 0.511787 -0.016504
C34   C     C_R   0.922756 0.391295 0.945698 0.023223
C35   C     C_R   0.336993 0.317331 0.590210 -0.117191
C36   C     C_R   0.756447 0.638534 0.417298 0.067398
C37   C     C_R   0.650216 0.649771 0.391427 -0.027762
C38   C     C_R   0.543968 0.586648 0.419568 -0.067725
C39   C     C_R   0.544934 0.519615 0.475817 -0.000931
C40   C     C_R   0.090013 0.583223 0.117277 0.392986
C41   C     C_R   0.651017 0.500664 0.496288 0.155144
C42   C     C_R   0.442586 0.465093 0.510478 -0.022308
C43   C     C_R   0.438668 0.374149 0.557535 0.030548
C44   C     C_R   0.539208 0.346017 0.572535 -0.026284
C45   C     C_R   0.003522 0.488408 0.971692 -0.028713
C46   C     C_R   0.645267 0.414417 0.544860 -0.127577
C47   C     C_R   0.345914 0.499883 0.502089 0.148149
C48   C     C_R   0.240736 0.348495 0.576418 0.024190
C49   C     C_R   0.931500 0.391240 0.127345 0.393180
C50   C     C_R   0.926404 0.386771 0.067161 0.038288
C51   C     C_R   0.006015 0.486316 0.032248 -0.038526
C52   C     C_R   0.088327 0.584720 0.057555 0.028606
C53   C     C_3   0.758019 0.177484 0.073307 -0.341152
C54   C     C_3   0.881962 0.622940 0.291437 -0.384551
C55   C     C_3   0.353572 0.829269 0.575999 -0.368635
C56   C     C_R   0.081927 0.588055 0.937039 0.036989
C57   C     C_3   0.774298 0.882944 0.599505 -0.389409
C58   C     C_2   0.540210 0.246452 0.617197 0.217381
C59   C     C_2   0.359002 0.610820 0.465715 0.259670
C60   C     C_3   0.647906 0.725134 0.333179 -0.415085
C61   C     C_2   0.824522 0.558390 0.764087 0.279066
C62   C     C_2   0.166906 0.430786 0.817596 0.270004
C63   C     C_3   0.139702 0.378923 0.245461 -0.363264
C64   C     C_R   0.163191 0.684681 0.963039 -0.116039
C65   C     C_R   0.166535 0.682946 0.022671 -0.119766
C66   C     C_R   0.921669 0.395239 0.885443 0.428308
Cu1   Cu    Cu3+1 0.098270 0.475410 0.513370 0.933378
Cu2   Cu    Cu3+1 0.901730 0.524590 0.486630 0.908484
H1    H     H_    0.108289 0.401489 0.349664 0.129894
H2    H     H_    0.161955 0.302452 0.600887 0.132401
H3    H     H_    0.331043 0.250178 0.627331 0.175081
H4    H     H_    0.839212 0.685304 0.395886 0.119303
H5    H     H_    0.460672 0.587660 0.395423 0.106273
H6    H     H_    0.720119 0.392935 0.560797 0.173565
H7    H     H_    0.224461 0.762034 0.937415 0.173557
H8    H     H_    0.230307 0.759218 0.041274 0.168920
H9    H     H_    0.852111 0.549571 0.657019 0.118043
H10   H     H_    0.143970 0.444437 0.700191 0.179898
H11   H     H_    0.809554 0.141021 0.109217 0.174478
H12   H     H_    0.906534 0.589941 0.187305 0.126316
H13   H     H_    0.691389 0.193243 0.091153 0.186470
H14   H     H_    0.704404 0.110910 0.044664 0.113745
H15   H     H_    0.945570 0.690311 0.318155 0.133022
H16   H     H_    0.852550 0.667202 0.249513 0.118990
H17   H     H_    0.798789 0.564426 0.313682 0.156529
H18   H     H_    0.270522 0.811255 0.595491 0.145195
H19   H     H_    0.362278 0.747394 0.582283 0.164453
H20   H     H_    0.431349 0.891362 0.601202 0.154324
H21   H     H_    0.873849 0.923829 0.613606 0.140097
H22   H     H_    0.724893 0.843537 0.639323 0.145735
H23   H     H_    0.107911 0.870307 0.404894 0.117141
H24   H     H_    0.755690 0.814154 0.574360 0.153629
H25   H     H_    0.624725 0.253011 0.643916 0.113595
H26   H     H_    0.292362 0.615113 0.429023 0.132677
H27   H     H_    0.738802 0.768892 0.316287 0.118879
H28   H     H_    0.580813 0.672163 0.300629 0.137377
H29   H     H_    0.620761 0.791889 0.337858 0.165155
H30   H     H_    0.761432 0.578507 0.729564 0.091549
H31   H     H_    0.166826 0.426972 0.864126 0.120849
H32   H     H_    0.235299 0.418672 0.265976 0.116224
H33   H     H_    0.096607 0.286622 0.265233 0.135963
H34   H     H_    0.470402 0.206870 0.373874 0.109502
H35   H     H_    0.142650 0.384313 0.198027 0.157522
H36   H     H_    0.260179 0.062975 0.370887 0.111412
H37   H     H_    0.905587 0.113782 0.569422 0.131043
H38   H     H_    0.549157 0.842453 0.549818 0.170253
H39   H     H_    0.783296 0.217706 0.959854 0.170370
H40   H     H_    0.679750 0.271921 0.415032 0.150874
N1    N     N_R   0.012166 0.488028 0.150487 -0.401520
N2    N     N_R   0.997719 0.492954 0.852566 -0.384513
N3    N     N_R   0.246280 0.438190 0.533650 -0.254245
N4    N     N_R   0.754320 0.561190 0.466710 -0.244215
O1    O     O_R   0.972510 0.318130 0.516820 -0.501332
O2    O     O_R   0.082990 0.479280 0.429170 -0.531205
O3    O     O_R   0.917010 0.520800 0.406580 -0.510220
O4    O     O_2   0.168501 0.676420 0.142173 -0.500987
O5    O     O_2   0.450078 0.154188 0.621755 -0.502471
O6    O     O_2   0.446791 0.699813 0.476249 -0.549214
O7    O     O_2   0.819706 0.564404 0.814440 -0.457935
O8    O     O_2   0.239932 0.406470 0.802412 -0.491450
O9    O     O_2   0.856763 0.301017 0.162849 -0.515247
O10   O     O_2   0.845409 0.302477 0.859782 -0.482906
O11   O     O_2   0.151093 0.683057 0.843138 -0.478173
O12   O     O_R   0.806530 0.359650 0.494230 -0.520951
O13   O     O_R   0.082990 0.479200 0.593420 -0.501585
O14   O     O_R   0.917010 0.520720 0.570830 -0.515914
O15   O     O_R   0.193470 0.640350 0.505770 -0.491704
O16   O     O_R   0.027490 0.681870 0.483180 -0.504686

loop_
_geom_bond_atom_site_label_1
_geom_bond_atom_site_label_2
_ccdc_geom_bond_type
C57   H24   S    
C61   O7    D    
C10   C63   S    
C63   H33   S    
C19   C31   A    
Cu2   O12   S    
C54   H16   S    
C1    C33   S    
C7    C8    A    
C39   C41   A    
C40   O4    S    
C2    O11   S    
C12   C23   A    
C26   C27   A    
C37   C38   A    
C65   H8    S    
C57   H21   S    
C4    O13   A    
C36   C37   A    
C53   H11   S    
C58   H25   S    
C24   C26   A    
Cu1   O13   S    
C38   C39   A    
C32   H23   S    
C27   C29   A    
C19   C32   A    
C10   C17   A    
C25   C30   A    
C53   H13   S    
Cu2   N4    S    
C55   H20   S    
C61   H30   S    
C45   C56   A    
C44   C58   S    
C8    C9    A    
C41   N4    A    
C36   N4    A    
C41   C46   A    
C56   C64   A    
C13   C28   S    
C59   H26   S    
C35   C43   A    
Cu2   O16   S    
C62   O8    D    
C12   C53   S    
C23   H39   S    
C26   C31   A    
C13   C14   A    
C34   C66   A    
C1    O1    A    
C35   C48   A    
C54   H15   S    
C44   C46   A    
C39   C42   A    
C3    C61   S    
C57   H22   S    
Cu1   Cu2   S    
C24   C25   A    
C63   H35   S    
C60   H29   S    
C63   H32   S    
C40   C52   A    
C47   C59   S    
C58   O5    D    
C51   C52   A    
C53   H14   S    
C43   C44   A    
C21   C57   S    
C29   C30   A    
C3    C9    A    
C28   O3    A    
Cu1   O15   S    
C15   H12   S    
C23   C34   A    
C49   O9    S    
C66   O10   S    
C50   C51   A    
C34   C45   A    
C18   H36   S    
C66   N2    A    
C16   O16   A    
C40   N1    A    
C28   O2    A    
C7    H10   S    
C20   C33   A    
C60   H28   S    
C4    C6    S    
C14   C54   S    
C59   O6    D    
C22   C24   A    
C18   C32   A    
C42   C43   A    
C5    H9    S    
Cu2   O14   S    
C46   H6    S    
C49   N1    A    
C20   H37   S    
Cu1   N3    S    
C9    N2    S    
C15   C17   A    
C2    N2    A    
C30   H40   S    
Cu1   O2    S    
C18   C27   A    
C48   H2    S    
C3    C5    A    
C17   N1    S    
C54   H17   S    
C12   C50   A    
C11   H1    S    
C6    C7    A    
C4    O14   A    
C64   C65   A    
C55   H18   S    
Cu1   O1    S    
C1    O12   A    
C22   H38   S    
C11   C13   A    
C5    C6    A    
C16   C19   S    
C47   N3    A    
C64   H7    S    
C29   H34   S    
C42   C47   A    
C55   H19   S    
C16   O15   A    
C37   C60   S    
C10   C11   A    
Cu2   O3    S    
C35   H3    S    
C62   H31   S    
C60   H27   S    
C48   N3    A    
C20   C21   A    
C49   C50   A    
C8    C62   S    
C45   C51   A    
C14   C15   A    
C2    C56   A    
C31   C55   S    
C21   C22   A    
C52   C65   A    
C36   H4    S    
C25   C33   A    
C38   H5    S    
