data_mof_unit_34849.cif
_audit_creation_date              2013-03-05T16:15:20-0500
_audit_creation_method            fapswitch 2.2
_symmetry_space_group_name_H-M    P1
_symmetry_Int_Tables_number       1
_space_group_crystal_system       triclinic
_cell_length_a                    8.464843
_cell_length_b                    17.189488
_cell_length_c                    18.763548
_cell_angle_alpha                 102.57131
_cell_angle_beta                  92.301598
_cell_angle_gamma                 98.384032
_cell_volume                      2628.96425349

loop_
_atom_site_label
_atom_site_type_symbol
_atom_site_description
_atom_site_fract_x
_atom_site_fract_y
_atom_site_fract_z
_atom_type_partial_charge
P1    P     P_3+3 0.038810 0.422920 0.331160 0.494623
O1    O     O_2   0.871520 0.445720 0.321500 -0.327095
O2    O     O_3   0.121030 0.451930 0.411150 -0.406844
O3    O     O_3   0.662190 0.593100 0.375060 -0.406405
O4    O     O_2   0.759375 0.533179 0.245248 -0.309670
O5    O     O_3   0.002647 0.317280 0.305138 -0.551192
O6    O     O_3   0.695518 0.678454 0.262455 -0.492401
C1    C     C_3   0.707483 0.820561 0.306144 -0.827988
P2    P     P_3+3 0.678260 0.686080 0.568600 0.446295
P3    P     P_3+3 0.132410 0.741334 0.428515 0.458725
O7    O     O_2   0.853880 0.696450 0.547730 -0.397889
O8    O     O_3   0.085100 0.636210 0.413950 -0.328776
O9    O     O_2   0.999785 0.774478 0.473860 -0.407487
O10   O     O_3   0.681918 0.707274 0.665007 -0.619333
O11   O     O_3   0.088313 0.770935 0.347002 -0.559344
C2    C     C_3   0.226028 0.789499 0.310779 0.976842
H1    H     H_    0.337147 0.779093 0.337723 -0.094394
C3    C     C_3   0.244769 0.877969 0.306150 -0.958032
H2    H     H_    0.141421 0.889273 0.273675 0.286242
H3    H     H_    0.248919 0.917439 0.361488 0.203540
C4    C     C_3   0.279862 0.712887 0.641972 0.221063
H4    H     H_    0.392719 0.688040 0.638823 0.138499
H5    H     H_    0.213256 0.696214 0.587264 0.045626
C5    C     C_3   0.317892 0.805183 0.666502 0.142716
H6    H     H_    0.414192 0.828172 0.634675 0.031497
H7    H     H_    0.210175 0.831689 0.655268 0.058527
Ba1   Ba    Ba6+2 0.853800 0.535410 0.467450 1.630272
C6    C     C_3   0.957919 0.282663 0.363670 0.205249
H8    H     H_    0.829431 0.284806 0.370609 0.115078
H9    H     H_    0.029089 0.313574 0.415708 0.082771
C7    C     C_3   0.987521 0.195010 0.346014 0.159308
H10   H     H_    0.115477 0.192900 0.336622 0.088639
H11   H     H_    0.961954 0.167467 0.392827 0.040063
C8    C     C_3   0.834445 0.742740 0.698944 0.925450
H12   H     H_    0.926654 0.709284 0.673488 0.038426
C9    C     C_3   0.872421 0.831847 0.695821 -0.922976
H13   H     H_    0.911596 0.837434 0.641374 0.192328
H14   H     H_    0.971352 0.864225 0.736785 0.281166
H15   H     H_    0.765456 0.861668 0.706562 0.287866
P4    P     P_3+3 0.150900 0.577150 0.668860 0.510630
O12   O     O_2   0.318180 0.554310 0.678550 -0.366719
O13   O     O_3   0.068680 0.548140 0.588860 -0.389446
O14   O     O_3   0.527520 0.406960 0.624950 -0.408863
O15   O     O_3   0.186634 0.682631 0.692306 -0.532562
P5    P     P_3+3 0.055941 0.257650 0.577428 0.449990
O16   O     O_3   0.608500 0.402060 0.457050 -0.382320
O17   O     O_3   0.104610 0.363860 0.586060 -0.379321
O18   O     O_2   0.176518 0.222887 0.524600 -0.427413
O19   O     O_3   0.107694 0.218701 0.655183 -0.666491
Ba2   Ba    Ba6+2 0.336030 0.464660 0.532560 1.622014
P6    P     P_3+3 0.634147 0.583351 0.280864 0.518290
C10   C     C_3   0.680251 0.738139 0.324901 0.465989
H16   H     H_    0.559364 0.728160 0.345075 0.018173
H17   H     H_    0.694910 0.868025 0.355161 0.207500
O20   O     O_3   0.581210 0.598010 0.542960 -0.362385
C11   C     C_3   0.409318 0.325084 0.303226 0.351659
C12   C     C_3   0.325122 0.278775 0.229775 -0.650128
H18   H     H_    0.226343 0.232545 0.237887 0.237901
H19   H     H_    0.275146 0.320444 0.200690 0.212438
H20   H     H_    0.409837 0.246902 0.195483 0.311094
P7    P     P_3+3 0.511895 0.301608 0.427311 0.464153
O21   O     O_2   0.335820 0.303580 0.452320 -0.389766
O22   O     O_3   0.494527 0.273316 0.331780 -0.524161
H21   H     H_    0.356945 0.894819 0.280533 0.253687
C13   C     C_3   0.018334 0.223064 0.719007 1.216066
C14   C     C_3   0.013208 0.142517 0.743964 -0.835942
H22   H     H_    0.122511 0.138981 0.776589 0.232585
H23   H     H_    0.915261 0.133377 0.780461 0.279452
H24   H     H_    0.993966 0.090755 0.695638 0.236298
P8    P     P_3+3 0.560959 0.420263 0.719493 0.511305
C15   C     C_3   0.453556 0.268778 0.672573 0.630948
H25   H     H_    0.541366 0.266779 0.630722 0.063753
O23   O     O_2   0.436967 0.470085 0.756648 -0.391328
O24   O     O_3   0.509726 0.324613 0.738496 -0.470253
H26   H     H_    0.502975 0.161042 0.711747 0.314034
C16   C     C_3   0.406819 0.183834 0.685625 -0.820294
H27   H     H_    0.360129 0.140530 0.633479 0.209488
H28   H     H_    0.317712 0.184047 0.725138 0.267047
C17   C     C_R   0.999957 0.460778 0.043596 0.017885
C18   C     C_R   0.900676 0.419872 0.087243 -0.071073
C19   C     C_R   0.743179 0.382839 0.058577 0.473674
C20   C     C_R   0.684986 0.391121 0.990320 -0.266387
C21   C     C_R   0.781676 0.432138 0.947624 0.068065
C22   C     C_R   0.940312 0.466156 0.973314 0.109165
C23   C     C_R   0.721339 0.437364 0.878654 -0.086259
C24   C     C_R   0.819657 0.472179 0.831554 0.011901
C25   C     C_R   0.978532 0.508934 0.857582 0.085305
C26   C     C_R   0.037990 0.506117 0.928936 0.068058
C27   C     C_R   0.765475 0.468579 0.758378 0.307099
C28   C     C_R   0.870307 0.498965 0.711784 -0.344238
C29   C     C_R   0.026569 0.536852 0.736497 0.258628
C30   C     C_R   0.080046 0.545424 0.811404 0.039756
C31   C     C_R   0.158151 0.496545 0.070078 0.091416
C32   C     C_R   0.215160 0.495414 0.142180 0.097018
C33   C     C_R   0.111915 0.459911 0.188675 -0.055832
C34   C     C_R   0.959464 0.418923 0.158637 -0.045154
H29   H     H_    0.828283 0.494017 0.655481 0.156439
H30   H     H_    0.597817 0.411798 0.861825 0.194205
H31   H     H_    0.884608 0.387720 0.191723 0.230161
C35   C     C_R   0.234596 0.584485 0.840528 -0.032653
C36   C     C_R   0.293908 0.580789 0.910686 0.027465
C37   C     C_R   0.196572 0.540649 0.954861 0.043110
C38   C     C_R   0.257494 0.535766 0.025141 0.005213
C39   C     C_R   0.450850 0.616188 0.936727 -0.275667
C40   C     C_R   0.514188 0.611721 0.005680 0.513445
C41   C     C_R   0.417022 0.570940 0.050662 -0.086571
C42   C     C_R   0.373702 0.532251 0.168312 0.031798
C43   C     C_R   0.473413 0.566459 0.121071 -0.048531
C44   C     C_R   0.426814 0.536763 0.241962 0.219812
C45   C     C_R   0.319759 0.507244 0.288839 -0.478588
C46   C     C_R   0.163474 0.468026 0.264014 0.249629
H32   H     H_    0.312234 0.616356 0.808490 0.171222
H33   H     H_    0.594351 0.592537 0.140368 0.222168
C47   C     C_2   0.438117 0.722569 0.485690 -0.467990
C48   C     C_3   0.320515 0.781239 0.488325 0.141112
C49   C     C_2   0.400317 0.863925 0.484268 -0.282614
C50   C     C_2   0.560195 0.884381 0.500077 0.136545
C51   C     C_2   0.653218 0.824164 0.520644 -0.311465
C52   C     C_1   0.581199 0.750235 0.520194 0.295644
C53   C     C_R   0.818384 0.130869 0.503460 -0.253465
C54   C     C_R   0.863449 0.214460 0.525979 0.334873
C55   C     C_R   0.617501 0.233994 0.467112 0.249942
C56   C     C_R   0.567195 0.150606 0.448345 -0.214735
C57   C     C_R   0.665042 0.098567 0.468754 0.131560
C58   C     C_2   0.643811 0.966637 0.502911 -0.163282
C59   C     C_2   0.598915 0.012221 0.458220 -0.153406
C60   C     C_R   0.762653 0.265793 0.508192 -0.482595
H34   H     H_    0.500463 0.987583 0.416986 0.140223
H35   H     H_    0.899827 0.092158 0.516576 0.158118
H36   H     H_    0.742317 0.989923 0.544365 0.166797
H37   H     H_    0.326723 0.908500 0.476761 0.138579
H38   H     H_    0.408341 0.660682 0.454356 0.167740
H39   H     H_    0.801219 0.330446 0.523206 0.183250
H40   H     H_    0.771258 0.737951 0.369020 0.160828
S1    S     S_3+6 0.383074 0.839777 0.761733 0.064245
O25   O     O_2   0.519228 0.908694 0.771347 -0.234423
O26   O     O_2   0.247031 0.868700 0.803460 -0.217210
O27   O     O_3   0.443539 0.764713 0.794689 -0.493223
H41   H     H_    0.436033 0.780364 0.848312 0.393720
S2    S     S_3+6 0.865299 0.134895 0.267951 0.034385
O28   O     O_2   0.914473 0.162973 0.200468 -0.223146
O29   O     O_2   0.887096 0.048234 0.259463 -0.243685
O30   O     O_3   0.671837 0.142607 0.279562 -0.503398
H42   H     H_    0.619306 0.131485 0.229347 0.401013
S3    S     S_3+6 0.838816 0.733808 0.792417 0.034444
O31   O     O_2   0.008424 0.735213 0.820033 -0.242130
O32   O     O_2   0.773800 0.802578 0.839648 -0.175319
O33   O     O_3   0.729519 0.646047 0.798615 -0.563589
H43   H     H_    0.620728 0.646787 0.777682 0.367262
H44   H     H_    0.829734 0.832905 0.287732 0.271101
H45   H     H_    0.316691 0.347707 0.338559 0.083919
H46   H     H_    0.494744 0.377727 0.296239 0.132325
H47   H     H_    0.618387 0.822801 0.261920 0.287533
S4    S     S_3+6 0.111586 0.304293 0.793242 -0.006416
O34   O     O_2   0.005297 0.315539 0.855630 -0.255409
O35   O     O_2   0.269106 0.289397 0.822729 -0.279475
O36   O     O_3   0.140201 0.388736 0.762388 -0.534469
H48   H     H_    0.188558 0.373870 0.715474 0.369050
S5    S     S_3+6 0.817675 0.233440 0.704368 -0.073567
O37   O     O_2   0.740079 0.243729 0.775798 -0.244897
O38   O     O_2   0.809969 0.306070 0.673135 -0.403462
O39   O     O_3   0.732662 0.146003 0.647894 -0.617081
H49   H     H_    0.654961 0.159824 0.614212 0.341159
H50   H     H_    0.351986 0.288641 0.647990 0.120259
S6    S     S_3+6 0.198863 0.726750 0.220636 0.004175
O40   O     O_2   0.358438 0.722937 0.189066 -0.290559
O41   O     O_2   0.122003 0.643671 0.224750 -0.291693
O42   O     O_3   0.080222 0.762887 0.165890 -0.439547
H51   H     H_    0.973501 0.756198 0.185539 0.393091
S7    S     S_3+6 0.611663 0.328124 0.107035 -0.063801
O43   O     O_2   0.571825 0.386753 0.172700 -0.345748
O44   O     O_2   0.459609 0.288502 0.061176 -0.267782
O45   O     O_3   0.700274 0.257229 0.134629 -0.488574
H52   H     H_    0.735625 0.225098 0.089364 0.374679
H53   H     H_    0.563222 0.364613 0.969687 0.210189
H54   H     H_    0.524032 0.648274 0.903122 0.221130
S8    S     S_3+6 0.711019 0.663589 0.035140 -0.003307
O46   O     O_2   0.700964 0.734376 0.096985 -0.220149
O47   O     O_2   0.810831 0.608595 0.061538 -0.328832
O48   O     O_3   0.799396 0.697110 0.966433 -0.448391
H55   H     H_    0.914143 0.713073 0.983613 0.407711
H56   H     H_    0.361010 0.512503 0.345276 0.156615
H57   H     H_    0.780825 0.841313 0.533796 0.173169
H58   H     H_    0.452337 0.126504 0.418131 0.152681

loop_
_geom_bond_atom_site_label_1
_geom_bond_atom_site_label_2
_geom_bond_distance
_ccdc_geom_bond_type
S1    O27   1.680403 S    
C14   H23   1.111537 S    
C25   C26   1.424568 A    
O36   H48   0.984499 S    
C5    S1    1.792646 S    
C10   H40   1.108802 S    
C33   C34   1.408185 A    
S2    O30   1.681143 S    
C13   S5    1.750577 S    
C31   C38   1.418350 A    
C47   C48   1.511797 S    
C12   H18   1.105852 S    
S1    O25   1.502114 D    
C39   H54   1.081044 S    
O45   H52   0.990140 S    
C11   C12   1.522862 S    
P2    Ba1   3.424454 S    
S6    O40   1.500989 D    
O19   C13   1.436025 S    
C21   C22   1.404929 A    
C6    H8    1.105536 S    
C16   H28   1.078503 S    
O6    C10   1.403467 S    
C54   C60   1.393865 A    
P3    O11   1.756664 S    
C23   C24   1.405657 A    
C17   C22   1.419766 A    
C8    S3    1.792967 S    
Ba1   O20   2.968592 S    
C12   H19   1.108972 S    
C14   H24   1.111346 S    
S7    O43   1.496472 D    
C48   C49   1.501180 S    
C34   H31   1.073323 S    
C49   C50   1.351570 D    
C8    H12   1.099720 S    
C55   C60   1.395451 A    
P7    O22   1.746344 S    
C45   C46   1.405461 A    
C23   H30   1.079440 S    
C51   C52   1.325025 D    
C58   H36   1.084234 S    
O5    C6    1.398502 S    
S5    O37   1.503488 D    
C2    H1    1.105698 S    
S8    O47   1.501980 D    
P8    O24   1.754467 S    
C42   C43   1.409312 A    
C7    H11   1.099528 S    
C5    H6    1.106872 S    
O1    Ba1   2.856840 S    
P2    O20   1.576927 S    
O7    Ba1   2.848888 S    
C18   C34   1.414496 A    
C1    C10   1.520723 S    
C28   H29   1.082456 S    
S4    O35   1.500529 D    
C47   C52   1.321841 D    
Ba1   Ba2   4.618248 S    
P7    O21   1.583281 D    
P4    O13   1.573322 S    
C14   H22   1.105259 S    
P6    C44   1.867380 S    
C4    H4    1.100489 S    
C7    S2    1.786415 S    
C42   C44   1.418157 A    
C32   C33   1.426456 A    
C39   C40   1.402430 A    
S3    O32   1.502849 D    
O2    Ba2   2.807774 S    
S3    O31   1.501674 D    
O17   Ba2   2.787954 S    
P5    O17   1.782055 S    
O8    Ba1   2.787318 S    
C32   C42   1.416546 A    
S5    O39   1.682185 S    
C15   H50   1.091274 S    
O3    P6    1.741855 S    
C53   H35   1.081708 S    
C36   C37   1.407139 A    
O42   H51   0.990038 S    
C56   C57   1.404466 A    
S2    O28   1.503098 D    
S4    O36   1.665920 S    
C60   H39   1.082374 S    
C1    H17   1.108806 S    
C29   C30   1.428783 A    
P2    O10   1.763884 S    
C24   C25   1.418259 A    
C3    H2    1.110257 S    
C12   H20   1.107522 S    
O16   P7    1.758922 S    
P5    C54   1.829483 S    
C51   H57   1.081032 S    
C24   C27   1.415484 A    
C19   C20   1.397278 A    
P1    O5    1.752004 S    
P7    C55   1.826164 S    
P1    O2    1.573161 S    
C43   H33   1.070427 S    
C1    H44   1.109891 S    
H26   C16   1.095799 S    
C6    C7    1.530435 S    
C13   S4    1.804590 S    
C4    O15   1.392561 S    
C7    H10   1.108838 S    
P5    O19   1.796696 S    
C2    S6    1.783088 S    
S8    O48   1.681904 S    
P8    O23   1.543396 D    
S5    O38   1.498528 D    
C11   O22   1.401004 S    
P4    Ba2   3.433406 S    
C31   C32   1.423137 A    
C19   S7    1.760356 S    
C16   H27   1.110741 S    
C11   H45   1.106339 S    
C1    H47   1.109472 S    
P2    O7    1.547565 D    
S4    O34   1.501350 D    
P3    O8    1.750895 S    
O13   Ba2   2.962393 S    
Ba1   O16   2.826422 S    
C40   S8    1.776169 S    
P4    O12   1.537780 D    
C21   C23   1.398074 A    
C35   H32   1.078663 S    
O14   P8    1.744592 S    
C4    H5    1.109990 S    
C58   C59   1.344942 D    
P2    C52   1.832050 S    
O3    Ba1   2.758784 S    
P8    C27   1.853271 S    
C11   H46   1.107867 S    
C9    H14   1.108158 S    
O12   Ba2   2.857427 S    
S3    O33   1.680263 S    
C25   C30   1.421899 A    
C53   C54   1.396994 A    
C30   C35   1.409841 A    
C56   H58   1.083681 S    
C57   C59   1.475292 S    
O39   H49   0.982854 S    
P5    O18   1.543583 D    
S1    O26   1.502081 D    
C9    H13   1.106129 S    
C59   H34   1.084038 S    
C47   H38   1.085588 S    
C9    H15   1.108256 S    
C22   C26   1.409794 A    
C5    H7    1.109473 S    
C18   C19   1.420487 A    
P3    O9    1.536574 D    
O10   C8    1.406975 S    
C15   O24   1.407184 S    
C26   C37   1.407279 A    
O14   Ba2   2.758261 S    
C17   C31   1.411220 A    
S2    O29   1.502579 D    
S6    O42   1.681208 S    
C40   C41   1.423200 A    
O16   Ba2   2.967731 S    
Ba2   O20   2.825798 S    
C2    C3    1.527629 S    
O2    Ba1   2.961531 S    
C55   C56   1.396484 A    
O6    P6    1.753362 S    
C15   H25   1.101330 S    
C33   C46   1.433568 A    
C50   C51   1.492500 S    
P1    C46   1.896187 S    
Ba1   O13   2.807160 S    
C3    H21   1.110688 S    
C28   C29   1.398877 A    
C15   C16   1.530844 S    
C49   H37   1.083584 S    
C41   C43   1.408365 A    
Ba2   O21   2.849060 S    
O11   C2    1.404386 S    
P1    O1    1.537497 D    
C6    H9    1.110056 S    
C35   C36   1.407704 A    
C8    C9    1.532929 S    
C38   C41   1.415034 A    
C3    H3    1.105964 S    
O33   H43   0.989458 S    
C13   C14   1.550652 S    
P4    C29   1.864261 S    
C37   C38   1.420612 A    
O27   H41   0.990481 S    
P3    C48   1.862298 S    
C17   C18   1.415995 A    
C53   C57   1.407746 A    
P4    O15   1.747777 S    
C20   H53   1.083549 S    
C45   H56   1.082104 S    
S6    O41   1.499919 D    
S8    O46   1.502642 D    
C4    C5    1.534210 S    
P1    Ba1   3.432710 S    
O4    P6    1.544889 D    
C36   C39   1.398788 A    
S7    O44   1.503743 D    
C20   C21   1.392497 A    
C27   C28   1.396626 A    
C44   C45   1.405885 A    
C50   C58   1.474933 S    
O48   H55   0.990602 S    
O30   H42   0.992562 S    
C10   H16   1.108166 S    
S7    O45   1.681023 S    
