data_mof_unit_30665.cif
_audit_creation_date              2012-12-10T18:43:12-0500
_audit_creation_method            fapswitch 2.2
_symmetry_space_group_name_H-M    P1
_symmetry_Int_Tables_number       1
_space_group_crystal_system       triclinic
_cell_length_a                    10.608837
_cell_length_b                    9.85435
_cell_length_c                    10.673774
_cell_angle_alpha                 90.406658
_cell_angle_beta                  89.858182
_cell_angle_gamma                 91.000512
_cell_volume                      1115.66910109

loop_
_atom_site_label
_atom_site_type_symbol
_atom_type_description
_atom_site_fract_x
_atom_site_fract_y
_atom_site_fract_z
_atom_type_partial_charge
C1    C     C_R   0.260524 0.498576 0.499952 0.981405
C2    C     C_R   0.934770 0.510677 0.615618 0.108236
C3    C     C_R   0.872176 0.505524 0.500031 -0.148175
C4    C     C_R   0.128106 0.494531 0.500213 -0.141529
C5    C     C_R   0.934983 0.498765 0.384427 0.104525
C6    C     C_R   0.065701 0.490181 0.384626 0.102719
C7    C     C_R   0.427621 0.071178 0.583458 -0.039402
C8    C     C_R   0.572455 0.072649 0.416601 -0.060122
C9    C     C_R   0.427593 0.927381 0.583438 -0.067297
C10   C     C_R   0.572462 0.928858 0.416617 -0.076902
C11   C     C_3   0.166788 0.376409 0.780754 -0.796171
C12   C     C_R   0.739591 0.501350 0.500201 0.994380
C13   C     C_3   0.838079 0.655753 0.771185 -0.794234
C14   C     C_3   0.836113 0.628535 0.221043 -0.780579
C15   C     C_3   0.165243 0.349017 0.227271 -0.795483
C16   C     C_R   0.501196 0.499138 0.262362 1.049046
C17   C     C_R   0.507824 0.500344 0.737635 1.020084
C18   C     C_2   0.558620 0.389860 0.933755 0.353918
C19   C     C_2   0.573804 0.403903 0.069375 0.340018
C20   C     C_2   0.537199 0.502777 0.868176 -0.421410
C21   C     C_2   0.502095 0.494215 0.129750 -0.420484
C22   C     C_R   0.065529 0.502204 0.615794 0.106137
H1    H     H_    0.545017 0.602715 0.911570 0.105289
H2    H     H_    0.080025 0.320752 0.810596 0.230242
H3    H     H_    0.229165 0.390965 0.863354 0.237306
H4    H     H_    0.217373 0.314325 0.710428 0.262616
H5    H     H_    0.898777 0.459841 0.801258 0.240130
H6    H     H_    0.926731 0.713827 0.789901 0.226719
H7    H     H_    0.781805 0.652057 0.858932 0.232431
H8    H     H_    0.783015 0.709777 0.699494 0.273334
H9    H     H_    0.900193 0.432019 0.202137 0.250254
H10   H     H_    0.923792 0.685073 0.195512 0.220077
H11   H     H_    0.783015 0.688628 0.290959 0.255396
H12   H     H_    0.436807 0.560088 0.082346 0.097458
H13   H     H_    0.776910 0.616385 0.135937 0.240145
H14   H     H_    0.102187 0.544455 0.199670 0.232503
H15   H     H_    0.077740 0.291970 0.201792 0.229744
H16   H     H_    0.215742 0.292373 0.300566 0.272154
H17   H     H_    0.227012 0.355592 0.143300 0.234785
H18   H     H_    0.369796 0.124930 0.650291 0.133252
H19   H     H_    0.630455 0.127617 0.349908 0.166779
H20   H     H_    0.369623 0.872419 0.650163 0.131804
H21   H     H_    0.630376 0.875140 0.349854 0.124907
H22   H     H_    0.559465 0.192857 0.942507 0.330084
H23   H     H_    0.711507 0.276853 0.073157 0.324541
H24   H     H_    0.101202 0.572609 0.797094 0.233295
N1    N     N_R   0.500000 0.857200 0.500000 -0.083638
N2    N     N_R   0.500000 0.142810 0.500000 -0.087595
N3    N     N_2   0.135586 0.507359 0.729942 -0.317382
N4    N     N_2   0.865050 0.518983 0.729970 -0.306657
N5    N     N_2   0.865470 0.496208 0.270009 -0.277726
N6    N     N_2   0.135889 0.484488 0.270350 -0.319701
O1    O     O_R   0.316770 0.614620 0.499990 -0.620218
O2    O     O_3   0.656814 0.323749 0.134518 -0.766058
O3    O     O_R   0.683230 0.614620 0.500010 -0.645974
O4    O     O_R   0.316800 0.385290 0.500000 -0.650892
O5    O     O_R   0.683200 0.385290 0.500000 -0.607076
O6    O     O_R   0.500000 0.614630 0.319080 -0.641742
O7    O     O_R   0.500000 0.614630 0.680920 -0.642739
O8    O     O_R   0.500030 0.385300 0.319080 -0.572559
O9    O     O_R   0.499970 0.385300 0.680920 -0.550277
O10   O     O_3   0.560168 0.263276 0.876662 -0.744520
Zn1   Zn    Zn3+2 0.500000 0.653120 0.500000 0.940806
Zn2   Zn    Zn3+2 0.500000 0.346880 0.500000 0.990021

loop_
_geom_bond_atom_site_label_1
_geom_bond_atom_site_label_2
_ccdc_geom_bond_type
C2    C22   A    
O9    Zn2   S    
C7    H18   S    
C8    N2    A    
C13   H6    S    
C16   C21   S    
C11   N3    S    
C4    C22   A    
C11   H2    S    
O7    Zn1   S    
C14   N5    S    
H14   N6    S    
C20   H1    S    
O8    Zn2   S    
C1    C4    S    
C17   O9    A    
C7    N2    A    
C14   H11   S    
O4    Zn2   S    
C2    C3    A    
C15   H16   S    
C16   O6    A    
C15   N6    S    
O6    Zn1   S    
O1    Zn1   S    
H24   N3    S    
C15   H17   S    
C9    H20   S    
C17   O7    A    
C22   N3    S    
C12   O5    A    
C19   O2    S    
C8    C10   A    
C19   C21   D    
C1    O4    A    
H23   O2    S    
C9    N1    A    
C18   C20   D    
N1    Zn1   S    
C5    C6    A    
N2    Zn2   S    
C12   O3    A    
C11   H3    S    
C13   N4    S    
C6    N6    S    
C13   H8    S    
C14   H13   S    
C17   C20   S    
C14   H10   S    
C8    H19   S    
H5    N4    S    
C4    C6    A    
C18   C19   S    
C16   O8    A    
C13   H7    S    
C10   N1    A    
C7    C9    A    
C1    O1    A    
C15   H15   S    
C3    C12   S    
C2    N4    S    
C11   H4    S    
H22   O10   S    
C10   H21   S    
C21   H12   S    
C18   O10   S    
C5    N5    S    
H9    N5    S    
O5    Zn2   S    
C3    C5    A    
O3    Zn1   S    
