data_mof_unit_18817.cif
_audit_creation_date              2013-03-05T15:41:40-0500
_audit_creation_method            fapswitch 2.2
_symmetry_space_group_name_H-M    P1
_symmetry_Int_Tables_number       1
_space_group_crystal_system       triclinic
_cell_length_a                    17.180269
_cell_length_b                    8.678798
_cell_length_c                    7.520074
_cell_angle_alpha                 103.348205
_cell_angle_beta                  91.69276
_cell_angle_gamma                 93.854437
_cell_volume                      1087.34159129

loop_
_atom_site_label
_atom_site_type_symbol
_atom_site_description
_atom_site_fract_x
_atom_site_fract_y
_atom_site_fract_z
_atom_type_partial_charge
O1    O     O_R   0.505650 0.286040 0.618880 -0.556006
O2    O     O_R   0.494350 0.713960 0.381120 -0.546744
O3    O     O_R   0.490960 0.256910 0.309800 -0.628855
O4    O     O_R   0.509040 0.743090 0.690200 -0.632370
C1    C     C_R   0.497117 0.199728 0.453435 0.847071
C2    C     C_R   0.502710 0.800266 0.546616 0.842159
O5    O     O_R   0.394600 0.516230 0.672450 -0.537146
O6    O     O_R   0.605400 0.483770 0.327550 -0.534717
O7    O     O_R   0.379910 0.487100 0.363380 -0.572183
O8    O     O_R   0.620090 0.512900 0.636620 -0.584010
C3    C     C_R   0.351053 0.510253 0.523692 0.829813
C4    C     C_R   0.648564 0.502237 0.477409 0.802380
Cu1   Cu    Cu3+1 0.508700 0.517250 0.683000 1.037239
Cu2   Cu    Cu3+1 0.491300 0.482750 0.317000 1.043800
C5    C     C_R   0.266829 0.535533 0.533588 -0.209709
C6    C     C_R   0.733082 0.520858 0.475574 -0.197913
C7    C     C_R   0.219817 0.539847 0.375523 -0.127575
C8    C     C_R   0.772514 0.666760 0.567811 -0.108247
C9    C     C_R   0.139539 0.553239 0.389502 0.371842
C10   C     C_R   0.852628 0.671115 0.617234 0.468242
C11   C     C_R   0.107582 0.585956 0.561954 -0.077127
C12   C     C_R   0.890547 0.528430 0.581406 -0.089002
C13   C     C_R   0.154213 0.592378 0.720224 0.444712
C14   C     C_R   0.852063 0.385515 0.480117 0.463180
C15   C     C_R   0.232724 0.560720 0.703975 -0.308053
C16   C     C_R   0.772613 0.383048 0.429966 -0.274205
C17   C     C_2   0.025586 0.619863 0.570470 -0.112082
C18   C     C_2   0.973430 0.528978 0.635377 -0.051485
H1    H     H_    0.739830 0.271584 0.368111 0.154020
H2    H     H_    0.267818 0.562078 0.825761 0.223812
H3    H     H_    0.992564 0.435120 0.696444 0.172320
H4    H     H_    0.005807 0.696371 0.485721 0.172588
C19   C     C_2   0.494249 0.031239 0.428238 -0.357410
C20   C     C_2   0.505499 0.968749 0.571934 -0.353185
H5    H     H_    0.482126 0.958372 0.290792 0.174532
H6    H     H_    0.517506 0.041604 0.709478 0.171098
N1    N     N_2   0.478180 0.456750 0.041980 0.168864
N2    N     N_2   0.521820 0.543250 0.958020 0.154383
C21   C     C_2   0.251665 0.541399 0.195495 0.519233
H7    H     H_    0.230932 0.450551 0.075718 0.061490
O9    O     O_2   0.298167 0.649420 0.178943 -0.544709
C22   C     C_2   0.728087 0.810629 0.620264 0.357061
H8    H     H_    0.676773 0.822646 0.538360 0.043431
O10   O     O_2   0.746150 0.913497 0.758611 -0.545720
O11   O     O_3   0.122939 0.627115 0.890611 -0.548003
C23   C     C_3   0.136331 0.791838 0.965197 -0.214693
H9    H     H_    0.110268 0.820923 0.100988 0.204984
H10   H     H_    0.107839 0.861578 0.877988 0.137794
H11   H     H_    0.199922 0.828380 0.986170 0.157794
O12   O     O_3   0.892413 0.248608 0.446560 -0.618193
C24   C     C_3   0.877024 0.157003 0.266069 -0.332021
H12   H     H_    0.874873 0.231633 0.163870 0.179419
H13   H     H_    0.822259 0.079366 0.257149 0.186984
H14   H     H_    0.925169 0.078079 0.229840 0.190155
O13   O     O_3   0.893067 0.810132 0.715324 -0.552945
C25   C     C_3   0.906894 0.917532 0.601518 -0.238512
H15   H     H_    0.867815 0.015635 0.635556 0.244545
H16   H     H_    0.900203 0.862464 0.451743 0.121692
H17   H     H_    0.967649 0.971706 0.630388 0.164820
O14   O     O_3   0.092942 0.549273 0.234779 -0.559136
C26   C     C_3   0.061010 0.392023 0.165233 -0.281494
H18   H     H_    0.024826 0.349346 0.266881 0.180133
H19   H     H_    0.107431 0.309834 0.121126 0.126164
H20   H     H_    0.022428 0.389094 0.043398 0.202777
O15   O     O_3   0.411657 0.392950 0.946544 -0.470307
C27   C     C_3   0.394887 0.241404 0.978507 -0.145336
H21   H     H_    0.366851 0.249079 0.110596 0.155446
H22   H     H_    0.447568 0.172663 0.970640 0.140762
H23   H     H_    0.352327 0.174214 0.869765 0.118777
O16   O     O_3   0.588145 0.607466 0.053889 -0.482836
C28   C     C_3   0.603751 0.760042 0.024375 -0.081044
H24   H     H_    0.550637 0.827577 0.034165 0.123629
H25   H     H_    0.630618 0.753652 0.891593 0.191791
H26   H     H_    0.646652 0.827059 0.132474 0.122037

loop_
_geom_bond_atom_site_label_1
_geom_bond_atom_site_label_2
_geom_bond_distance
_ccdc_geom_bond_type
C9    C11   1.398883 A    
C28   H26   1.109512 S    
C27   H22   1.112660 S    
O7    Cu2   1.956637 S    
N2    O16   1.345125 S    
N1    N2    1.302114 D    
C13   O11   1.380381 S    
C9    O14   1.385136 S    
C26   H20   1.109303 S    
C24   H13   1.110817 S    
C8    C10   1.410786 A    
C25   H17   1.109583 S    
O5    Cu1   1.958871 S    
O6    C4    1.302646 A    
C24   H14   1.109450 S    
C17   C18   1.331128 D    
O13   C25   1.417139 S    
C8    C22   1.488522 S    
C19   C20   1.331000 D    
C11   C17   1.458606 S    
O15   C27   1.403482 S    
C28   H24   1.112485 S    
C21   O9    1.221355 D    
C12   C18   1.468478 S    
O11   C23   1.410389 S    
Cu2   N1    2.032040 S    
O5    C3    1.316199 A    
O7    C3    1.294749 A    
C23   H11   1.113181 S    
Cu1   N2    2.032040 S    
O2    C2    1.294257 A    
O3    Cu2   1.947842 S    
C22   O10   1.220875 D    
C10   O13   1.388708 S    
O1    C1    1.294096 A    
O8    C4    1.292622 A    
O4    C2    1.292928 A    
C7    C9    1.396875 A    
C14   C16   1.402761 A    
O12   C24   1.412987 S    
C20   H6    1.086317 S    
C11   C13   1.403049 A    
C6    C16   1.393882 A    
C26   H18   1.111656 S    
O2    Cu2   1.949205 S    
C12   C14   1.406956 A    
C5    C15   1.401835 A    
C27   H23   1.109311 S    
O1    Cu1   1.949205 S    
C22   H8    1.085066 S    
C14   O12   1.392359 S    
C24   H12   1.114865 S    
C23   H10   1.113639 S    
C2    C20   1.427645 S    
C21   H7    1.084076 S    
O16   C28   1.402169 S    
C27   H21   1.106872 S    
C25   H15   1.107974 S    
C16   H1    1.083010 S    
C6    C8    1.412378 A    
C13   C15   1.397787 A    
C7    C21   1.477697 S    
C28   H25   1.103767 S    
O4    Cu1   1.947842 S    
C5    C7    1.426372 A    
C23   H9    1.109129 S    
C15   H2    1.078824 S    
O6    Cu2   1.958874 S    
C19   H5    1.086000 S    
C17   H4    1.084199 S    
Cu1   Cu2   2.704306 S    
C25   H16   1.116529 S    
C3    C5    1.479528 S    
C18   H3    1.087330 S    
C26   H19   1.112528 S    
C4    C6    1.451007 S    
N1    O15   1.345662 S    
C10   C12   1.412534 A    
O14   C26   1.410612 S    
O3    C1    1.293063 A    
O8    Cu1   1.956637 S    
C1    C19   1.427727 S    
