data_mof_unit_15868.cif
_audit_creation_date              2012-12-11T15:42:57-0500
_audit_creation_method            fapswitch 2.2
_symmetry_space_group_name_H-M    P1
_symmetry_Int_Tables_number       1
_space_group_crystal_system       triclinic
_cell_length_a                    19.191573
_cell_length_b                    10.960338
_cell_length_c                    18.78738
_cell_angle_alpha                 89.99209
_cell_angle_beta                  90.032825
_cell_angle_gamma                 90.132637
_cell_volume                      3951.84134185

loop_
_atom_site_label
_atom_site_type_symbol
_atom_type_description
_atom_site_fract_x
_atom_site_fract_y
_atom_site_fract_z
_atom_type_partial_charge
C1    C     C_R   0.712414 0.331543 0.138354 0.578331
C2    C     C_R   0.286392 0.333749 0.862024 0.581744
C3    C     C_R   0.212413 0.831535 0.138355 0.578367
C4    C     C_R   0.786385 0.833758 0.862025 0.581761
C5    C     C_R   0.472878 0.394145 0.937526 -0.057534
C6    C     C_R   0.453473 0.353175 0.082215 -0.010059
C7    C     C_R   0.972851 0.894129 0.937544 -0.057590
C8    C     C_R   0.953445 0.853140 0.082231 -0.010116
C9    C     C_R   0.946542 0.986602 0.980779 -0.103788
C10   C     C_R   0.934787 0.964834 0.052588 -0.102749
C11   C     C_R   0.446570 0.486624 0.980758 -0.103711
C12   C     C_R   0.434814 0.464865 0.052567 -0.102738
C13   C     C_R   0.767687 0.865075 0.934404 0.070882
C14   C     C_R   0.222562 0.845352 0.061160 -0.000783
C15   C     C_R   0.267707 0.365067 0.934404 0.071168
C16   C     C_R   0.722557 0.345378 0.061160 -0.000797
C17   C     C_R   0.771843 0.777019 0.988598 -0.038769
C18   C     C_R   0.286126 0.819081 0.027675 -0.043287
C19   C     C_R   0.271869 0.277015 0.988600 -0.038615
C20   C     C_R   0.786108 0.319056 0.027665 -0.043261
C21   C     C_R   0.767560 0.810170 0.059862 -0.008899
C22   C     C_R   0.295813 0.841227 0.955834 0.045593
C23   C     C_R   0.267550 0.310167 0.059861 -0.008824
C24   C     C_R   0.795791 0.341189 0.955822 0.045635
C25   C     C_R   0.745198 0.017411 0.023602 -0.078512
C26   C     C_R   0.174831 0.891184 0.943415 -0.092629
C27   C     C_R   0.245191 0.517405 0.023596 -0.078569
C28   C     C_R   0.674824 0.391271 0.943424 -0.092429
C29   C     C_R   0.755151 0.986870 0.952721 0.391421
C30   C     C_R   0.165541 0.873099 0.016857 0.302503
C31   C     C_R   0.255157 0.486861 0.952717 0.391633
C32   C     C_R   0.665538 0.373204 0.016867 0.302672
C33   C     C_3   0.728004 0.665349 0.003428 -0.085260
C34   C     C_3   0.360359 0.847830 0.045421 -0.109010
C35   C     C_3   0.228062 0.165297 0.003412 -0.085423
C36   C     C_3   0.860353 0.347731 0.045399 -0.108970
C37   C     C_3   0.728045 0.699975 0.081619 -0.229318
C38   C     C_3   0.370681 0.875176 0.966148 -0.218659
C39   C     C_3   0.228034 0.199961 0.081597 -0.229177
C40   C     C_3   0.870673 0.375060 0.966123 -0.218645
C41   C     C_R   0.751402 0.929349 0.077115 0.011000
C42   C     C_R   0.242322 0.890905 0.914133 -0.002393
C43   C     C_R   0.251386 0.429346 0.077111 0.010857
C44   C     C_R   0.742310 0.390913 0.914130 -0.002421
C45   C     C_R   0.533762 0.153124 0.145082 0.546586
C46   C     C_R   0.469458 0.157443 0.852363 0.556094
C47   C     C_R   0.033758 0.653120 0.145085 0.546545
C48   C     C_R   0.969454 0.657442 0.852366 0.555982
C49   C     C_R   0.480293 0.169300 0.568421 -0.042437
C50   C     C_R   0.491270 0.158544 0.418663 0.014445
C51   C     C_R   0.980272 0.669295 0.568413 -0.042430
C52   C     C_R   0.991250 0.658534 0.418654 0.014422
C53   C     C_R   0.485621 0.059597 0.532083 -0.053964
C54   C     C_R   0.488235 0.052824 0.460499 -0.059079
C55   C     C_R   0.985614 0.559593 0.532076 -0.053941
C56   C     C_R   0.988211 0.552813 0.460490 -0.059042
C57   C     C_R   0.469619 0.269256 0.450100 -0.011307
C58   C     C_R   0.468191 0.278288 0.526552 -0.052382
C59   C     C_R   0.969586 0.769239 0.450089 -0.011356
C60   C     C_R   0.968150 0.778272 0.526541 -0.052428
C61   C     C_3   0.515231 0.934820 0.544989 -0.114607
C62   C     C_3   0.513013 0.921885 0.464080 -0.118897
C63   C     C_3   0.015231 0.434819 0.544981 -0.114642
C64   C     C_3   0.012986 0.421870 0.464074 -0.118930
C65   C     C_R   0.758501 0.894120 0.571956 0.006227
C66   C     C_R   0.241782 0.919177 0.423198 0.019321
C67   C     C_R   0.258501 0.394135 0.571954 0.006096
C68   C     C_R   0.741785 0.419231 0.423187 0.019257
C69   C     C_R   0.783115 0.000565 0.542768 0.090606
C70   C     C_R   0.184117 0.911068 0.468437 0.010498
C71   C     C_R   0.283237 0.500477 0.542747 0.090610
C72   C     C_R   0.684108 0.411211 0.468419 0.010520
C73   C     C_R   0.782710 0.016649 0.470968 0.069177
C74   C     C_R   0.190661 0.921548 0.540698 -0.008891
C75   C     C_R   0.282842 0.516540 0.470944 0.069243
C76   C     C_R   0.690650 0.421711 0.540679 -0.008868
C77   C     C_R   0.741015 0.812623 0.451808 -0.135297
C78   C     C_R   0.313759 0.952046 0.525946 -0.173846
C79   C     C_R   0.240917 0.312650 0.451820 -0.135512
C80   C     C_R   0.813764 0.452037 0.525941 -0.173919
C81   C     C_R   0.742495 0.795384 0.525970 -0.162962
C82   C     C_R   0.307770 0.937761 0.452260 -0.182201
C83   C     C_R   0.242374 0.295440 0.525985 -0.163072
C84   C     C_R   0.807775 0.437774 0.452254 -0.182243
C85   C     C_3   0.764426 0.129386 0.557931 -0.275033
C86   C     C_3   0.119098 0.985118 0.467583 -0.240662
C87   C     C_3   0.264695 0.629366 0.557901 -0.274913
C88   C     C_3   0.619132 0.485382 0.467546 -0.240590
C89   C     C_R   0.742041 0.967924 0.149029 0.547565
C90   C     C_R   0.257735 0.965096 0.850868 0.532637
C91   C     C_R   0.242038 0.467927 0.149025 0.547516
C92   C     C_R   0.757733 0.465095 0.850865 0.532730
C93   C     C_3   0.764990 0.147590 0.477961 -0.258121
C94   C     C_3   0.126114 0.995523 0.547294 -0.244438
C95   C     C_3   0.265260 0.647545 0.477930 -0.257965
C96   C     C_3   0.626157 0.495842 0.547252 -0.244298
C97   C     C_R   0.756623 0.928418 0.424626 0.028182
C98   C     C_R   0.255212 0.941629 0.570668 0.011402
C99   C     C_R   0.256642 0.428382 0.424620 0.028063
C100  C     C_R   0.755210 0.441675 0.570658 0.011330
C101  C     C_R   0.729979 0.381797 0.350805 0.539663
C102  C     C_R   0.271994 0.372824 0.645990 0.570165
C103  C     C_R   0.229978 0.881788 0.350808 0.539658
C104  C     C_R   0.771995 0.872821 0.645990 0.570153
C105  C     C_R   0.529853 0.155817 0.351723 0.563490
C106  C     C_R   0.464611 0.158173 0.644323 0.543535
C107  C     C_R   0.029849 0.655815 0.351721 0.563467
C108  C     C_R   0.964603 0.658172 0.644318 0.543536
C109  C     C_R   0.742973 0.968205 0.352630 0.561276
C110  C     C_R   0.260557 0.977965 0.643783 0.538858
C111  C     C_R   0.242973 0.468210 0.352632 0.561259
C112  C     C_R   0.760560 0.477983 0.643778 0.538817
C113  C     C_R   0.504784 0.174589 0.921341 -0.012479
C114  C     C_R   0.510804 0.153555 0.070042 0.038833
C115  C     C_R   0.004767 0.674580 0.921351 -0.012547
C116  C     C_R   0.010788 0.653533 0.070051 0.038802
C117  C     C_R   0.486802 0.276250 0.965241 0.021549
C118  C     C_R   0.483375 0.260469 0.039721 0.097030
C119  C     C_R   0.986777 0.776231 0.965253 0.021703
C120  C     C_R   0.983347 0.760439 0.039732 0.097131
C121  C     C_R   0.531999 0.054911 0.025075 -0.018412
C122  C     C_R   0.535372 0.071092 0.951392 -0.027708
C123  C     C_R   0.031987 0.554888 0.025083 -0.018456
C124  C     C_R   0.035350 0.571078 0.951401 -0.027679
Cr1   Cr    Cr6+3 0.772010 0.169670 0.250090 1.015390
Cr2   Cr    Cr6+3 0.227990 0.169670 0.749910 1.102286
Cr3   Cr    Cr6+3 0.272010 0.669670 0.250090 1.015356
Cr4   Cr    Cr6+3 0.727990 0.669670 0.749910 1.102379
Cr5   Cr    Cr6+3 0.615000 0.323260 0.249260 1.069815
Cr6   Cr    Cr6+3 0.385000 0.323260 0.750740 1.037489
Cr7   Cr    Cr6+3 0.115000 0.823260 0.249260 1.069840
Cr8   Cr    Cr6+3 0.885000 0.823260 0.750740 1.037483
Cr9   Cr    Cr6+3 0.616710 0.010760 0.250840 1.067158
Cr10  Cr    Cr6+3 0.383290 0.010760 0.749160 1.085881
Cr11  Cr    Cr6+3 0.116710 0.510760 0.250840 1.067112
Cr12  Cr    Cr6+3 0.883290 0.510760 0.749160 1.085810
H1    H     H_    0.568510 0.941525 0.568438 0.140658
H2    H     H_    0.472588 0.857590 0.443741 0.136367
H3    H     H_    0.068518 0.441535 0.568409 0.140665
H4    H     H_    0.972549 0.357578 0.443756 0.136381
H5    H     H_    0.725316 0.738890 0.416942 0.160520
H6    H     H_    0.362663 0.979672 0.548030 0.142586
H7    H     H_    0.225130 0.238958 0.416967 0.160681
H8    H     H_    0.862674 0.479604 0.548032 0.142590
H9    H     H_    0.731981 0.705799 0.547228 0.137814
H10   H     H_    0.353343 0.942827 0.418507 0.129275
H11   H     H_    0.231737 0.205909 0.547255 0.137938
H12   H     H_    0.853353 0.442787 0.418505 0.129305
H13   H     H_    0.807040 0.179105 0.585692 0.176328
H14   H     H_    0.074294 0.929659 0.450636 0.139321
H15   H     H_    0.307369 0.678948 0.585646 0.176418
H16   H     H_    0.574287 0.429995 0.450620 0.139362
H17   H     H_    0.711787 0.138839 0.582036 0.128157
H18   H     H_    0.125498 0.073447 0.439246 0.186650
H19   H     H_    0.212074 0.639005 0.582019 0.128142
H20   H     H_    0.625585 0.573674 0.439184 0.186750
H21   H     H_    0.712916 0.168365 0.455113 0.123456
H22   H     H_    0.134319 0.090875 0.565253 0.173438
H23   H     H_    0.213198 0.668446 0.455098 0.123533
H24   H     H_    0.634433 0.591190 0.565182 0.173414
H25   H     H_    0.809388 0.203391 0.458996 0.173994
H26   H     H_    0.087394 0.944028 0.578225 0.131406
H27   H     H_    0.309696 0.703248 0.458949 0.173921
H28   H     H_    0.587396 0.444483 0.578201 0.131550
H29   H     H_    0.484866 0.418469 0.883200 0.147296
H30   H     H_    0.444160 0.339850 0.138482 0.137710
H31   H     H_    0.984840 0.918463 0.883220 0.147260
H32   H     H_    0.944136 0.839809 0.138498 0.137689
H33   H     H_    0.935098 0.075339 0.958401 0.123498
H34   H     H_    0.912859 0.035672 0.085784 0.122793
H35   H     H_    0.435126 0.575359 0.958375 0.123500
H36   H     H_    0.412884 0.535706 0.085759 0.122761
H37   H     H_    0.729799 0.108557 0.037042 0.122316
H38   H     H_    0.131009 0.923167 0.912289 0.160327
H39   H     H_    0.229794 0.608555 0.037033 0.122319
H40   H     H_    0.631008 0.423300 0.912306 0.160642
H41   H     H_    0.257496 0.081013 0.993442 0.135053
H42   H     H_    0.889499 0.265748 0.063310 0.091329
H43   H     H_    0.757403 0.581045 0.993409 0.135229
H44   H     H_    0.389529 0.765873 0.063332 0.091317
H45   H     H_    0.676314 0.721586 0.105001 0.176079
H46   H     H_    0.381225 0.972176 0.952631 0.175768
H47   H     H_    0.176276 0.221555 0.104924 0.176205
H48   H     H_    0.881249 0.472048 0.952603 0.175784
H49   H     H_    0.759281 0.638473 0.115795 0.181067
H50   H     H_    0.406220 0.809327 0.939741 0.123354
H51   H     H_    0.259251 0.138487 0.115810 0.180955
H52   H     H_    0.906184 0.309171 0.939713 0.123328
O1    O     O_R   0.787520 0.042810 0.170440 -0.538173
O2    O     O_R   0.212480 0.042810 0.829560 -0.487385
O3    O     O_R   0.287520 0.542810 0.170440 -0.538112
O4    O     O_R   0.712480 0.542810 0.829560 -0.486998
O5    O     O_R   0.556610 0.252880 0.323980 -0.490137
O6    O     O_R   0.443390 0.252880 0.676020 -0.534103
O7    O     O_R   0.056610 0.752880 0.323980 -0.490144
O8    O     O_R   0.943390 0.752880 0.676020 -0.534108
O9    O     O_R   0.545950 0.051210 0.330860 -0.506619
O10   O     O_R   0.454050 0.051210 0.669140 -0.459169
O11   O     O_R   0.045950 0.551210 0.330860 -0.506596
O12   O     O_R   0.954050 0.551210 0.669140 -0.459172
O13   O     O_R   0.681390 0.959480 0.325510 -0.481217
O14   O     O_R   0.318610 0.959480 0.674490 -0.498162
O15   O     O_R   0.181390 0.459480 0.325510 -0.481231
O16   O     O_R   0.818610 0.459480 0.674490 -0.498180
O17   O     O_3   0.667900 0.167900 0.250060 -0.294507
O18   O     O_3   0.332100 0.167900 0.749940 -0.309765
O19   O     O_3   0.167900 0.667900 0.250060 -0.294482
O20   O     O_3   0.832100 0.667900 0.749940 -0.309752
O21   O     O_R   0.765640 0.292100 0.175020 -0.536579
O22   O     O_R   0.234360 0.292100 0.824980 -0.405084
O23   O     O_R   0.265640 0.792100 0.175020 -0.536625
O24   O     O_R   0.734360 0.792100 0.824980 -0.405199
O25   O     O_R   0.670190 0.408840 0.168540 -0.457511
O26   O     O_R   0.329810 0.408840 0.831460 -0.474166
O27   O     O_R   0.170190 0.908840 0.168540 -0.457562
O28   O     O_R   0.829810 0.908840 0.831460 -0.474136
O29   O     O_R   0.556620 0.251410 0.175160 -0.477132
O30   O     O_R   0.443380 0.251410 0.824840 -0.545154
O31   O     O_R   0.056620 0.751410 0.175160 -0.477031
O32   O     O_R   0.943380 0.751410 0.824840 -0.545102
O33   O     O_R   0.545960 0.049620 0.170320 -0.527362
O34   O     O_R   0.454040 0.049620 0.829680 -0.497079
O35   O     O_R   0.045960 0.549620 0.170320 -0.527546
O36   O     O_R   0.954040 0.549620 0.829680 -0.497239
O37   O     O_R   0.681390 0.958010 0.176690 -0.472493
O38   O     O_R   0.318610 0.958010 0.823310 -0.498911
O39   O     O_R   0.181390 0.458010 0.176690 -0.472622
O40   O     O_R   0.818610 0.458010 0.823310 -0.498965
O41   O     O_R   0.787510 0.044390 0.330970 -0.487923
O42   O     O_R   0.212490 0.044390 0.669030 -0.525569
O43   O     O_R   0.287510 0.544390 0.330970 -0.487959
O44   O     O_R   0.712490 0.544390 0.669030 -0.525553
O45   O     O_R   0.765630 0.293570 0.323840 -0.508471
O46   O     O_R   0.234370 0.293570 0.676160 -0.497971
O47   O     O_R   0.265630 0.793570 0.323840 -0.508505
O48   O     O_R   0.734370 0.793570 0.676160 -0.497999
O49   O     O_R   0.670190 0.410420 0.329080 -0.514923
O50   O     O_R   0.329810 0.410420 0.670920 -0.485654
O51   O     O_R   0.170190 0.910420 0.329080 -0.514904
O52   O     O_R   0.829810 0.910420 0.670920 -0.485622
C125  C     C_2   0.547077 0.931579 0.053747 0.224267
H53   H     H_    0.509390 0.885438 0.087312 0.123276
O53   O     O_2   0.602722 0.882742 0.042147 -0.553461
C126  C     C_2   0.566937 0.976225 0.904635 0.331040
H54   H     H_    0.559703 0.880344 0.916135 0.164442
O54   O     O_2   0.600573 0.005450 0.852141 -0.419210
C127  C     C_2   0.047065 0.431540 0.053750 0.224459
H55   H     H_    0.009427 0.385455 0.087378 0.123344
O55   O     O_2   0.102631 0.382569 0.042025 -0.553046
C128  C     C_2   0.066867 0.476184 0.904635 0.331458
H56   H     H_    0.059455 0.380316 0.916051 0.164487
O56   O     O_2   0.100623 0.505379 0.852215 -0.419050
C129  C     C_2   0.448861 0.371278 0.402025 0.274942
H57   H     H_    0.461014 0.465440 0.414009 0.161331
O57   O     O_2   0.417716 0.349804 0.346695 -0.507581
C130  C     C_2   0.458235 0.399684 0.561739 0.224363
H58   H     H_    0.479021 0.417818 0.614111 0.154866
O58   O     O_2   0.428987 0.484309 0.532478 -0.547588
C131  C     C_2   0.948852 0.871277 0.402015 0.274988
H59   H     H_    0.961018 0.965430 0.414015 0.161315
O59   O     O_2   0.917719 0.849830 0.346675 -0.507574
C132  C     C_2   0.958161 0.899666 0.561720 0.224407
H60   H     H_    0.978965 0.917846 0.614079 0.154853
O60   O     O_2   0.928848 0.984232 0.532465 -0.547466
C133  C     C_2   0.970269 0.341464 0.582005 0.274296
H61   H     H_    0.923948 0.304706 0.556847 0.103964
O61   O     O_2   0.987628 0.301590 0.640001 -0.469850
C134  C     C_2   0.083253 0.396370 0.435788 0.276107
H62   H     H_    0.125227 0.458406 0.448668 0.101859
O62   O     O_2   0.092948 0.306491 0.398791 -0.520653
C135  C     C_2   0.470250 0.841466 0.581989 0.274343
H63   H     H_    0.423934 0.804729 0.556810 0.103865
O63   O     O_2   0.487587 0.801570 0.639987 -0.469813
C136  C     C_2   0.583295 0.896408 0.435822 0.276121
H64   H     H_    0.625256 0.958463 0.448714 0.101787
O64   O     O_2   0.593019 0.806517 0.398844 -0.520682
F1    F     F_    0.749837 0.074784 0.902102 -0.594399
F2    F     F_    0.102923 0.898894 0.045802 -0.658644
F3    F     F_    0.249846 0.574774 0.902097 -0.594334
F4    F     F_    0.602934 0.399093 0.045818 -0.658510
C137  C     C_2   0.654666 0.665663 0.974080 0.260631
H65   H     H_    0.612336 0.629581 0.006085 0.168776
O65   O     O_2   0.641777 0.701911 0.914316 -0.480427
C138  C     C_2   0.368443 0.954926 0.095036 0.184605
H66   H     H_    0.371306 0.939236 0.151933 0.145516
O66   O     O_2   0.371680 0.059132 0.072675 -0.581704
C139  C     C_2   0.154742 0.165465 0.974022 0.260549
H67   H     H_    0.112479 0.128681 0.005862 0.168767
O67   O     O_2   0.141793 0.202508 0.914424 -0.480082
C140  C     C_2   0.868480 0.454831 0.095004 0.184626
H68   H     H_    0.871425 0.439139 0.151899 0.145428
O68   O     O_2   0.871652 0.559041 0.072635 -0.581696

loop_
_geom_bond_atom_site_label_1
_geom_bond_atom_site_label_2
_ccdc_geom_bond_type
Cr4   O48   S    
C11   H35   S    
C34   C138  S    
C9    H33   S    
C73   C93   S    
C6    H30   S    
C75   C95   S    
C12   H36   S    
C46   O30   A    
C79   C99   A    
C138  H66   S    
Cr9   O37   S    
C101  O45   A    
Cr11  O11   S    
C128  O56   D    
C135  H63   S    
C22   C38   S    
C23   C43   A    
C126  H54   S    
C136  H64   S    
Cr3   O19   S    
C110  O42   A    
C37   H49   S    
C113  C122  A    
C70   C74   A    
C139  O67   D    
C58   C130  S    
Cr8   O28   S    
C44   C92   S    
C105  O9    A    
Cr12  O40   S    
C59   C60   A    
Cr4   O44   S    
C25   C29   A    
C47   C116  S    
C102  O50   A    
C27   C31   A    
C7    C119  A    
C28   C32   A    
C68   C101  S    
C25   C41   A    
Cr11  O15   S    
C101  O49   A    
C28   C44   A    
C17   C21   A    
C19   C23   A    
C95   H27   S    
C66   C82   A    
C78   C82   A    
C93   H25   S    
C16   C20   A    
C37   H45   S    
C63   C133  S    
C134  O62   D    
C2    O26   A    
C35   C139  S    
C112  O16   A    
C64   H4    S    
C104  O52   A    
C47   O35   A    
Cr9   O9    S    
Cr5   O49   S    
C50   C57   A    
C63   H3    S    
C66   C103  S    
C90   O38   A    
Cr7   O7    S    
C131  O59   D    
C49   C106  S    
C76   C100  A    
Cr11  O35   S    
Cr3   O47   S    
C46   O34   A    
C110  O14   A    
C86   H18   S    
C19   C35   S    
C76   C96   S    
C66   C70   A    
C49   C53   A    
Cr1   O17   S    
Cr6   O26   S    
C51   C55   A    
C77   H5    S    
Cr12  O12   S    
C116  C120  A    
C8    C10   A    
C5    C117  A    
Cr4   O20   S    
Cr8   O32   S    
C29   F1    S    
C41   C89   S    
C67   C83   A    
C4    O28   A    
C116  C123  A    
C111  O43   A    
Cr7   O19   S    
C123  C124  A    
C106  O6    A    
C53   C54   A    
C121  C125  S    
Cr11  O39   S    
C95   H23   S    
Cr1   O41   S    
C86   H14   S    
C129  H57   S    
C125  H53   S    
C62   C136  S    
Cr6   O30   S    
C124  C128  S    
C53   C61   S    
C45   C114  S    
C79   H7    S    
C80   H8    S    
C130  O58   D    
C50   C105  S    
C56   C64   S    
C77   C97   A    
C8    H32   S    
C9    C10   A    
C3    O23   A    
C30   F2    S    
C1    O21   A    
C60   C132  S    
C36   H42   S    
Cr1   O21   S    
C48   O36   A    
C38   H50   S    
Cr3   O3    S    
C96   H28   S    
C87   C95   S    
Cr4   O4    S    
Cr6   O18   S    
C25   H37   S    
C97   C109  S    
Cr12  O36   S    
C99   C111  S    
C75   C99   A    
C133  O61   D    
C113  C117  A    
C26   C30   A    
C115  C119  A    
C69   C85   S    
C26   C42   A    
Cr11  O19   S    
C90   O2    A    
C7    H31   S    
C103  O47   A    
C46   C113  S    
C18   C22   A    
C15   C31   A    
C132  H60   S    
C40   H52   S    
C137  O65   D    
C38   H46   S    
C13   C17   A    
C45   O33   A    
C138  O66   D    
Cr8   O52   S    
C117  C118  A    
C107  O11   A    
C57   C58   A    
C126  O54   D    
C87   H19   S    
C57   C129  S    
C61   C62   S    
Cr2   O46   S    
C63   C64   S    
C104  O48   A    
C51   C60   A    
C35   H41   S    
C55   C56   A    
C88   C96   S    
C98   C110  S    
C33   H43   S    
C74   C94   S    
C34   H44   S    
C80   C84   A    
C15   C19   A    
C50   C54   A    
C88   H20   S    
C13   C29   A    
C5    C11   A    
C78   H6    S    
C6    C12   A    
Cr10  O18   S    
C26   H38   S    
C7    C9    A    
C140  H68   S    
Cr5   O29   S    
C114  C121  A    
C109  O41   A    
C52   C107  S    
Cr9   O33   S    
C69   C73   A    
C108  O8    A    
C106  O10   A    
C84   H12   S    
C94   H22   S    
Cr9   O13   S    
C59   C131  S    
C17   C33   S    
C82   H10   S    
C3    O27   A    
C127  O55   D    
C68   C84   A    
C74   C98   A    
C64   C134  S    
C27   H39   S    
Cr12  O20   S    
C28   H40   S    
C122  C126  S    
C54   C62   S    
C128  H56   S    
Cr7   O27   S    
C33   C37   S    
C73   C97   A    
Cr5   O17   S    
C65   C81   A    
C139  H67   S    
C77   C81   A    
C11   C12   A    
C1    C16   S    
C62   H2    S    
C2    C15   S    
C121  C122  A    
C3    C14   S    
C71   C87   S    
C100  C112  S    
C1    O25   A    
C24   C44   A    
C16   C32   A    
C111  O15   A    
Cr10  O10   S    
C48   O32   A    
C115  C124  A    
C91   O39   A    
C89   O37   A    
Cr6   O6    S    
C119  C120  A    
C10   H34   S    
C112  O44   A    
C109  O13   A    
Cr4   O24   S    
C79   C83   A    
C61   H1    S    
C91   O3    A    
Cr2   O18   S    
C65   C69   A    
C67   C71   A    
C20   C36   S    
C27   C43   A    
C21   C37   S    
C134  H62   S    
C92   O40   A    
C103  O51   A    
C89   O1    A    
C61   C135  S    
C39   H47   S    
C92   O4    A    
C40   H48   S    
C105  O5    A    
C71   C75   A    
C45   O29   A    
C14   C18   A    
C35   C39   S    
C72   C76   A    
C107  O7    A    
C36   C140  S    
Cr10  O38   S    
Cr7   O31   S    
Cr2   O42   S    
Cr9   O17   S    
Cr2   O2    S    
C4    C13   S    
C86   C94   S    
C20   C24   A    
Cr7   O51   S    
C51   C108  S    
C78   C98   A    
C42   C90   S    
C5    H29   S    
C31   F3    S    
C133  H61   S    
C94   H26   S    
C136  O64   D    
C32   F4    S    
C68   C72   A    
C39   H51   S    
C87   H15   S    
C80   C100  A    
Cr5   O25   S    
C88   H16   S    
C85   C93   S    
C14   C30   A    
C72   C88   S    
Cr10  O14   S    
C33   C137  S    
C2    O22   A    
C36   C40   S    
Cr2   O22   S    
C129  O57   D    
C132  O60   D    
Cr10  O34   S    
C137  H65   S    
C47   O31   A    
C43   C91   S    
C49   C58   A    
C55   C63   S    
C125  O53   D    
C108  O12   A    
C52   C59   A    
C130  H58   S    
Cr3   O43   S    
C85   H17   S    
C93   H21   S    
C18   C34   S    
C114  C118  A    
C48   C115  S    
C83   H11   S    
Cr3   O23   S    
C96   H24   S    
Cr8   O20   S    
C81   H9    S    
C21   C41   A    
C131  H59   S    
C70   C86   S    
Cr12  O16   S    
C8    C120  A    
C135  O63   D    
Cr6   O50   S    
C34   C38   S    
Cr5   O5    S    
C127  H55   S    
C102  O46   A    
C4    O24   A    
C123  C127  S    
C22   C42   A    
C23   C39   S    
C24   C40   S    
C140  O68   D    
C85   H13   S    
Cr1   O45   S    
Cr8   O8    S    
Cr1   O1    S    
C65   C104  S    
C6    C118  A    
C52   C56   A    
C67   C102  S    
