data_mof_unit_44672.cif
_audit_creation_date              2013-03-05T16:07:31-0500
_audit_creation_method            fapswitch 2.2
_symmetry_space_group_name_H-M    P1
_symmetry_Int_Tables_number       1
_space_group_crystal_system       triclinic
_cell_length_a                    10.848846
_cell_length_b                    10.810226
_cell_length_c                    9.495083
_cell_angle_alpha                 90.097603
_cell_angle_beta                  90.270561
_cell_angle_gamma                 90.110552
_cell_volume                      1113.55275253

loop_
_atom_site_label
_atom_site_type_symbol
_atom_site_description
_atom_site_fract_x
_atom_site_fract_y
_atom_site_fract_z
_atom_type_partial_charge
O1    O     O_R   0.499990 0.319660 0.618740 -0.588386
O2    O     O_R   0.500010 0.680340 0.381260 -0.592498
O3    O     O_R   0.499990 0.319630 0.381170 -0.593024
O4    O     O_R   0.500010 0.680370 0.618830 -0.597024
C1    C     C_R   0.498764 0.262035 0.499814 0.842289
C2    C     C_R   0.498844 0.737963 0.500039 0.839321
O5    O     O_R   0.319650 0.500020 0.618780 -0.547435
O6    O     O_R   0.680350 0.499980 0.381220 -0.551917
O7    O     O_R   0.319640 0.500000 0.381210 -0.596579
O8    O     O_R   0.680360 0.500000 0.618790 -0.592932
C3    C     C_R   0.262346 0.499630 0.499411 0.897310
C4    C     C_R   0.737754 0.500454 0.500675 0.889708
Cu1   Cu    Cu3+1 0.500000 0.500020 0.640660 1.001188
Cu2   Cu    Cu3+1 0.500000 0.499980 0.359340 0.995973
H1    H     H_    0.284391 0.131313 0.022978 0.197234
H2    H     H_    0.710743 0.836827 0.002836 0.198005
C5    C     C_R   0.221639 0.313719 0.070182 -0.162558
C6    C     C_R   0.784146 0.661629 0.943022 -0.171151
C7    C     C_R   0.165126 0.390891 0.167953 -0.064072
C8    C     C_R   0.844345 0.593449 0.839825 -0.061094
H3    H     H_    0.150381 0.487300 0.141938 0.181842
H4    H     H_    0.867344 0.497657 0.860458 0.184370
C9    C     C_R   0.127815 0.344466 0.298854 0.006077
C10   C     C_R   0.873586 0.647354 0.709865 0.007019
C11   C     C_R   0.144977 0.217844 0.330548 0.242949
C12   C     C_R   0.843584 0.772905 0.683999 0.247970
C13   C     C_R   0.201539 0.138904 0.230216 0.280980
C14   C     C_R   0.786092 0.843271 0.791883 0.294258
C15   C     C_R   0.239787 0.188980 0.100819 -0.205044
C16   C     C_R   0.754931 0.785236 0.919360 -0.206541
C17   C     C_R   0.934251 0.426638 0.401858 0.338657
C18   C     C_R   0.066150 0.571425 0.599891 0.361124
C19   C     C_R   0.871717 0.498608 0.502683 -0.232767
C20   C     C_R   0.128538 0.500918 0.497818 -0.210834
C21   C     C_R   0.937436 0.569857 0.603174 -0.084539
C22   C     C_R   0.063045 0.428177 0.398660 -0.077859
C23   C     C_R   0.516969 0.063792 0.373649 -0.095833
C24   C     C_R   0.474378 0.936207 0.624955 -0.073217
C25   C     C_R   0.516509 0.935912 0.373654 -0.034162
C26   C     C_R   0.474111 0.064140 0.624736 -0.052434
H5    H     H_    0.533450 0.887554 0.275627 0.153178
H6    H     H_    0.456697 0.112634 0.722562 0.165990
C27   C     C_R   0.496319 0.871744 0.499606 -0.003456
C28   C     C_R   0.496570 0.128254 0.499399 -0.036655
C29   C     C_R   0.567374 0.415038 0.074670 -0.004285
C30   C     C_R   0.432566 0.584897 0.925340 0.007368
H7    H     H_    0.621226 0.347016 0.131045 0.192946
H8    H     H_    0.378891 0.653048 0.868974 0.191073
C31   C     C_R   0.567514 0.415135 0.925706 -0.029874
C32   C     C_R   0.432362 0.584756 0.074293 -0.035383
H9    H     H_    0.621918 0.347486 0.869630 0.173139
H10   H     H_    0.377976 0.652419 0.130372 0.172750
N1    N     N_R   0.500030 0.500030 0.852070 -0.185039
N2    N     N_R   0.499970 0.499970 0.147930 -0.185616
H11   H     H_    0.251181 0.350637 0.969901 0.185729
H12   H     H_    0.761305 0.618903 0.042605 0.187390
N3    N     N_R   0.098985 0.169315 0.460521 0.158223
O9    O     O_R   0.137052 0.214381 0.580215 -0.362247
O10   O     O_R   0.010734 0.087757 0.458968 -0.160975
N4    N     N_R   0.866880 0.826680 0.548202 0.152280
O11   O     O_R   0.780372 0.887031 0.482801 -0.332216
O12   O     O_R   0.972896 0.812561 0.486929 -0.247093
N5    N     N_R   0.221513 0.009166 0.257669 0.139405
O13   O     O_R   0.244454 0.933447 0.154360 -0.353844
O14   O     O_R   0.225809 0.966795 0.385753 -0.276421
N6    N     N_R   0.764630 0.974138 0.777035 0.142768
O15   O     O_R   0.683921 0.029179 0.856333 -0.401792
O16   O     O_R   0.838632 0.042076 0.702257 -0.214422
N7    N     N_R   0.867249 0.346581 0.307386 0.128039
O17   O     O_R   0.880300 0.357257 0.171802 -0.377781
O18   O     O_R   0.795064 0.261032 0.357081 -0.320433
N8    N     N_R   0.133206 0.650092 0.695888 0.132707
O19   O     O_R   0.123595 0.634486 0.831230 -0.377210
O20   O     O_R   0.203967 0.737584 0.647904 -0.317652
H13   H     H_    0.534032 0.111892 0.275628 0.161430
H14   H     H_    0.457589 0.888028 0.722990 0.163607

loop_
_geom_bond_atom_site_label_1
_geom_bond_atom_site_label_2
_geom_bond_distance
_ccdc_geom_bond_type
N6    O16   1.301136 A    
N5    O14   1.300950 A    
C13   C15   1.407475 A    
C5    C15   1.394114 A    
C7    C9    1.402375 A    
C25   H5    1.083378 S    
C24   H14   1.083417 S    
O5    C3    1.290138 A    
C32   N2    1.366321 A    
O1    C1    1.288716 A    
C7    H3    1.083484 S    
C10   C12   1.417901 A    
N3    O10   1.300298 A    
H2    C16   1.082682 S    
N4    O12   1.300513 A    
O4    Cu1   1.960962 S    
N7    O18   1.301300 A    
C5    C7    1.392262 A    
C8    C10   1.402972 A    
C31   H9    1.081651 S    
C32   H10   1.081658 S    
C17   C19   1.409862 A    
C6    C16   1.392265 A    
C29   C31   1.414437 A    
C5    H11   1.082739 S    
C26   C28   1.400333 A    
C20   C22   1.413723 A    
C6    H12   1.082620 S    
C26   H6    1.083369 S    
N6    O15   1.301667 A    
C23   H13   1.083411 S    
Cu1   Cu2   2.671157 S    
O2    C2    1.287606 A    
C11   N3    1.433249 S    
H1    C15   1.082597 S    
Cu1   N1    2.007354 S    
C29   H7    1.081027 S    
C30   H8    1.080900 S    
C10   C21   1.487904 S    
C18   C21   1.396969 A    
N8    O20   1.301320 A    
C25   C27   1.401466 A    
N4    O11   1.300113 A    
C18   C20   1.408566 A    
C14   N6    1.441217 S    
O7    Cu2   1.968662 S    
C17   N7    1.439008 S    
O6    C4    1.291380 A    
O7    C3    1.285529 A    
O3    Cu2   1.960962 S    
O8    C4    1.285343 A    
O4    C2    1.289305 A    
Cu2   N2    2.007354 S    
C1    C28   1.446350 S    
C8    H4    1.083605 S    
C29   N2    1.366305 A    
C2    C27   1.446526 S    
O1    Cu1   1.960457 S    
O6    Cu2   1.966611 S    
C3    C20   1.451771 S    
N8    O19   1.301046 A    
O3    C1    1.288179 A    
O8    Cu1   1.968661 S    
C11   C13   1.420246 A    
C30   C32   1.414341 A    
C12   C14   1.422034 A    
C23   C28   1.400173 A    
C14   C16   1.406625 A    
C24   C27   1.399767 A    
C23   C25   1.382411 A    
C24   C26   1.382995 A    
N3    O9    1.300935 A    
C31   N1    1.366397 A    
C30   N1    1.366235 A    
C19   C21   1.414553 A    
C6    C8    1.391166 A    
C9    C11   1.414469 A    
N7    O17   1.301111 A    
O2    Cu2   1.960457 S    
N5    O13   1.301739 A    
O5    Cu1   1.966612 S    
C9    C22   1.488812 S    
C17   C22   1.397808 A    
C13   N5    1.443538 S    
C4    C19   1.453556 S    
C12   N4    1.438556 S    
C18   N8    1.439430 S    
