data_mof_unit_30414.cif
_audit_creation_date              2012-12-10T18:13:25-0500
_audit_creation_method            fapswitch 2.2
_symmetry_space_group_name_H-M    P1
_symmetry_Int_Tables_number       1
_space_group_crystal_system       triclinic
_cell_length_a                    12.793523
_cell_length_b                    13.29925
_cell_length_c                    16.940545
_cell_angle_alpha                 86.131487
_cell_angle_beta                  99.151493
_cell_angle_gamma                 97.217266
_cell_volume                      2819.78180007

loop_
_atom_site_label
_atom_site_type_symbol
_atom_type_description
_atom_site_fract_x
_atom_site_fract_y
_atom_site_fract_z
_atom_type_partial_charge
C1    C     C_R   0.559228 0.691439 0.505374 0.846054
C2    C     C_R   0.485441 0.501422 0.737925 -0.311488
C3    C     C_R   0.287096 0.064115 0.410819 -0.255129
C4    C     C_R   0.510078 0.492374 0.350302 0.901757
C5    C     C_R   0.412795 0.205441 0.460877 -0.191638
C6    C     C_R   0.692813 0.837327 0.552600 0.479303
C7    C     C_R   0.721225 0.941250 0.560814 0.032602
C8    C     C_R   0.649243 0.008900 0.529230 -0.290590
C9    C     C_R   0.552216 0.976136 0.480722 0.089565
C10   C     C_R   0.528008 0.872380 0.465059 -0.021220
C11   C     C_R   0.474351 0.042387 0.452536 -0.062835
C12   C     C_R   0.592807 0.487045 0.229166 0.427303
C13   C     C_R   0.370530 0.003111 0.419017 0.073689
C14   C     C_R   0.353709 0.905019 0.392040 0.090592
C15   C     C_R   0.435422 0.842683 0.410551 -0.195172
C16   C     C_R   0.442013 0.310175 0.485470 0.906170
C17   C     C_R   0.496331 0.147193 0.456348 0.368295
C18   C     C_R   0.306505 0.163303 0.436520 0.017782
C19   C     C_R   0.595333 0.801493 0.505290 -0.267066
C20   C     C_R   0.898127 0.350329 0.620743 -0.421994
C21   C     C_R   0.200625 0.607492 0.388556 0.606748
C22   C     C_R   0.094669 0.624495 0.363115 -0.416320
C23   C     C_R   0.558013 0.447851 0.873887 0.416480
C24   C     C_R   0.015814 0.580097 0.404951 -0.185814
C25   C     C_R   0.039536 0.523953 0.477558 0.002104
C26   C     C_R   0.147484 0.504628 0.501928 0.085348
C27   C     C_R   0.957096 0.478355 0.521319 -0.017031
C28   C     C_R   0.489240 0.504179 0.651073 0.880253
C29   C     C_R   0.980114 0.405929 0.584339 0.057280
C30   C     C_R   0.084224 0.387212 0.610032 0.040720
C31   C     C_R   0.165782 0.429486 0.566944 0.141772
C32   C     C_R   0.851935 0.504139 0.507379 0.092721
C33   C     C_R   0.792401 0.367850 0.595355 0.617719
C34   C     C_R   0.571711 0.471338 0.794539 -0.050246
C35   C     C_R   0.504464 0.461107 0.269270 -0.216482
C36   C     C_R   0.416475 0.393944 0.236081 -0.025281
C37   C     C_R   0.412780 0.360788 0.158800 0.091456
C38   C     C_R   0.498926 0.390731 0.117865 0.050687
C39   C     C_R   0.592071 0.447699 0.154980 0.001353
C40   C     C_3   0.606579 0.207712 0.366641 0.112209
C41   C     C_3   0.715501 0.263920 0.357721 -0.769557
C42   C     C_3   0.750681 0.753103 0.670191 0.118240
C43   C     C_3   0.845765 0.703229 0.713699 -0.821335
C44   C     C_3   0.726187 0.233064 0.679332 0.048013
C45   C     C_R   0.391955 0.523245 0.765513 0.374797
C46   C     C_3   0.621601 0.178139 0.700006 -0.851290
C47   C     C_3   0.253549 0.623383 0.262846 0.104234
C48   C     C_3   0.345448 0.663629 0.217991 -0.852609
C49   C     C_3   0.335229 0.669245 0.706099 0.130296
C50   C     C_3   0.248459 0.713189 0.646761 -0.776743
C51   C     C_3   0.490898 0.644254 0.993821 0.107347
C52   C     C_3   0.473487 0.730952 0.042518 -0.882887
C53   C     C_3   0.651207 0.311473 0.911355 0.122023
C54   C     C_3   0.712091 0.259911 0.984189 -0.886725
C55   C     C_3   0.677349 0.648012 0.232842 0.105576
C56   C     C_R   0.380561 0.503289 0.846005 -0.035645
C57   C     C_3   0.781069 0.712941 0.262149 -0.839824
C58   C     C_R   0.464799 0.469245 0.900101 -0.199634
C59   C     C_2   0.481502 0.384723 0.031499 -0.193729
C60   C     C_2   0.461820 0.468837 0.986417 0.550372
H1    H     H_    0.206197 0.034300 0.387324 0.176352
H2    H     H_    0.220470 0.473746 0.840434 0.203748
H3    H     H_    0.270537 0.594055 0.863028 0.198615
H4    H     H_    0.181228 0.225840 0.373056 0.183849
H5    H     H_    0.164335 0.182956 0.466702 0.174092
H6    H     H_    0.216024 0.812142 0.378770 0.218429
H7    H     H_    0.269031 0.841498 0.292660 0.206846
H8    H     H_    0.544633 0.253819 0.334596 0.131905
H9    H     H_    0.598811 0.133385 0.338343 0.133589
H10   H     H_    0.722598 0.277199 0.293259 0.201627
H11   H     H_    0.726119 0.338250 0.385836 0.282724
H12   H     H_    0.670108 0.086094 0.546184 0.224915
H13   H     H_    0.779175 0.218343 0.387148 0.236719
H14   H     H_    0.676321 0.701432 0.675046 0.121084
H15   H     H_    0.747394 0.824083 0.700676 0.128875
H16   H     H_    0.920457 0.754636 0.709976 0.260224
H17   H     H_    0.837296 0.687273 0.777703 0.203964
H18   H     H_    0.850938 0.630983 0.685968 0.252670
H19   H     H_    0.861120 0.032264 0.569666 0.189352
H20   H     H_    0.808380 0.011843 0.655690 0.157221
H21   H     H_    0.775160 0.260740 0.735665 0.127187
H22   H     H_    0.767409 0.178296 0.652596 0.135352
H23   H     H_    0.425824 0.771175 0.382867 0.226094
H24   H     H_    0.569825 0.150362 0.644961 0.263137
H25   H     H_    0.637648 0.112412 0.742277 0.200974
H26   H     H_    0.579110 0.230405 0.728422 0.238546
H27   H     H_    0.700122 0.540118 0.747119 0.207516
H28   H     H_    0.677579 0.411102 0.739444 0.241257
H29   H     H_    0.162428 0.359434 0.722781 0.200534
H30   H     H_    0.136080 0.255949 0.664668 0.166758
H31   H     H_    0.760172 0.590351 0.428798 0.255417
H32   H     H_    0.821653 0.647293 0.513897 0.267529
H33   H     H_    0.183897 0.659967 0.232167 0.120295
H34   H     H_    0.916981 0.292998 0.667212 0.169936
H35   H     H_    0.236755 0.540035 0.257159 0.160068
H36   H     H_    0.422324 0.645422 0.252012 0.251543
H37   H     H_    0.333154 0.629087 0.158874 0.251602
H38   H     H_    0.349649 0.747315 0.208391 0.225061
H39   H     H_    0.289108 0.379831 0.643978 0.188488
H40   H     H_    0.238854 0.304019 0.569019 0.166903
H41   H     H_    0.412432 0.689966 0.683127 0.124905
H42   H     H_    0.340041 0.704768 0.764408 0.106690
H43   H     H_    0.169609 0.691836 0.666584 0.248855
H44   H     H_    0.265079 0.797203 0.642554 0.195478
H45   H     H_    0.935838 0.585440 0.375193 0.212150
H46   H     H_    0.246380 0.683978 0.586656 0.260932
H47   H     H_    0.459360 0.663025 0.930347 0.143341
H48   H     H_    0.578117 0.639981 0.999761 0.125803
H49   H     H_    0.503090 0.715740 0.106804 0.246531
H50   H     H_    0.517167 0.802801 0.021683 0.209463
H51   H     H_    0.387215 0.739662 0.035106 0.262257
H52   H     H_    0.669166 0.507901 0.063310 0.216318
H53   H     H_    0.710508 0.398494 0.107431 0.207430
H54   H     H_    0.697866 0.311288 0.861548 0.168040
H55   H     H_    0.572684 0.264844 0.895496 0.112602
H56   H     H_    0.071199 0.670601 0.309815 0.155773
H57   H     H_    0.664354 0.249572 0.033989 0.239531
H58   H     H_    0.728219 0.184037 0.968825 0.212383
H59   H     H_    0.789241 0.306191 0.003730 0.266739
H60   H     H_    0.610888 0.680728 0.253185 0.113506
H61   H     H_    0.666646 0.652206 0.166211 0.157626
H62   H     H_    0.849623 0.679421 0.246017 0.257456
H63   H     H_    0.779623 0.790584 0.233739 0.207828
H64   H     H_    0.791230 0.718669 0.327961 0.252485
H65   H     H_    0.308058 0.232513 0.154899 0.170492
H66   H     H_    0.254627 0.339298 0.116180 0.192556
H67   H     H_    0.489939 0.314386 0.005594 0.127161
H68   H     H_    0.260549 0.371445 0.251057 0.173626
H69   H     H_    0.333333 0.277297 0.290050 0.173178
N1    N     N_R   0.774070 0.445420 0.541180 -0.153068
N2    N     N_3   0.830101 0.599878 0.469608 -0.467820
N3    N     N_3   0.259260 0.380007 0.582883 -0.347556
N4    N     N_3   0.686312 0.467800 0.117910 -0.423819
N5    N     N_3   0.320886 0.299547 0.120116 -0.459567
N6    N     N_R   0.226730 0.554050 0.459240 -0.147235
N7    N     N_3   0.334223 0.355992 0.282597 -0.425513
N8    N     N_3   0.283399 0.517985 0.873652 -0.405005
N9    N     N_3   0.219065 0.221916 0.432426 -0.427755
N10   N     N_3   0.254240 0.869843 0.345267 -0.476779
N11   N     N_3   0.822240 0.977232 0.605377 -0.429205
N12   N     N_3   0.676883 0.470972 0.775670 -0.431665
N13   N     N_3   0.106829 0.320741 0.679923 -0.481771
O1    O     O_R   0.631480 0.627510 0.519670 -0.605047
O2    O     O_3   0.763232 0.771457 0.588975 -0.602712
O3    O     O_3   0.704001 0.315196 0.624656 -0.570098
O4    O     O_3   0.280478 0.646717 0.344603 -0.624649
O5    O     O_3   0.309938 0.562813 0.714358 -0.598849
O6    O     O_3   0.437078 0.552747 0.022258 -0.602080
O7    O     O_3   0.640044 0.412324 0.928242 -0.621044
O8    O     O_3   0.682321 0.547219 0.264200 -0.596996
O9    O     O_R   0.455770 0.662400 0.493360 -0.602993
O10   O     O_R   0.598240 0.480510 0.398910 -0.616330
O11   O     O_R   0.422540 0.515400 0.372600 -0.562285
O12   O     O_R   0.544230 0.337600 0.506640 -0.510600
O13   O     O_R   0.368520 0.372490 0.480330 -0.589782
O14   O     O_R   0.577460 0.484600 0.627400 -0.605177
O15   O     O_R   0.401760 0.519490 0.601090 -0.557498
O16   O     O_3   0.597843 0.193435 0.448757 -0.591078
Zn1   Zn    Zn3+2 0.617320 0.476700 0.517570 0.993295
Zn2   Zn    Zn3+2 0.382680 0.523300 0.482430 0.995973

loop_
_geom_bond_atom_site_label_1
_geom_bond_atom_site_label_2
_ccdc_geom_bond_type
H65   N5    S    
C33   N1    A    
C23   C58   A    
C55   H61   S    
C34   N12   S    
C50   H44   S    
C27   C29   A    
C35   C36   A    
H52   N4    S    
C32   N1    A    
C7    C8    A    
H4    N9    S    
C53   C54   S    
C43   H18   S    
C48   H37   S    
C42   H15   S    
C29   C30   A    
H39   N3    S    
C1    O1    A    
C51   O6    S    
C40   O16   S    
C36   C37   A    
C37   C38   A    
C44   H22   S    
C10   C15   A    
H68   N7    S    
C49   H41   S    
C30   C31   A    
H31   N2    S    
C58   C60   S    
H29   N13   S    
C49   O5    S    
C3    C18   A    
C18   N9    S    
C5    C16   S    
C26   N6    A    
C57   H62   S    
H6    N10   S    
C45   C56   A    
C51   H48   S    
C50   H43   S    
C1    O9    A    
H7    N10   S    
C9    C10   A    
C3    C13   A    
C41   H11   S    
C46   H25   S    
C2    C34   A    
C22   H56   S    
C4    O11   A    
O13   Zn2   S    
C4    C35   S    
C59   C60   D    
H53   N4    S    
C54   H59   S    
C53   O7    S    
H3    N8    S    
C36   N7    S    
C44   C46   S    
C55   H60   S    
C3    H1    S    
C2    C45   A    
C4    O10   A    
C42   H14   S    
C1    C19   S    
C40   H9    S    
C51   C52   S    
C12   O8    S    
H32   N2    S    
C24   C25   A    
C44   H21   S    
C49   H42   S    
C8    C9    A    
C15   H23   S    
C5    C18   A    
C52   H51   S    
C25   C26   A    
H20   N11   S    
N1    Zn1   S    
C31   N3    S    
C6    C19   A    
C57   H63   S    
H69   N7    S    
C47   C48   S    
C14   C15   A    
C52   H50   S    
C10   C19   A    
C23   C34   A    
C16   O13   A    
C44   O3    S    
C47   H33   S    
H27   N12   S    
C12   C35   A    
C17   O16   S    
C9    C11   A    
H30   N13   S    
C33   O3    S    
C46   H24   S    
H5    N9    S    
C40   C41   S    
O15   Zn2   S    
C55   C57   S    
C16   O12   A    
C22   C24   A    
C25   C27   A    
C42   C43   S    
C20   C33   A    
C6    O2    S    
H28   N12   S    
C53   H54   S    
C55   O8    S    
C28   O14   A    
C39   N4    S    
C43   H16   S    
C20   H34   S    
C11   C17   A    
N6    Zn2   S    
C48   H36   S    
C27   C32   A    
C45   O5    S    
C8    H12   S    
O14   Zn1   S    
H40   N3    S    
O1    Zn1   S    
C6    C7    A    
C43   H17   S    
C48   H38   S    
C21   C22   A    
C30   N13   S    
O9    Zn2   S    
C12   C39   A    
C54   H58   S    
O12   Zn1   S    
C21   O4    S    
C57   H64   S    
C42   O2    S    
C56   N8    S    
C11   C13   A    
C38   C39   A    
O10   Zn1   S    
C52   H49   S    
O11   Zn2   S    
C28   O15   A    
C56   C58   A    
H19   N11   S    
H2    N8    S    
C23   O7    S    
C47   O4    S    
C41   H13   S    
C38   C59   S    
C7    N11   S    
C26   C31   A    
C5    C17   A    
C14   N10   S    
H66   N5    S    
C20   C29   A    
C51   H47   S    
C49   C50   S    
C40   H8    S    
C54   H57   S    
C50   H46   S    
C47   H35   S    
C37   N5    S    
C2    C28   S    
C24   H45   S    
C60   O6    S    
C13   C14   A    
C59   H67   S    
C21   N6    A    
C32   N2    S    
C53   H55   S    
C41   H10   S    
C46   H26   S    
