data_mof_unit_34057.cif
_audit_creation_date              2012-12-10T20:26:26-0500
_audit_creation_method            fapswitch 2.2
_symmetry_space_group_name_H-M    P1
_symmetry_Int_Tables_number       1
_space_group_crystal_system       triclinic
_cell_length_a                    10.678405
_cell_length_b                    10.689543
_cell_length_c                    9.892034
_cell_angle_alpha                 89.447626
_cell_angle_beta                  89.66652
_cell_angle_gamma                 90.526921
_cell_volume                      1129.02873558

loop_
_atom_site_label
_atom_site_type_symbol
_atom_type_description
_atom_site_fract_x
_atom_site_fract_y
_atom_site_fract_z
_atom_type_partial_charge
C1    C     C_R   0.504239 0.259902 0.500276 0.877529
C2    C     C_R   0.525786 0.128553 0.499831 -0.105035
C3    C     C_R   0.544768 0.066172 0.377120 -0.227789
C4    C     C_R   0.545468 0.936702 0.376562 -0.233905
C5    C     C_R   0.527388 0.871262 0.498729 -0.097232
C6    C     C_R   0.533609 0.934589 0.620833 0.131621
C7    C     C_3   0.450514 0.924048 0.742497 -0.477752
C8    C     C_3   0.447763 0.065433 0.741864 -0.502908
C9    C     C_R   0.454712 0.399257 0.071827 0.134682
C10   C     C_R   0.554927 0.594534 0.070614 -0.139870
C11   C     C_R   0.554832 0.594597 0.926809 -0.128265
C12   C     C_R   0.262972 0.507885 0.500916 0.941650
C13   C     C_R   0.456262 0.398656 0.929706 0.174841
C14   C     C_3   0.328645 0.342475 0.921627 -0.566641
C15   C     C_3   0.325785 0.341859 0.075540 0.000436
C16   C     C_R   0.505112 0.739937 0.499381 0.867404
C17   C     C_R   0.737481 0.500742 0.499453 0.917955
C18   C     C_2   0.932496 0.566592 0.403063 -0.172720
C19   C     C_2   0.869869 0.500935 0.497777 -0.309026
C20   C     C_2   0.068207 0.565513 0.398681 -0.152659
C21   C     C_2   0.132343 0.530677 0.507284 -0.334997
C22   C     C_R   0.532301 0.062397 0.621324 0.139954
H1    H     H_    0.883455 0.617703 0.324259 0.157923
H2    H     H_    0.494674 0.107090 0.831030 0.202485
H3    H     H_    0.597482 0.671950 0.123560 0.138520
H4    H     H_    0.597534 0.671936 0.871811 0.143244
H5    H     H_    0.260777 0.406694 0.872687 0.221301
H6    H     H_    0.328174 0.247024 0.880453 0.182068
H7    H     H_    0.324894 0.246780 0.122525 0.150015
H8    H     H_    0.913758 0.444864 0.575594 0.138349
H9    H     H_    0.115252 0.590107 0.304490 0.174409
H10   H     H_    0.089885 0.523012 0.606886 0.147434
H11   H     H_    0.549667 0.116044 0.281339 0.167282
H12   H     H_    0.550539 0.888980 0.280591 0.163642
H13   H     H_    0.358053 0.880285 0.720372 0.207573
H14   H     H_    0.499972 0.884269 0.831375 0.195382
H15   H     H_    0.353868 0.102863 0.716639 0.200140
N1    N     N_R   0.499170 0.499140 0.142800 -0.104702
N2    N     N_R   0.499170 0.499180 0.857150 -0.096272
O1    O     O_R   0.500020 0.316790 0.614690 -0.611322
O2    O     O_R   0.500000 0.316760 0.385350 -0.624500
O3    O     O_R   0.319080 0.500020 0.614640 -0.628645
O4    O     O_R   0.319070 0.499980 0.385300 -0.585135
O5    O     O_R   0.500000 0.683240 0.614650 -0.623772
O6    O     O_R   0.499980 0.683210 0.385310 -0.633954
O7    O     O_R   0.680930 0.500020 0.614700 -0.617947
O8    O     O_R   0.680920 0.499980 0.385360 -0.613809
Zn1   Zn    Zn3+2 0.500010 0.500020 0.653130 0.940331
Zn2   Zn    Zn3+2 0.499990 0.499980 0.346870 0.947386
N3    N     N_2   0.229429 0.423239 0.128215 -0.245395
H16   H     H_    0.232515 0.513699 0.090696 0.231222
C23   C     C_3   0.105082 0.367879 0.127007 -0.777464
H17   H     H_    0.034560 0.437345 0.158444 0.234051
H18   H     H_    0.100468 0.286845 0.198055 0.249323
H19   H     H_    0.080366 0.336567 0.023662 0.233566

loop_
_geom_bond_atom_site_label_1
_geom_bond_atom_site_label_2
_ccdc_geom_bond_type
C16   O6    A    
C2    C22   A    
N3    C23   S    
C6    C7    S    
C8    H2    S    
C14   H5    S    
C7    H14   S    
C16   O5    A    
C8    C22   S    
C11   H4    S    
C23   H19   S    
O6    Zn2   S    
C10   N1    A    
C2    C3    A    
C9    C15   S    
C7    C8    S    
O8    Zn2   S    
N1    Zn2   S    
O3    Zn1   S    
C13   C14   S    
C17   O7    A    
C11   N2    A    
C10   H3    S    
O2    Zn2   S    
C9    N1    A    
C17   C19   S    
C23   H18   S    
C15   H7    S    
C12   O4    A    
C18   C20   S    
C5    C6    A    
C21   H10   S    
C4    H12   S    
C13   N2    A    
C10   C11   A    
C3    H11   S    
C18   H1    S    
C6    C22   A    
O7    Zn1   S    
C17   O8    A    
O5    Zn1   S    
C20   C21   D    
C1    C2    S    
C8    H15   S    
C15   N3    S    
C1    O2    A    
O1    Zn1   S    
C9    C13   A    
C14   C15   S    
C18   C19   D    
C5    C16   S    
C12   O3    A    
N3    H16   S    
C1    O1    A    
C14   H6    S    
C19   H8    S    
C7    H13   S    
C12   C21   S    
O4    Zn2   S    
C3    C4    A    
C23   H17   S    
C4    C5    A    
N2    Zn1   S    
C20   H9    S    
