data_mof_unit_54129.cif
_audit_creation_date              2013-03-05T16:15:03-0500
_audit_creation_method            fapswitch 2.2
_symmetry_space_group_name_H-M    P1
_symmetry_Int_Tables_number       1
_space_group_crystal_system       triclinic
_cell_length_a                    23.632188
_cell_length_b                    10.683018
_cell_length_c                    9.559432
_cell_angle_alpha                 89.085982
_cell_angle_beta                  90.044498
_cell_angle_gamma                 89.411475
_cell_volume                      2412.96829016

loop_
_atom_site_label
_atom_site_type_symbol
_atom_site_description
_atom_site_fract_x
_atom_site_fract_y
_atom_site_fract_z
_atom_type_partial_charge
O1    O     O_R   0.500030 0.316850 0.620870 -0.540508
O2    O     O_R   0.499970 0.683150 0.379130 -0.532587
O3    O     O_R   0.500000 0.316860 0.379090 -0.540575
O4    O     O_R   0.500000 0.683140 0.620910 -0.547060
C1    C     C_R   0.501665 0.259975 0.501068 0.893790
C2    C     C_R   0.498683 0.740115 0.499446 0.885956
O5    O     O_R   0.417890 0.499960 0.620920 -0.599746
O6    O     O_R   0.582110 0.500040 0.379080 -0.553303
O7    O     O_R   0.417870 0.499970 0.379140 -0.513220
O8    O     O_R   0.582130 0.500030 0.620860 -0.547853
C3    C     C_R   0.391115 0.503245 0.499228 0.832998
C4    C     C_R   0.608744 0.503101 0.499687 0.910335
Cu1   Cu    Cu3+1 0.500010 0.499990 0.643150 1.089286
Cu2   Cu    Cu3+1 0.499990 0.500010 0.356850 1.121513
C5    C     C_R   0.879661 0.609995 0.415900 0.578763
C6    C     C_R   0.120215 0.408096 0.491193 0.578473
N1    N     N_R   0.852502 0.509487 0.474799 -0.451400
N2    N     N_R   0.147144 0.520999 0.483276 -0.448142
C7    C     C_R   0.882453 0.406049 0.520745 0.610688
C8    C     C_R   0.117159 0.629866 0.459102 0.612176
C9    C     C_R   0.941672 0.398277 0.501170 -0.087376
C10   C     C_R   0.058177 0.626884 0.433399 -0.093534
C11   C     C_R   0.970100 0.508969 0.460311 -0.002934
C12   C     C_R   0.029793 0.513160 0.461662 -0.002437
C13   C     C_R   0.938840 0.615874 0.418862 -0.023742
C14   C     C_R   0.061062 0.403488 0.492129 -0.023176
C15   C     C_R   0.973762 0.286763 0.526095 -0.042630
C16   C     C_R   0.026142 0.732976 0.386026 -0.035071
C17   C     C_R   0.032928 0.291169 0.521046 -0.179173
C18   C     C_R   0.967045 0.725753 0.379760 -0.163480
O9    O     O_2   0.849488 0.704348 0.355746 -0.487869
O10   O     O_2   0.150631 0.300561 0.499251 -0.496318
O11   O     O_2   0.855133 0.313656 0.589688 -0.483109
O12   O     O_2   0.144121 0.740233 0.465411 -0.466865
H1    H     H_    0.057094 0.205732 0.540023 0.219904
H2    H     H_    0.942942 0.806988 0.343743 0.212350
C19   C     C_R   0.239286 0.577084 0.385934 -0.132515
C20   C     C_R   0.761476 0.414594 0.423356 -0.110997
H3    H     H_    0.216482 0.620045 0.299082 0.211608
H4    H     H_    0.785149 0.342583 0.369653 0.214529
C21   C     C_R   0.298494 0.577880 0.386979 0.338920
C22   C     C_R   0.702645 0.407113 0.432635 0.317013
C23   C     C_R   0.328031 0.511801 0.496456 -0.203098
C24   C     C_R   0.671729 0.505347 0.497395 -0.204351
C25   C     C_R   0.296089 0.451961 0.603879 -0.165213
C26   C     C_R   0.701701 0.607454 0.555912 -0.167506
C27   C     C_R   0.236656 0.468174 0.610178 -0.039639
C28   C     C_R   0.761870 0.605793 0.556551 -0.041836
C29   C     C_R   0.208133 0.524686 0.495540 0.199117
C30   C     C_R   0.791435 0.510348 0.485873 0.185297
C31   C     C_3   0.551943 0.034509 0.545999 -0.029832
C32   C     C_3   0.450371 0.966041 0.458483 -0.081280
C33   C     C_3   0.541174 0.956133 0.414620 -0.108447
C34   C     C_3   0.461490 0.044046 0.589136 -0.177903
H5    H     H_    0.574704 0.920562 0.344216 0.244621
H6    H     H_    0.428723 0.078719 0.661450 0.218719
C35   C     C_3   0.498967 0.877188 0.499878 -0.090626
C36   C     C_3   0.503213 0.122978 0.503239 -0.089001
C37   C     C_3   0.510544 0.954015 0.631776 -0.097936
C38   C     C_3   0.491770 0.045914 0.371707 -0.097608
H7    H     H_    0.518343 0.916377 0.739032 0.249196
H8    H     H_    0.483847 0.083327 0.264400 0.260731
C39   C     C_3   0.504318 0.610860 0.046682 0.292377
C40   C     C_3   0.495166 0.389091 0.953287 0.276185
C41   C     C_3   0.457807 0.566560 0.948085 -0.205012
C42   C     C_3   0.541795 0.433306 0.051479 -0.230116
N3    N     N_3   0.500040 0.499970 0.858290 -0.309713
N4    N     N_3   0.499960 0.500030 0.141710 -0.306652
C43   C     C_3   0.545808 0.545040 0.949863 0.299705
C44   C     C_3   0.453801 0.454692 0.050584 0.306613
C45   C     C_2   0.947821 0.161914 0.545894 0.974166
O13   O     O_2   0.965713 0.090311 0.637190 -0.538544
O14   O     O_R   0.904821 0.123779 0.455896 -0.694366
H9    H     H_    0.891335 0.035941 0.478452 0.359583
C46   C     C_2   0.051894 0.849772 0.331014 0.960720
O15   O     O_2   0.091628 0.844818 0.249316 -0.514560
O16   O     O_R   0.028501 0.965662 0.366706 -0.746276
H10   H     H_    0.048979 0.038553 0.321088 0.346984
C47   C     C_2   0.412625 0.650875 0.886722 1.041106
O17   O     O_2   0.362931 0.621799 0.894615 -0.484718
O18   O     O_R   0.427683 0.763984 0.822542 -0.723272
H11   H     H_    0.393772 0.812988 0.785361 0.353181
C48   C     C_2   0.586826 0.346704 0.107042 1.049437
O19   O     O_2   0.636510 0.376142 0.099575 -0.503445
O20   O     O_R   0.571641 0.228988 0.159465 -0.698922
H12   H     H_    0.605401 0.171662 0.176864 0.382454
N5    N     N_R   0.512763 0.736198 0.100128 0.174855
O21   O     O_R   0.471377 0.817320 0.100829 -0.284220
O22   O     O_R   0.562659 0.768726 0.142853 -0.312153
N6    N     N_R   0.485961 0.263882 0.900179 0.179472
O23   O     O_R   0.526409 0.180651 0.902162 -0.288544
O24   O     O_R   0.435244 0.230717 0.865241 -0.331650
N7    N     N_R   0.594275 0.609050 0.891045 0.177674
O25   O     O_R   0.644769 0.560157 0.899282 -0.280388
O26   O     O_R   0.587160 0.721410 0.839780 -0.332302
N8    N     N_R   0.404830 0.392037 0.111249 0.193700
O27   O     O_R   0.354203 0.438074 0.094693 -0.230692
O28   O     O_R   0.411545 0.286407 0.178955 -0.295378
N9    N     N_R   0.326441 0.645089 0.274606 0.159227
O29   O     O_R   0.374406 0.700254 0.294119 -0.339756
O30   O     O_R   0.299557 0.668950 0.158112 -0.265730
N10   N     N_R   0.675859 0.297349 0.378342 0.142378
O31   O     O_R   0.625006 0.267453 0.415890 -0.421700
O32   O     O_R   0.704326 0.218986 0.301909 -0.286869
C49   C     C_2   0.323048 0.358037 0.697563 0.989132
O33   O     O_2   0.329379 0.379743 0.821490 -0.463506
O34   O     O_R   0.337245 0.240838 0.644630 -0.734081
H13   H     H_    0.346660 0.177821 0.721574 0.365353
C50   C     C_2   0.670733 0.718538 0.610080 1.012961
O35   O     O_2   0.628896 0.758792 0.548489 -0.616723
O36   O     O_R   0.690161 0.779325 0.729240 -0.662286
H14   H     H_    0.667752 0.858091 0.750598 0.372760
C51   C     C_2   0.203747 0.426276 0.735078 0.948222
O37   O     O_2   0.167172 0.495124 0.782992 -0.549643
O38   O     O_R   0.213343 0.307995 0.795808 -0.691611
H15   H     H_    0.187878 0.291054 0.879137 0.361701
C52   C     C_2   0.794690 0.704102 0.627626 0.971131
O39   O     O_2   0.829416 0.674332 0.717367 -0.543975
O40   O     O_R   0.787318 0.829922 0.588409 -0.679428
H16   H     H_    0.812659 0.887593 0.642992 0.357926
C53   C     C_2   0.609341 0.067645 0.599659 0.949468
O41   O     O_2   0.651673 0.029143 0.540113 -0.505980
O42   O     O_R   0.614291 0.143358 0.716546 -0.696580
H17   H     H_    0.655149 0.160165 0.741865 0.356731
C54   C     C_2   0.391210 0.936802 0.416435 0.976920
O43   O     O_2   0.360183 0.882105 0.498814 -0.579184
O44   O     O_R   0.371171 0.975719 0.285081 -0.650327
H18   H     H_    0.330208 0.952301 0.269502 0.380093

loop_
_geom_bond_atom_site_label_1
_geom_bond_atom_site_label_2
_geom_bond_distance
_ccdc_geom_bond_type
C42   N4    1.495333 S    
N5    O21   1.300159 A    
C39   C41   1.530922 S    
N7    O25   1.299500 A    
C41   C47   1.502642 S    
C15   C17   1.400331 A    
O14   H9    1.014110 S    
O36   H14   1.013251 S    
C40   N6    1.456613 S    
O7    Cu2   1.952506 S    
O18   H11   1.013717 S    
O42   H17   1.013771 S    
C27   C29   1.410373 A    
O16   H10   1.013889 S    
O5    C3    1.323623 A    
C49   O34   1.395722 S    
C1    C36   1.463433 S    
O1    C1    1.305382 A    
C32   C54   1.491955 S    
C7    C9    1.413853 A    
C12   C14   1.405194 A    
C20   C22   1.396235 A    
C43   N7    1.449292 S    
C52   O40   1.398788 S    
Cu1   N3    2.056611 S    
C35   C37   1.541220 S    
C42   C43   1.530644 S    
C36   C38   1.539146 S    
C41   C44   1.537004 S    
C38   H8    1.110015 S    
O4    Cu1   1.964733 S    
C46   O16   1.398051 S    
C32   C38   1.539233 S    
C42   C48   1.494564 S    
C39   C43   1.523304 S    
C24   C26   1.427998 A    
C41   N3    1.498408 S    
N8    O28   1.300134 A    
C11   C12   1.411901 A    
C21   N9    1.446342 S    
C3    C23   1.492868 S    
C40   C44   1.523139 S    
C8    O12   1.348129 S    
C25   C27   1.414850 A    
C9    C15   1.422398 A    
N7    O26   1.298545 A    
C10   C16   1.424163 A    
Cu1   Cu2   2.736863 S    
C21   C23   1.430385 A    
C2    C35   1.464512 S    
O2    C2    1.310010 A    
C22   C24   1.422684 A    
C5    N1    1.370143 A    
C22   N10   1.441963 S    
C25   C49   1.473780 S    
C33   C38   1.554037 S    
C32   C34   1.536419 S    
C26   C28   1.421873 A    
C34   C37   1.548873 S    
C33   H5    1.108169 S    
C9    C11   1.415725 A    
C6    C14   1.399327 A    
C34   H6    1.103541 S    
C37   H7    1.109922 S    
C40   N3    1.486505 S    
O4    C2    1.302560 A    
C7    O11   1.348494 S    
C47   O18   1.395942 S    
C33   C35   1.538523 S    
O20   H12   1.012786 S    
N3    C43   1.480092 S    
C40   C42   1.530282 S    
C44   N8    1.458853 S    
C46   O15   1.223067 D    
C19   C29   1.394313 A    
N6    O24   1.298255 A    
C48   O19   1.220487 D    
O5    Cu1   1.952118 S    
O6    C4    1.314158 A    
N8    O27   1.297496 A    
C31   C36   1.533331 S    
N10   O32   1.302285 A    
C23   C25   1.422385 A    
C53   O41   1.222251 D    
O3    Cu2   1.964734 S    
O8    C4    1.318624 A    
N4    C44   1.485320 S    
C48   O20   1.396723 S    
C8    C10   1.415935 A    
O7    C3    1.311790 A    
C54   O43   1.222386 D    
C31   C53   1.497642 S    
C10   C12   1.416160 A    
C31   C37   1.537862 S    
O34   H13   1.012233 S    
O44   H18   1.013815 S    
C15   C45   1.483068 S    
C45   O14   1.398958 S    
C51   O37   1.223166 D    
C34   C36   1.534190 S    
C13   C18   1.401567 A    
C27   C51   1.490747 S    
C39   N4    1.485265 S    
O6    Cu2   1.952113 S    
C39   N5    1.456345 S    
O3    C1    1.306653 A    
O8    Cu1   1.952504 S    
N1    C30   1.447043 S    
O40   H16   1.013818 S    
C5    O9    1.349535 S    
C28   C52   1.484889 S    
C20   C30   1.392321 A    
C6    O10   1.349980 S    
C49   O33   1.220166 D    
C17   H1    1.084426 S    
N9    O29   1.297630 A    
C18   H2    1.084499 S    
C50   O36   1.399628 S    
C16   C18   1.400795 A    
C19   H3    1.082800 S    
C52   O39   1.222861 D    
C20   H4    1.082838 S    
N6    O23   1.298709 A    
C28   C30   1.411514 A    
N1    C7    1.372207 A    
N2    C8    1.372006 A    
C11   C13   1.405285 A    
C19   C21   1.399357 A    
N10   O31   1.296146 A    
O2    Cu2   1.971418 S    
C53   O42   1.395358 S    
C5    C13   1.400865 A    
C32   C35   1.530171 S    
C47   O17   1.219933 D    
C45   O13   1.223551 D    
O1    Cu1   1.971418 S    
C14   C17   1.401540 A    
C6    N2    1.370550 A    
C26   C50   1.488070 S    
C54   O44   1.397209 S    
N5    O22   1.300057 A    
Cu2   N4    2.056611 S    
C4    C24   1.489076 S    
C31   C33   1.542904 S    
C50   O35   1.221245 D    
C16   C46   1.482875 S    
N9    O30   1.302029 A    
O38   H15   1.013820 S    
N2    C29   1.446983 S    
C51   O38   1.398450 S    
