data_mof_unit_15946.cif
_audit_creation_date              2012-12-11T14:36:06-0500
_audit_creation_method            fapswitch 2.2
_symmetry_space_group_name_H-M    P1
_symmetry_Int_Tables_number       1
_space_group_crystal_system       triclinic
_cell_length_a                    13.637094
_cell_length_b                    13.675335
_cell_length_c                    27.338887
_cell_angle_alpha                 90.903276
_cell_angle_beta                  89.2695
_cell_angle_gamma                 59.969384
_cell_volume                      4412.24644405

loop_
_atom_site_label
_atom_site_type_symbol
_atom_type_description
_atom_site_fract_x
_atom_site_fract_y
_atom_site_fract_z
_atom_type_partial_charge
C1    C     C_R   0.620053 0.103346 0.569905 0.539816
C2    C     C_1   0.625836 0.724009 0.613796 0.043624
C3    C     C_3   0.676327 0.532530 0.758873 -0.100027
C4    C     C_3   0.691116 0.605560 0.798921 0.038932
C5    C     C_3   0.572467 0.640762 0.740219 -0.167364
C6    C     C_3   0.651513 0.660777 0.706670 0.018371
C7    C     C_3   0.587782 0.711766 0.780889 -0.134926
C8    C     C_3   0.667015 0.731292 0.746898 -0.143322
C9    C     C_1   0.703139 0.591208 0.851961 0.037151
C10   C     C_1   0.636405 0.691020 0.655005 0.035346
C11   C     C_3   0.149696 0.098108 0.745009 -0.104707
C12   C     C_R   0.598825 0.778227 0.567764 0.543451
C13   C     C_3   0.246701 0.024560 0.779611 -0.157496
C14   C     C_1   0.124214 0.184864 0.906747 0.048086
C15   C     C_1   0.238061 0.135526 0.619581 0.028690
C16   C     C_3   0.112247 0.201101 0.779872 0.308996
C17   C     C_3   0.208324 0.128677 0.814486 -0.024863
C18   C     C_3   0.189113 0.234593 0.751932 0.253249
C19   C     C_3   0.224702 0.133055 0.717042 0.012895
C20   C     C_3   0.287517 0.160962 0.786390 -0.138971
C21   C     C_3   0.323295 0.058649 0.750297 -0.028032
C22   C     C_1   0.172200 0.151676 0.866991 0.015982
C23   C     C_R   0.277918 0.122128 0.569810 0.534666
C24   C     C_1   0.224223 0.137832 0.663325 0.023167
C25   C     C_3   0.606765 0.290007 0.744277 -0.107093
C26   C     C_3   0.538508 0.262443 0.781889 -0.118237
C27   C     C_1   0.686259 0.207906 0.905250 0.057674
C28   C     C_1   0.632745 0.141168 0.618338 0.006451
C29   C     C_3   0.714104 0.223517 0.775180 -0.119576
C30   C     C_3   0.645719 0.195019 0.811417 0.014408
C31   C     C_3   0.745904 0.113793 0.745917 0.013284
C32   C     C_3   0.638614 0.180110 0.715218 0.019749
C33   C     C_3   0.677343 0.086352 0.782692 0.234362
C34   C     C_R   0.624242 0.102318 0.433020 0.562400
C35   C     C_3   0.569148 0.152683 0.752448 -0.116086
C36   C     C_1   0.661979 0.201600 0.863750 0.026517
C37   C     C_1   0.636457 0.164287 0.661251 -0.025623
C38   C     C_R   0.734333 0.711981 0.358154 -0.124985
C39   C     C_R   0.744454 0.697248 0.307236 -0.045499
C40   C     C_R   0.754016 0.681986 0.204265 -0.001620
C41   C     C_R   0.838154 0.692595 0.229805 0.227831
C42   C     C_R   0.832064 0.700205 0.281165 -0.126324
C43   C     C_R   0.761659 0.660515 0.153559 -0.099104
C44   C     C_R   0.678646 0.645788 0.130435 -0.020911
C45   C     C_R   0.602929 0.775305 0.430579 0.547504
C46   C     C_R   0.567531 0.691067 0.358216 -0.104235
C47   C     C_R   0.572440 0.683322 0.307652 0.023856
C48   C     C_R   0.660241 0.688078 0.281853 0.050334
C49   C     C_R   0.485162 0.680714 0.282582 -0.123347
C50   C     C_R   0.482471 0.686850 0.232056 -0.148846
C51   C     C_R   0.572379 0.684788 0.205989 0.010703
C52   C     C_R   0.662286 0.685349 0.230709 0.025296
C53   C     C_R   0.578105 0.672306 0.155648 -0.130064
C54   C     C_R   0.641416 0.716286 0.383167 0.000877
C55   C     C_R   0.243295 0.045527 0.355463 -0.094639
C56   C     C_R   0.278561 0.119965 0.431544 0.540494
C57   C     C_R   0.216439 0.059941 0.306249 0.034366
C58   C     C_R   0.175619 0.088089 0.205119 0.024351
C59   C     C_R   0.231439 0.979509 0.225271 -0.098737
C60   C     C_R   0.250231 0.966218 0.275199 -0.073765
C61   C     C_R   0.153241 0.104470 0.154339 -0.013416
C62   C     C_R   0.094946 0.216845 0.137289 0.011024
C63   C     C_R   0.158994 0.248455 0.367670 -0.106268
C64   C     C_R   0.129383 0.264187 0.318696 0.014003
C65   C     C_R   0.161136 0.169188 0.287381 0.061261
C66   C     C_R   0.073988 0.372845 0.300003 -0.097999
C67   C     C_3   0.754726 0.554327 0.724320 0.301388
C68   C     C_R   0.052350 0.387129 0.250382 -0.074009
C69   C     C_R   0.086542 0.293229 0.218864 0.014976
C70   C     C_R   0.140605 0.183383 0.237037 0.046780
C71   C     C_R   0.064969 0.308702 0.169579 -0.100109
C72   C     C_R   0.220067 0.139058 0.385506 0.003953
C73   C     C_R   0.566269 0.249124 0.367948 0.247266
C74   C     C_R   0.568152 0.257934 0.316649 -0.022449
C75   C     C_R   0.574283 0.273092 0.213582 0.007514
C76   C     C_R   0.473910 0.346042 0.240586 0.179327
C77   C     C_R   0.473028 0.339155 0.291671 -0.060035
C78   C     C_3   0.770899 0.624607 0.764941 0.001216
C79   C     C_R   0.586131 0.285271 0.162922 -0.112110
C80   C     C_R   0.686706 0.210042 0.137771 -0.007998
C81   C     C_R   0.749760 0.077074 0.363074 -0.127569
C82   C     C_R   0.760291 0.092403 0.313447 -0.010544
C83   C     C_R   0.665206 0.178880 0.289482 -0.033294
C84   C     C_R   0.860281 0.018441 0.286449 0.274658
C85   C     C_R   0.860264 0.025025 0.235776 -0.066903
C86   C     C_R   0.765318 0.107545 0.211976 -0.029832
C87   C     C_R   0.668047 0.186841 0.238399 0.018215
C88   C     C_R   0.770451 0.115616 0.161955 -0.093775
C89   C     C_1   0.708741 0.580704 0.895709 0.041881
C90   C     C_R   0.649622 0.147844 0.389180 -0.021567
C91   C     C_R   0.053214 0.233932 0.950642 0.562870
C92   C     C_R   0.714691 0.556185 0.946740 0.553475
C93   C     C_R   0.721794 0.225137 0.951774 0.563706
C94   C     C_R   0.046478 0.246187 0.088510 0.528797
C95   C     C_R   0.706093 0.577198 0.085456 0.542485
C96   C     C_R   0.719079 0.234029 0.089737 0.544829
Cr1   Cr    Cr6+3 0.417550 0.169090 0.500530 1.147445
Cr2   Cr    Cr6+3 0.669180 0.913420 0.499920 1.057294
Cr3   Cr    Cr6+3 0.413260 0.917540 0.499520 1.048223
Cr4   Cr    Cr6+3 0.909170 0.177380 0.020380 1.037619
Cr5   Cr    Cr6+3 0.912710 0.429210 0.018220 1.073933
Cr6   Cr    Cr6+3 0.657170 0.432570 0.019030 1.044449
H1    H     H_    0.851633 0.618982 0.775622 0.225968
H2    H     H_    0.346025 0.184482 0.803932 0.146377
H3    H     H_    0.454511 0.323012 0.798487 0.169677
H4    H     H_    0.577564 0.373278 0.727590 0.141137
H5    H     H_    0.502459 0.132619 0.744757 0.142330
H6    H     H_    0.764585 0.255775 0.792543 0.201308
H7    H     H_    0.835725 0.645314 0.132532 0.207079
H8    H     H_    0.792859 0.729614 0.377548 0.152754
H9    H     H_    0.895591 0.708636 0.301024 0.200426
H10   H     H_    0.510813 0.666863 0.137325 0.136496
H11   H     H_    0.411231 0.690926 0.213340 0.141891
H12   H     H_    0.416420 0.678967 0.302148 0.141279
H13   H     H_    0.497183 0.691602 0.377462 0.154122
H14   H     H_    0.291118 0.960565 0.369166 0.138955
H15   H     H_    0.261172 0.903345 0.203210 0.126433
H16   H     H_    0.664758 0.812097 0.746325 0.175378
H17   H     H_    0.292315 0.882203 0.289641 0.118662
H18   H     H_    0.018365 0.394509 0.156763 0.180112
H19   H     H_    0.009680 0.471636 0.236579 0.181827
H20   H     H_    0.048877 0.446503 0.323552 0.138636
H21   H     H_    0.140516 0.320660 0.391133 0.154837
H22   H     H_    0.520899 0.354446 0.143133 0.174713
H23   H     H_    0.395126 0.394279 0.311644 0.222446
H24   H     H_    0.846831 0.052661 0.142801 0.151429
H25   H     H_    0.518970 0.777479 0.804700 0.142380
H26   H     H_    0.935948 0.967613 0.214699 0.190388
H27   H     H_    0.815712 0.004557 0.380964 0.217478
H28   H     H_    0.490585 0.648884 0.729403 0.131686
H29   H     H_    0.674872 0.454577 0.767200 0.099205
H30   H     H_    0.271258 0.937546 0.790521 0.121782
H31   H     H_    0.094691 0.072644 0.725952 0.160733
O1    O     O_R   0.301710 0.195650 0.554160 -0.480694
O2    O     O_R   0.658900 0.818120 0.449760 -0.497760
O3    O     O_R   0.503220 0.801620 0.445520 -0.514343
O4    O     O_R   0.319370 0.022040 0.450020 -0.504660
O5    O     O_3   0.499990 0.000010 0.499990 -0.285862
O6    O     O_R   0.818720 0.150820 0.967160 -0.475648
O7    O     O_R   0.006410 0.181720 0.970200 -0.487211
O8    O     O_R   0.027890 0.334070 0.964920 -0.493492
O9    O     O_R   0.809600 0.521790 0.967960 -0.478637
O10   O     O_R   0.635520 0.542770 0.964420 -0.513824
O11   O     O_R   0.665950 0.325030 0.970100 -0.504667
O12   O     O_R   0.522390 0.158990 0.550460 -0.473008
O13   O     O_R   0.816620 0.158530 0.074540 -0.530712
O14   O     O_R   0.004460 0.188870 0.069750 -0.519421
O15   O     O_R   0.025800 0.341780 0.072300 -0.502471
O16   O     O_R   0.807650 0.528950 0.067500 -0.499540
O17   O     O_R   0.633420 0.550490 0.071810 -0.517616
O18   O     O_R   0.664000 0.332180 0.069640 -0.494731
O19   O     O_3   0.826350 0.346390 0.019210 -0.263072
O20   O     O_R   0.694390 0.003530 0.554040 -0.509633
O21   O     O_R   0.657700 0.819660 0.549320 -0.493725
O22   O     O_R   0.501930 0.803280 0.552920 -0.505252
O23   O     O_R   0.318170 0.023580 0.549580 -0.505322
O24   O     O_R   0.303010 0.193990 0.446760 -0.474135
O25   O     O_R   0.523600 0.157450 0.450900 -0.426155
O26   O     O_R   0.695690 0.001860 0.446640 -0.518857
S1    S     S_3+6 0.173281 0.368378 0.735602 0.069433
O27   O     O_2   0.280892 0.368932 0.745860 -0.336781
O28   O     O_2   0.150654 0.387840 0.681982 -0.185064
O29   O     O_3   0.066858 0.473811 0.768297 -0.446418
H32   H     H_    0.091015 0.459348 0.802709 0.348232
S2    S     S_3+6 0.965181 0.273724 0.793590 -0.018820
O30   O     O_2   0.938596 0.225484 0.837437 -0.331065
O31   O     O_2   0.923465 0.396693 0.802858 -0.291702
O32   O     O_3   0.907449 0.250670 0.743859 -0.556108
H33   H     H_    0.836756 0.321327 0.738298 0.373273
S3    S     S_3+6 0.724062 0.955302 0.813467 -0.028169
O33   O     O_2   0.784984 0.954870 0.858933 -0.241864
O34   O     O_2   0.623930 0.943788 0.828105 -0.310198
O35   O     O_3   0.814787 0.843719 0.778087 -0.525152
H34   H     H_    0.795218 0.867663 0.744009 0.311116
C97   C     C_3   0.862803 0.033557 0.722730 -0.236918
C98   C     C_3   0.955501 0.979813 0.760911 -0.275073
C99   C     C_3   0.064039 0.881750 0.738409 -0.435560
H35   H     H_    0.049962 0.810839 0.728208 0.206468
H36   H     H_    0.091265 0.908292 0.705169 0.149820
H37   H     H_    0.132677 0.851465 0.765438 0.152920
H38   H     H_    0.973213 0.044384 0.776606 0.221231
H39   H     H_    0.928175 0.947028 0.791689 0.251936
H40   H     H_    0.857608 0.967202 0.700962 0.137600
H41   H     H_    0.885115 0.081686 0.696894 0.190892
S4    S     S_3+6 0.855045 0.469349 0.676581 0.049655
O36   O     O_2   0.963071 0.378364 0.696565 -0.172758
O37   O     O_2   0.803269 0.416928 0.645029 -0.302004
O38   O     O_3   0.885490 0.552249 0.642332 -0.502870
H42   H     H_    0.933017 0.502893 0.614670 0.380567
S5    S     S_3+6 0.948544 0.701850 0.198942 -0.006328
O39   O     O_2   0.897033 0.801922 0.166222 -0.318146
O40   O     O_2   0.022957 0.715731 0.235059 -0.187758
O41   O     O_3   0.028491 0.584285 0.164594 -0.546402
H43   H     H_    0.088918 0.595239 0.149840 0.408722
C100  C     C_3   0.194498 0.003816 0.118790 -0.249939
C101  C     C_3   0.118932 0.949954 0.121462 -0.296365
C102  C     C_3   0.170930 0.839114 0.091862 -0.414795
H44   H     H_    0.182372 0.853775 0.052884 0.151579
H45   H     H_    0.254277 0.777229 0.106800 0.172916
H46   H     H_    0.113909 0.803106 0.093999 0.189491
H47   H     H_    0.105777 0.932972 0.159829 0.187797
H48   H     H_    0.034325 0.008606 0.106906 0.197917
H49   H     H_    0.197994 0.028377 0.080585 0.156923
H50   H     H_    0.283885 0.940655 0.126472 0.135717
S6    S     S_3+6 0.469210 0.367825 0.405073 0.020039
O42   O     O_2   0.357410 0.371239 0.408249 -0.279648
O43   O     O_2   0.514330 0.360454 0.455605 -0.255711
O44   O     O_3   0.450292 0.487427 0.379902 -0.550830
H51   H     H_    0.391328 0.549407 0.400761 0.372718
S7    S     S_3+6 0.344933 0.439182 0.211671 0.015523
O45   O     O_2   0.319337 0.372732 0.174848 -0.254489
O46   O     O_2   0.248943 0.493485 0.248703 -0.216229
O47   O     O_3   0.354972 0.541303 0.182532 -0.515037
H52   H     H_    0.434299 0.523166 0.186336 0.306203
S8    S     S_3+6 0.988577 0.921688 0.314585 0.008198
O48   O     O_2   0.016441 0.983454 0.352914 -0.288764
O49   O     O_2   0.974691 0.830943 0.338421 -0.295139
O50   O     O_3   0.095656 0.861754 0.272986 -0.510965
H53   H     H_    0.158692 0.798840 0.290122 0.380081
C103  C     C_3   0.443065 0.973534 0.731139 -0.265501
C104  C     C_3   0.472682 0.001275 0.680444 -0.310229
C105  C     C_3   0.599056 0.949892 0.669557 -0.446702
H54   H     H_    0.638802 0.983176 0.694151 0.141509
H55   H     H_    0.647427 0.859262 0.672665 0.152480
H56   H     H_    0.611087 0.964817 0.631182 0.173109
H57   H     H_    0.438910 0.968185 0.651898 0.165348
H58   H     H_    0.433752 0.094000 0.676571 0.187663
H59   H     H_    0.502557 0.969752 0.758868 0.195834
H60   H     H_    0.448452 0.890229 0.727740 0.149916

loop_
_geom_bond_atom_site_label_1
_geom_bond_atom_site_label_2
_ccdc_geom_bond_type
C66   C68   A    
Cr2   O21   S    
Cr5   O15   S    
S5    O39   D    
C73   C74   A    
C39   C48   A    
C83   C87   A    
O29   H32   S    
C74   C83   A    
C42   H9    S    
C2    C12   S    
C20   C21   S    
C34   C90   S    
C81   C82   A    
S4    O36   D    
C8    H16   S    
C7    C8    S    
C47   C49   A    
C31   C97   S    
S6    O42   D    
Cr4   O19   S    
C98   H39   S    
C6    C67   S    
C11   C19   S    
S2    O30   D    
C41   S5    S    
Cr2   O5    S    
C3    H29   S    
C55   H14   S    
C12   O21   A    
C19   C21   S    
C73   C90   A    
C11   H31   S    
Cr5   O9    S    
C5    C6    S    
C86   C88   A    
S4    O37   D    
C100  H49   S    
S3    O33   D    
Cr4   O14   S    
C65   C70   A    
C17   C20   S    
C58   C70   A    
C103  H59   S    
C60   H17   S    
C69   C71   A    
C18   C19   S    
C41   C42   A    
C102  H45   S    
C92   O10   A    
C88   H24   S    
Cr4   O7    S    
S5    O41   S    
Cr5   O8    S    
C44   C53   A    
C40   C43   A    
C47   C48   A    
Cr4   O13   S    
C16   C17   S    
C56   C72   S    
C21   C103  S    
Cr3   O22   S    
C62   C71   A    
C1    C28   S    
C66   H20   S    
C29   H6    S    
C98   C99   S    
C95   O16   A    
C38   H8    S    
C29   C30   S    
C92   O9    A    
C61   C100  S    
C55   C72   A    
C23   O1    A    
C84   S8    S    
Cr6   O18   S    
C57   C60   A    
C34   O26   A    
C61   C62   A    
C25   C32   S    
C15   C23   S    
C49   H12   S    
Cr2   O20   S    
C59   C60   A    
C59   H15   S    
O35   H34   S    
C23   O23   A    
C8    C78   S    
C102  H44   S    
C67   C78   S    
Cr6   O11   S    
Cr1   O1    S    
C4    C7    S    
C33   S3    S    
C26   H3    S    
C75   C76   A    
C103  C104  S    
C25   H4    S    
C39   C42   A    
S6    O43   D    
C94   O15   A    
C98   H38   S    
C45   O2    A    
C51   C52   A    
C32   C35   S    
C18   S1    S    
C76   C77   A    
S8    O50   S    
C9    C89   T    
C5    C7    S    
C86   C87   A    
C68   C69   A    
S4    O38   S    
C6    C8    S    
C100  H50   S    
C105  H56   S    
C99   H36   S    
C25   C26   S    
C85   C86   A    
C96   O18   A    
C104  H57   S    
C74   C77   A    
C63   C64   A    
O38   H42   S    
C51   C53   A    
Cr1   O24   S    
C102  H46   S    
C105  H55   S    
C43   C44   A    
S1    O29   S    
C4    C78   S    
C56   O24   A    
C93   O6    A    
Cr4   O6    S    
C104  C105  S    
C11   C16   S    
C81   H27   S    
C97   C98   S    
C38   C54   A    
O47   H52   S    
C16   S2    S    
C29   C31   S    
C99   H37   S    
Cr3   O23   S    
C46   C54   A    
C31   C33   S    
C50   C51   A    
C13   C21   S    
Cr3   O5    S    
C95   O17   A    
C15   C24   T    
C32   C37   S    
C84   C85   A    
C89   C92   S    
C1    O20   A    
C91   O7    A    
O44   H51   S    
C93   O11   A    
Cr6   O17   S    
C81   C90   A    
C103  H60   S    
C53   H10   S    
C75   C87   A    
C40   C41   A    
S1    O28   D    
C45   C54   S    
C82   C83   A    
S2    O32   S    
S7    O46   D    
C55   C57   A    
C49   C50   A    
C79   C80   A    
C27   C93   S    
C80   C96   S    
C1    O12   A    
C12   O22   A    
C101  H48   S    
C3    C4    S    
C2    C10   T    
C34   O25   A    
Cr1   O5    S    
C77   H23   S    
C97   H40   S    
S6    O44   S    
C76   S7    S    
C94   O14   A    
C73   S6    S    
C46   C47   A    
O32   H33   S    
C45   O3    A    
S5    O40   D    
C30   C33   S    
C78   H1    S    
Cr1   O12   S    
C31   C32   S    
C3    C67   S    
C57   C65   A    
C101  C102  S    
C3    C5    S    
C71   H18   S    
C16   C18   S    
C68   H19   S    
C6    C10   S    
C63   H21   S    
C26   C30   S    
C20   H2    S    
C30   C36   S    
C27   C36   T    
S7    O47   S    
C96   O13   A    
C79   H22   S    
C104  H58   S    
Cr5   O19   S    
C82   C84   A    
C17   C22   S    
C13   C17   S    
C50   H11   S    
S1    O27   D    
C14   C22   T    
C62   C94   S    
C19   C24   S    
C58   C59   A    
C80   C88   A    
C44   C95   S    
C40   C52   A    
C64   C65   A    
Cr1   O25   S    
C56   O4    A    
C11   C13   S    
C25   C29   S    
O50   H53   S    
C38   C39   A    
C46   H13   S    
S3    O34   D    
C28   C37   T    
C58   C61   A    
Cr2   O2    S    
Cr5   O16   S    
C63   C72   A    
C33   C35   S    
C13   H30   S    
C101  H47   S    
Cr3   O3    S    
C18   C20   S    
S7    O45   D    
S8    O48   D    
C69   C70   A    
C14   C91   S    
S8    O49   D    
C35   H5    S    
C99   H35   S    
C100  C101  S    
C5    H28   S    
C26   C35   S    
C48   C52   A    
Cr2   O26   S    
S2    O31   D    
O41   H43   S    
Cr6   O10   S    
Cr6   O19   S    
Cr3   O4    S    
C85   H26   S    
C43   H7    S    
C7    H25   S    
C4    C9    S    
C75   C79   A    
C105  H54   S    
C67   S4    S    
C64   C66   A    
C97   H41   S    
C91   O8    A    
S3    O35   S    
