data_mof_unit_7412.cif
_audit_creation_date              2012-12-11T15:52:21-0500
_audit_creation_method            fapswitch 2.2
_symmetry_space_group_name_H-M    P1
_symmetry_Int_Tables_number       1
_space_group_crystal_system       triclinic
_cell_length_a                    8.424216
_cell_length_b                    19.138012
_cell_length_c                    19.001996
_cell_angle_alpha                 98.933773
_cell_angle_beta                  95.239712
_cell_angle_gamma                 91.204656
_cell_volume                      3011.8117266

loop_
_atom_site_label
_atom_site_type_symbol
_atom_type_description
_atom_site_fract_x
_atom_site_fract_y
_atom_site_fract_z
_atom_type_partial_charge
Ba1   Ba    Ba6+2 0.152000 0.534910 0.469330 1.551473
Ba2   Ba    Ba6+2 0.658180 0.465080 0.530610 1.595629
C1    C     C_3   0.324532 0.726064 0.218383 -0.373956
C2    C     C_R   0.987351 0.272107 0.471118 0.070398
C3    C     C_R   0.147527 0.186774 0.557402 -0.052815
C4    C     C_3   0.856745 0.727613 0.289495 0.377001
C5    C     C_R   0.215468 0.252538 0.549822 0.045893
C6    C     C_R   0.665271 0.812215 0.444883 -0.163603
C7    C     C_R   0.589924 0.750733 0.460002 0.020375
C8    C     C_R   0.869849 0.803524 0.540279 -0.139844
C9    C     C_R   0.821316 0.731673 0.536290 0.016140
C10   C     C_R   0.020967 0.153817 0.507620 0.053456
C11   C     C_R   0.127609 0.296995 0.511861 -0.189640
C12   C     C_3   0.362831 0.699218 0.289046 0.380056
C13   C     C_R   0.794619 0.846695 0.492046 0.007867
C14   C     C_R   0.671099 0.710246 0.504483 -0.221920
C15   C     C_R   0.235323 0.034415 0.540557 -0.085055
C16   C     C_3   0.757905 0.744962 0.223257 -0.387503
C17   C     C_R   0.333874 0.983030 0.562320 -0.099741
C18   C     C_R   0.284767 0.912966 0.544755 -0.061252
C19   C     C_R   0.132346 0.895941 0.511693 -0.080337
C20   C     C_R   0.016024 0.947029 0.508180 0.012452
C21   C     C_R   0.070794 0.020099 0.518368 0.047130
C22   C     C_R   0.851867 0.924913 0.490658 0.000904
C23   C     C_3   0.440843 0.689125 0.649120 0.327267
C24   C     C_R   0.745360 0.979550 0.475602 0.041705
C25   C     C_R   0.799707 0.052824 0.485837 -0.057943
C26   C     C_R   0.963806 0.075024 0.504963 -0.003781
C27   C     C_R   0.582009 0.964721 0.451306 -0.180711
C28   C     C_3   0.772599 0.382911 0.311947 0.865813
C29   C     C_R   0.484163 0.015531 0.428200 -0.122578
C30   C     C_R   0.531757 0.085667 0.445692 0.575462
C31   C     C_R   0.682802 0.103672 0.480228 -0.123818
C32   C     C_R   0.597303 0.540460 0.305910 -0.178002
C33   C     C_R   0.456870 0.500216 0.279922 0.040963
C34   C     C_3   0.360563 0.757228 0.676285 -0.344240
C35   C     C_R   0.401718 0.495564 0.207183 -0.164438
C36   C     C_R   0.494727 0.522090 0.158626 -0.006267
C37   C     C_R   0.646355 0.552605 0.184007 -0.168598
C38   C     C_R   0.698038 0.561553 0.256980 0.045896
C39   C     C_R   0.467389 0.569021 0.041670 -0.076427
C40   C     C_3   0.726118 0.364444 0.231879 -0.332605
C41   C     C_R   0.418676 0.561238 0.968344 -0.097689
C42   C     C_R   0.339953 0.498459 0.932170 0.070253
C43   C     C_R   0.309239 0.444130 0.971711 -0.014505
C44   C     C_R   0.358065 0.451930 0.045071 -0.084272
C45   C     C_3   0.926497 0.273394 0.684307 1.194651
C46   C     C_R   0.438379 0.514364 0.080964 0.066505
C47   C     C_R   0.144817 0.455138 0.824206 -0.099414
C48   C     C_R   0.098183 0.448662 0.750605 -0.000720
C49   C     C_R   0.342247 0.511066 0.734145 0.039362
C50   C     C_R   0.389662 0.517435 0.807475 -0.097080
C51   C     C_R   0.291449 0.489620 0.853580 0.049774
C52   C     C_3   0.863974 0.673751 0.700244 0.334471
C53   C     C_R   0.198027 0.475874 0.705980 -0.251292
C54   C     C_3   0.835078 0.752007 0.725630 -0.403348
C55   C     C_3   0.266417 0.307885 0.271524 0.425461
C56   C     C_3   0.928385 0.203884 0.713828 -0.269424
C57   C     C_3   0.346798 0.240379 0.235932 -0.197602
C58   C     C_3   0.895817 0.635822 0.764947 -0.281087
C59   C     C_3   0.177455 0.339115 0.209444 -0.381388
C60   C     C_3   0.151638 0.286276 0.321662 -0.284553
C61   C     C_3   0.462982 0.206598 0.286406 -0.347196
C62   C     C_3   0.952113 0.793654 0.327334 -0.286464
C63   C     C_3   0.644930 0.561422 0.384464 -0.226100
C64   C     C_3   0.449860 0.307809 0.717028 0.267109
C65   C     C_3   0.490305 0.283266 0.788706 0.444002
C66   C     C_R   0.949321 0.198555 0.460336 -0.099733
F1    F     F_    0.831435 0.263820 0.619991 -0.697537
F2    F     F_    0.442710 0.332606 0.843108 -0.737643
F3    F     F_    0.425432 0.135864 0.435069 -0.746800
F4    F     F_    0.888888 0.435867 0.323089 -0.709205
H1    H     H_    0.300527 0.646824 0.285679 0.081226
H2    H     H_    0.412824 0.253058 0.191303 0.095018
H3    H     H_    0.253779 0.199542 0.211145 0.077749
H4    H     H_    0.493837 0.692895 0.296567 -0.085271
H5    H     H_    0.369414 0.688911 0.174344 0.067266
H6    H     H_    0.554698 0.704192 0.630434 -0.071600
H7    H     H_    0.367626 0.660130 0.602603 0.109122
H8    H     H_    0.443005 0.791333 0.717010 0.091265
H9    H     H_    0.328129 0.786402 0.631295 0.088229
H10   H     H_    0.251017 0.745296 0.701027 0.143030
H11   H     H_    0.382159 0.779157 0.220614 0.107633
H12   H     H_    0.622475 0.326974 0.221629 0.059360
H13   H     H_    0.677187 0.788702 0.238684 0.083126
H14   H     H_    0.050531 0.287819 0.675331 -0.508634
H15   H     H_    0.806178 0.188732 0.724870 0.087615
H16   H     H_    0.971249 0.161108 0.674521 0.062682
H17   H     H_    0.008789 0.209530 0.764216 0.048689
H18   H     H_    0.318565 0.313432 0.709759 -0.010117
H19   H     H_    0.510639 0.360169 0.718264 0.086502
H20   H     H_    0.620776 0.276904 0.798091 0.063355
H21   H     H_    0.427709 0.231708 0.789194 0.010776
H22   H     H_    0.858925 0.178048 0.417638 0.044597
H23   H     H_    0.694799 0.412478 0.208774 0.068807
H24   H     H_    0.196706 0.162258 0.601620 0.028646
H25   H     H_    0.619570 0.832730 0.397495 0.068695
H26   H     H_    0.968271 0.823580 0.579104 0.063353
H27   H     H_    0.171551 0.350582 0.512087 0.051724
H28   H     H_    0.619688 0.660054 0.512129 0.031609
H29   H     H_    0.297321 0.082658 0.537152 0.112733
H30   H     H_    0.456114 0.996777 0.583640 0.079880
H31   H     H_    0.368841 0.872231 0.552178 0.086304
H32   H     H_    0.774710 0.712225 0.327646 -0.035261
H33   H     H_    0.104140 0.842472 0.488440 0.125839
H34   H     H_    0.826188 0.339523 0.204527 0.099524
H35   H     H_    0.518905 0.916766 0.454184 0.101926
H36   H     H_    0.362699 0.001266 0.405936 0.104183
H37   H     H_    0.708272 0.157546 0.503290 0.173941
H38   H     H_    0.501760 0.544930 0.828383 0.068728
H39   H     H_    0.441296 0.604872 0.940140 0.058878
H40   H     H_    0.526830 0.618195 0.067832 0.059634
H41   H     H_    0.285528 0.471742 0.188317 0.086654
H42   H     H_    0.250547 0.394791 0.945639 0.117456
H43   H     H_    0.837079 0.761023 0.184455 0.119138
H44   H     H_    0.336315 0.408266 0.073268 0.059694
H45   H     H_    0.757352 0.647721 0.668211 0.069759
H46   H     H_    0.064905 0.435084 0.858497 0.063371
H47   H     H_    0.725453 0.568538 0.147073 0.071885
H48   H     H_    0.159787 0.472415 0.649556 0.073586
H49   H     H_    0.684014 0.698079 0.196659 0.084638
H50   H     H_    0.668343 0.401906 0.339307 -0.024979
H51   H     H_    0.999652 0.661174 0.800787 0.081635
H52   H     H_    0.789328 0.636861 0.795508 0.084453
H53   H     H_    0.923002 0.579872 0.746652 0.106703
H54   H     H_    0.264157 0.355426 0.174187 0.067137
H55   H     H_    0.095908 0.298032 0.176040 0.070230
H56   H     H_    0.944198 0.778655 0.756274 0.116400
H57   H     H_    0.101817 0.383473 0.227274 0.166291
H58   H     H_    0.110953 0.335711 0.350996 0.132703
H59   H     H_    0.051466 0.252172 0.291856 0.081703
H60   H     H_    0.212401 0.257722 0.362362 0.081031
H61   H     H_    0.549518 0.246296 0.318249 0.180385
H62   H     H_    0.396289 0.179704 0.322542 0.192008
H63   H     H_    0.530798 0.165952 0.254579 0.097483
H64   H     H_    0.016345 0.781586 0.377260 0.137657
H65   H     H_    0.040230 0.810563 0.292739 0.130020
H66   H     H_    0.872423 0.838140 0.341092 0.052280
H67   H     H_    0.735429 0.757231 0.760332 0.106609
H68   H     H_    0.682271 0.617786 0.393042 0.018667
H69   H     H_    0.556396 0.564343 0.421535 0.148822
H70   H     H_    0.732825 0.524663 0.403522 0.173954
H71   H     H_    0.802699 0.779434 0.679446 0.072904
H72   H     H_    0.193858 0.729910 0.206892 0.147587
O1    O     O_2   0.116570 0.673370 0.549300 -0.445579
O2    O     O_2   0.768530 0.453100 0.744971 -0.485011
O3    O     O_3   0.863556 0.325241 0.733727 -0.634933
O4    O     O_3   0.869340 0.584760 0.542960 -0.480266
O5    O     O_3   0.436600 0.464450 0.413780 -0.481018
O6    O     O_2   0.628980 0.533090 0.672420 -0.458303
O7    O     O_3   0.469246 0.650203 0.705689 -0.655463
O8    O     O_2   0.534116 0.245858 0.525098 -0.373785
O9    O     O_3   0.502480 0.258068 0.662336 -0.615617
O10   O     O_3   0.352540 0.630870 0.419750 -0.490787
O11   O     O_2   0.271735 0.752043 0.480965 -0.502324
O12   O     O_3   0.385812 0.353224 0.313936 -0.638054
O13   O     O_3   0.998032 0.667226 0.661435 -0.619258
O14   O     O_3   0.310942 0.747595 0.345114 -0.595783
O15   O     O_2   0.181320 0.466870 0.327560 -0.397422
O16   O     O_3   0.937730 0.595370 0.381630 -0.441094
O17   O     O_2   0.022746 0.541132 0.253346 -0.441517
O18   O     O_3   0.965378 0.675154 0.268203 -0.597823
O19   O     O_2   0.693730 0.326590 0.450680 -0.431415
O20   O     O_3   0.940960 0.415230 0.456980 -0.449060
O21   O     O_3   0.457750 0.369120 0.580200 -0.464214
O22   O     O_3   0.830017 0.322459 0.337182 -0.685244
O23   O     O_3   0.373690 0.535540 0.586160 -0.480330
O24   O     O_3   0.872560 0.404620 0.618320 -0.421555
P1    P     P_3+3 0.945400 0.662120 0.569160 0.985095
P2    P     P_3+3 0.355390 0.445380 0.336430 0.999403
P3    P     P_3+3 0.904911 0.593198 0.288747 1.031883
P4    P     P_3+3 0.864900 0.337880 0.430780 1.027393
P5    P     P_3+3 0.902193 0.408987 0.711655 1.028632
P6    P     P_3+3 0.384185 0.721486 0.425709 0.923600
P7    P     P_3+3 0.452249 0.558395 0.675716 0.945763
P8    P     P_3+3 0.424720 0.279687 0.580327 1.056111

loop_
_geom_bond_atom_site_label_1
_geom_bond_atom_site_label_2
_ccdc_geom_bond_type
Ba2   O6    S    
C62   H64   S    
O22   P4    S    
O15   P2    D    
C57   H3    S    
C29   H36   S    
C60   H58   S    
Ba1   O1    S    
C17   C18   A    
C6    H25   S    
C56   H15   S    
C55   C60   S    
C64   H18   S    
C18   H31   S    
C62   H66   S    
C43   C44   A    
C25   C31   A    
O21   P8    S    
C10   C66   A    
O9    P8    S    
C24   C25   A    
C15   C21   A    
C10   C26   S    
C48   P5    S    
C32   C38   A    
C61   H61   S    
C58   H53   S    
C33   C35   A    
C7    C14   A    
C22   C24   A    
C32   C33   A    
C8    C13   A    
C36   C37   A    
C17   H30   S    
C37   H47   S    
C55   C57   S    
C35   H41   S    
Ba1   O23   S    
Ba2   O4    S    
O2    P5    D    
Ba1   P2    S    
C58   H52   S    
Ba1   Ba2   S    
C9    C14   A    
C4    C62   S    
C2    C11   A    
C8    H26   S    
C15   H29   S    
C45   F1    S    
O13   P1    S    
C63   H68   S    
C43   H42   S    
O14   P6    S    
O18   P3    S    
C4    O18   S    
Ba1   O20   S    
C34   H10   S    
C6    C7    A    
C39   H40   S    
Ba1   O5    S    
C59   H54   S    
C4    H32   S    
C36   C46   S    
C59   H57   S    
C53   H48   S    
Ba2   O5    S    
C64   C65   S    
C1    H72   S    
C19   C20   A    
C39   C41   A    
C41   H39   S    
C42   C51   S    
C32   C63   S    
C30   F3    S    
O1    P1    D    
C62   H65   S    
Ba1   O16   S    
O24   P5    S    
C4    C16   S    
C55   O12   S    
C52   C54   S    
C16   H13   S    
O7    P7    S    
O10   P6    S    
C40   H23   S    
C45   H14   S    
C60   H60   S    
Ba1   O15   S    
C40   H12   S    
C28   O22   S    
C3    C10   A    
C34   H8    S    
Ba2   O20   S    
C37   C38   A    
C3    C5    A    
C54   H67   S    
C14   H28   S    
C52   C58   S    
C23   C34   S    
C2    C66   A    
C66   H22   S    
C23   H6    S    
C12   H4    S    
C28   H50   S    
C11   H27   S    
C58   H51   S    
C41   C42   A    
C61   H62   S    
C35   C36   A    
C63   H69   S    
C12   H1    S    
C47   H46   S    
C57   H2    S    
C50   H38   S    
C34   H9    S    
C5    P8    S    
O4    P1    S    
C7    P6    S    
C59   H55   S    
C21   C26   A    
C49   P7    S    
O19   P4    D    
C40   H34   S    
Ba2   O21   S    
C1    C12   S    
O12   P2    S    
O16   P3    S    
O11   P6    D    
C13   C22   S    
C12   O14   S    
C9    P1    S    
C6    C13   A    
C1    H11   S    
C20   C22   A    
O20   P4    S    
C31   H37   S    
O5    P2    S    
C1    H5    S    
Ba2   O24   S    
C3    H24   S    
C50   C51   A    
O23   P7    S    
C2    P4    S    
C23   H7    S    
Ba2   O19   S    
C60   H59   S    
C54   H71   S    
C29   C30   A    
C27   H35   S    
C42   C43   A    
C56   H16   S    
C16   H43   S    
C64   O9    S    
C28   F4    S    
O3    P5    S    
C55   C59   S    
C64   H19   S    
C57   C61   S    
C48   C53   A    
C44   H44   S    
C23   O7    S    
C65   F2    S    
C30   C31   A    
C49   C50   A    
C27   C29   A    
C45   O3    S    
C52   O13   S    
C63   H70   S    
C47   C51   A    
Ba1   P1    S    
C65   H20   S    
C15   C17   A    
C39   C46   A    
O6    P7    D    
C49   C53   A    
C54   H56   S    
Ba1   O10   S    
C56   H17   S    
C8    C9    A    
C16   H49   S    
O8    P8    D    
C44   C46   A    
C5    C11   A    
O17   P3    D    
C18   C19   A    
C24   C27   A    
C47   C48   A    
C52   H45   S    
Ba2   P4    S    
C25   C26   A    
C65   H21   S    
C33   P2    S    
C20   C21   A    
C28   C40   S    
Ba1   O4    S    
Ba2   O23   S    
C38   P3    S    
C19   H33   S    
C61   H63   S    
C45   C56   S    
