data_mof_unit_17911.cif
_audit_creation_date              2012-12-10T20:52:46-0500
_audit_creation_method            fapswitch 2.2
_symmetry_space_group_name_H-M    P1
_symmetry_Int_Tables_number       1
_space_group_crystal_system       triclinic
_cell_length_a                    8.656177
_cell_length_b                    15.861332
_cell_length_c                    15.078325
_cell_angle_alpha                 90.439917
_cell_angle_beta                  98.631521
_cell_angle_gamma                 89.8521
_cell_volume                      2046.72138265

loop_
_atom_site_label
_atom_site_type_symbol
_atom_type_description
_atom_site_fract_x
_atom_site_fract_y
_atom_site_fract_z
_atom_type_partial_charge
C1    C     C_R   0.499267 0.338962 0.499544 0.876000
C2    C     C_R   0.798846 0.500880 0.522878 0.877608
C3    C     C_2   0.038141 0.489578 0.465363 0.191099
C4    C     C_2   0.961707 0.511390 0.534030 0.200319
C5    C     C_R   0.443104 0.957516 0.572876 -0.185497
C6    C     C_R   0.524366 0.042236 0.422248 -0.192960
C7    C     C_R   0.485571 0.912812 0.499175 -0.109324
C8    C     C_R   0.483815 0.087076 0.496052 -0.110755
C9    C     C_R   0.521922 0.954276 0.423017 0.491695
C10   C     C_R   0.444304 0.045731 0.571453 0.489866
C11   C     C_1   0.491679 0.823789 0.500428 0.036730
C12   C     C_R   0.500154 0.661009 0.500362 0.877053
C13   C     C_1   0.488036 0.176155 0.496659 0.040315
C14   C     C_1   0.493401 0.250815 0.497992 -0.185914
C15   C     C_1   0.496327 0.749132 0.500738 -0.179564
C16   C     C_R   0.399879 0.445790 0.942911 0.488563
C17   C     C_R   0.615022 0.544200 0.058494 0.479863
C18   C     C_3   0.979251 0.370546 0.381624 -0.289363
C19   C     C_3   0.023279 0.633012 0.612199 -0.289891
C20   C     C_3   0.536022 0.107049 0.705692 -0.301814
C21   C     C_3   0.435377 0.884295 0.292864 -0.267923
C22   C     C_R   0.400925 0.913122 0.652222 0.188500
C23   C     C_R   0.507906 0.496101 0.905760 -0.179400
C24   C     C_R   0.511220 0.861971 0.704684 -0.170559
C25   C     C_R   0.472236 0.821331 0.780115 -0.130400
C26   C     C_R   0.323800 0.831882 0.804253 -0.130635
C27   C     C_R   0.213172 0.882455 0.752333 -0.178369
C28   C     C_R   0.251451 0.923091 0.676558 -0.081669
C29   C     C_R   0.572928 0.086378 0.344922 0.226926
C30   C     C_R   0.461601 0.108839 0.271411 -0.160390
C31   C     C_R   0.508755 0.147642 0.197009 -0.152029
C32   C     C_R   0.666450 0.165901 0.196493 -0.119763
C33   C     C_R   0.777587 0.144839 0.270243 -0.161524
C34   C     C_R   0.502740 0.496492 0.095248 -0.175295
C35   C     C_R   0.731145 0.104886 0.344243 -0.108873
C36   C     C_R   0.270495 0.398394 0.072664 0.174314
C37   C     C_R   0.308842 0.340957 0.143203 -0.174008
C38   C     C_R   0.191199 0.297353 0.177749 -0.132789
C39   C     C_R   0.034870 0.309252 0.140966 -0.115161
C40   C     C_R   0.995649 0.364753 0.069717 -0.187545
C41   C     C_R   0.112701 0.409573 0.036091 -0.085814
C42   C     C_R   0.739169 0.593547 0.927658 0.163498
C43   C     C_R   0.844182 0.552466 0.879105 -0.188586
C44   C     C_R   0.959237 0.598245 0.844819 -0.097672
C45   C     C_R   0.617765 0.544382 0.964244 -0.171793
C46   C     C_R   0.969829 0.685375 0.858237 -0.141927
C47   C     C_R   0.866819 0.726709 0.907024 -0.177622
C48   C     C_R   0.752078 0.681005 0.941967 -0.091003
C49   C     C_3   0.359846 0.316257 0.879208 -0.297093
C50   C     C_3   0.853806 0.551606 0.144724 -0.234763
C51   C     C_R   0.394197 0.447087 0.036925 -0.175588
C52   C     C_1   0.503035 0.498423 0.807279 0.177635
C53   C     C_1   0.500729 0.499081 0.193052 0.174296
C54   C     C_R   0.201173 0.499347 0.477029 0.876452
H1    H     H_    0.932813 0.340894 0.438926 0.139408
H2    H     H_    0.363560 0.939405 0.266676 0.143722
H3    H     H_    0.362459 0.839252 0.324575 0.161777
H4    H     H_    0.473975 0.851634 0.234663 0.199111
H5    H     H_    0.627554 0.854118 0.687520 0.128049
H6    H     H_    0.557371 0.782003 0.820091 0.139509
H7    H     H_    0.295005 0.801098 0.863412 0.125880
H8    H     H_    0.097955 0.890352 0.770949 0.126844
H9    H     H_    0.164887 0.962205 0.636866 0.136588
H10   H     H_    0.338948 0.095477 0.271381 0.109159
H11   H     H_    0.423097 0.163417 0.139625 0.135093
H12   H     H_    0.102931 0.351500 0.381219 0.160989
H13   H     H_    0.702189 0.196053 0.138756 0.116025
H14   H     H_    0.899806 0.158816 0.269899 0.116556
H15   H     H_    0.818126 0.088094 0.400738 0.120383
H16   H     H_    0.429640 0.330059 0.171565 0.132562
H17   H     H_    0.221176 0.254231 0.232957 0.127803
H18   H     H_    0.944137 0.275640 0.167761 0.110049
H19   H     H_    0.874345 0.373992 0.041329 0.123189
H20   H     H_    0.080350 0.453774 0.982226 0.150225
H21   H     H_    0.837508 0.484887 0.868369 0.135678
H22   H     H_    0.040171 0.566096 0.807924 0.190771
H23   H     H_    0.909541 0.346036 0.319060 0.188399
H24   H     H_    0.057707 0.720802 0.830758 0.122624
H25   H     H_    0.875385 0.794235 0.917402 0.132179
H26   H     H_    0.672194 0.713865 0.979091 0.147736
H27   H     H_    0.380653 0.284227 0.945371 0.152472
H28   H     H_    0.470228 0.319155 0.849798 0.151554
H29   H     H_    0.275859 0.277214 0.833618 0.204011
H30   H     H_    0.922810 0.541922 0.089100 0.156491
H31   H     H_    0.830677 0.490260 0.175696 0.173550
H32   H     H_    0.926046 0.589988 0.197025 0.210071
H33   H     H_    0.900221 0.653640 0.611775 0.160528
H34   H     H_    0.070322 0.659308 0.553384 0.140555
H35   H     H_    0.094206 0.659654 0.673294 0.190997
H36   H     H_    0.624055 0.144577 0.676357 0.161561
H37   H     H_    0.589265 0.047233 0.733796 0.159979
H38   H     H_    0.501472 0.144285 0.762148 0.183280
N1    N     N_1   0.499960 0.500020 0.270540 -0.083815
N2    N     N_1   0.500040 0.499980 0.729460 -0.082742
O1    O     O_R   0.500000 0.378020 0.573650 -0.609166
O2    O     O_3   0.035619 0.544289 0.615110 -0.591444
O3    O     O_3   0.401479 0.091815 0.642367 -0.599985
O4    O     O_3   0.569066 0.909082 0.352703 -0.590022
O5    O     O_3   0.294574 0.397165 0.886232 -0.604462
O6    O     O_3   0.715025 0.596175 0.114624 -0.613572
O7    O     O_R   0.500000 0.621980 0.426350 -0.604693
O8    O     O_R   0.500070 0.378020 0.426320 -0.619890
O9    O     O_R   0.499930 0.621980 0.573680 -0.614988
O10   O     O_R   0.271720 0.500000 0.556430 -0.573139
O11   O     O_R   0.728280 0.500000 0.443570 -0.576741
O12   O     O_R   0.271790 0.500000 0.409110 -0.604158
O13   O     O_R   0.728210 0.500000 0.590890 -0.603164
O14   O     O_3   0.963741 0.459103 0.383217 -0.595174
Zn1   Zn    Zn3+2 0.499950 0.500000 0.598370 1.003593
Zn2   Zn    Zn3+2 0.500050 0.500000 0.401630 1.000751

loop_
_geom_bond_atom_site_label_1
_geom_bond_atom_site_label_2
_ccdc_geom_bond_type
O11   Zn2   S    
C9    O4    S    
C23   C45   A    
C30   H10   S    
C16   C51   A    
C47   H25   S    
C6    C9    A    
C50   H30   S    
C7    C11   S    
C20   H38   S    
C26   C27   A    
C37   C38   A    
C54   O10   A    
C36   C37   A    
C26   H7    S    
C17   C45   A    
C19   H33   S    
C24   H5    S    
C30   C31   A    
C3    C54   S    
C2    O13   A    
C40   H19   S    
C7    C9    A    
C49   H27   S    
C44   H22   S    
C50   H31   S    
C41   H20   S    
C38   H17   S    
C11   C15   T    
C20   O3    S    
C47   C48   A    
C39   H18   S    
C52   N2    T    
C25   H6    S    
N1    Zn2   S    
C12   O7    A    
C22   C28   A    
C37   H16   S    
O13   Zn1   S    
C36   C41   A    
C44   C46   A    
C43   H21   S    
C20   H37   S    
C54   O12   A    
C53   N1    T    
C24   C25   A    
C12   O9    A    
C19   H34   S    
O1    Zn1   S    
C39   C40   A    
C5    C7    A    
C6    C8    A    
O7    Zn2   S    
C20   H36   S    
C42   C45   S    
C49   H28   S    
C10   O3    S    
C2    C4    S    
C43   C44   A    
C21   H3    S    
C29   C30   A    
C19   H35   S    
C27   H8    S    
C49   O5    S    
C31   C32   A    
C12   C15   S    
C1    O1    A    
C34   C51   A    
C42   C48   A    
C36   C51   S    
C18   H1    S    
C32   H13   S    
C40   C41   A    
C16   C23   A    
C22   C24   A    
O8    Zn2   S    
C17   C34   A    
C3    C4    D    
C46   H24   S    
O12   Zn2   S    
C31   H11   S    
C46   C47   A    
N2    Zn1   S    
C21   H2    S    
C16   O5    S    
C5    C22   S    
C3    O14   S    
C18   H12   S    
C29   C35   A    
C2    O11   A    
C50   O6    S    
O9    Zn1   S    
C32   C33   A    
C49   H29   S    
C25   C26   A    
C21   H4    S    
C21   O4    S    
C48   H26   S    
C23   C52   S    
C38   C39   A    
C18   H23   S    
C33   C35   A    
C4    O2    S    
C8    C13   S    
C17   O6    S    
C18   O14   S    
C50   H32   S    
C28   H9    S    
C5    C10   A    
C6    C29   S    
C35   H15   S    
C34   C53   S    
C8    C10   A    
C42   C43   A    
C27   C28   A    
O10   Zn1   S    
C1    C14   S    
C13   C14   T    
C1    O8    A    
C19   O2    S    
C33   H14   S    
