data_mof_unit_65911.cif
_audit_creation_date              2012-12-10T20:49:54-0500
_audit_creation_method            fapswitch 2.2
_symmetry_space_group_name_H-M    P1
_symmetry_Int_Tables_number       1
_space_group_crystal_system       triclinic
_cell_length_a                    19.204692
_cell_length_b                    19.207104
_cell_length_c                    19.212848
_cell_angle_alpha                 94.846814
_cell_angle_beta                  90.00245
_cell_angle_gamma                 85.224529
_cell_volume                      7036.94615209

loop_
_atom_site_label
_atom_site_type_symbol
_atom_type_description
_atom_site_fract_x
_atom_site_fract_y
_atom_site_fract_z
_atom_type_partial_charge
C1    C     C_R   0.492685 0.492281 0.310657 0.519396
C2    C     C_R   0.122642 0.575129 0.488168 -0.099174
C3    C     C_R   0.509858 0.509343 0.765298 0.022940
C4    C     C_R   0.507852 0.506548 0.688973 0.555792
C5    C     C_R   0.511540 0.447783 0.800955 0.229445
C6    C     C_R   0.506073 0.453917 0.873743 -0.041331
C7    C     C_R   0.500235 0.520402 0.911848 0.181488
C8    C     C_R   0.500989 0.580555 0.875931 -0.115282
C9    C     C_R   0.506047 0.575190 0.803317 -0.187233
C10   C     C_R   0.520801 0.421000 0.123233 0.269543
C11   C     C_R   0.519440 0.426152 0.196111 -0.118080
C12   C     C_R   0.913116 0.474490 0.495610 0.221309
C13   C     C_R   0.494487 0.478343 0.087512 0.229262
C14   C     C_R   0.490538 0.487358 0.234075 -0.014935
C15   C     C_R   0.461716 0.543453 0.198455 -0.159447
C16   C     C_R   0.492514 0.689891 0.507883 0.506073
C17   C     C_R   0.463947 0.539281 0.125671 -0.131835
C18   C     C_R   0.512980 0.233180 0.491968 0.033617
C19   C     C_R   0.463953 0.200612 0.529388 -0.140775
C20   C     C_R   0.469453 0.128131 0.531197 -0.078469
C21   C     C_R   0.524460 0.086643 0.495560 0.227643
C22   C     C_R   0.574012 0.119252 0.459245 -0.092911
C23   C     C_R   0.877528 0.420940 0.460366 0.271989
C24   C     C_R   0.568054 0.191972 0.456767 -0.126543
C25   C     C_R   0.543248 0.875982 0.530364 -0.083923
C26   C     C_R   0.546359 0.803244 0.531770 -0.146442
C27   C     C_R   0.481936 0.913007 0.508062 0.226909
C28   C     C_R   0.507695 0.310007 0.492359 0.525275
C29   C     C_R   0.488787 0.766673 0.510157 0.031543
C30   C     C_R   0.427512 0.803907 0.489000 -0.141317
C31   C     C_R   0.423970 0.876579 0.488929 -0.102000
C32   C     C_R   0.310738 0.508157 0.507877 0.506663
C33   C     C_R   0.689418 0.491751 0.492309 0.525435
C34   C     C_R   0.804370 0.427493 0.458022 -0.113118
C35   C     C_R   0.766223 0.486267 0.491801 -0.017123
C36   C     C_R   0.801837 0.538867 0.527699 -0.156748
C37   C     C_R   0.874372 0.533204 0.529621 -0.134137
C38   C     C_R   0.126337 0.459533 0.530605 -0.066106
C39   C     C_R   0.199175 0.456528 0.532161 -0.138626
C40   C     C_R   0.087629 0.518881 0.507702 0.229499
C41   C     C_R   0.234131 0.512162 0.510123 0.031923
C42   C     C_R   0.195320 0.571592 0.488447 -0.138398
H1    H     H_    0.228134 0.410275 0.549242 0.147149
H2    H     H_    0.100415 0.415859 0.547501 0.167357
H3    H     H_    0.606985 0.215965 0.428193 0.156502
H4    H     H_    0.382170 0.776847 0.472785 0.139130
H5    H     H_    0.431094 0.104691 0.561020 0.148689
H6    H     H_    0.376254 0.904614 0.472686 0.132701
H7    H     H_    0.421267 0.231155 0.557449 0.142647
H8    H     H_    0.777079 0.386329 0.430847 0.193871
H9    H     H_    0.221172 0.615485 0.471891 0.139954
H10   H     H_    0.900149 0.574506 0.558466 0.153980
H11   H     H_    0.093407 0.621369 0.471389 0.132818
H12   H     H_    0.496964 0.631884 0.904386 0.144680
H13   H     H_    0.773607 0.584519 0.554551 0.155431
H14   H     H_    0.541052 0.382321 0.223406 0.182295
H15   H     H_    0.526906 0.277311 0.987273 0.387096
H16   H     H_    0.456859 0.298204 0.691917 0.364984
H17   H     H_    0.899505 0.250638 0.358818 0.382061
H18   H     H_    0.504854 0.622730 0.776569 0.140808
H19   H     H_    0.438913 0.591013 0.226856 0.153282
H20   H     H_    0.506212 0.406542 0.900483 0.210663
H21   H     H_    0.441916 0.583626 0.099390 0.154480
H22   H     H_    0.594063 0.775524 0.548457 0.138915
H23   H     H_    0.588324 0.903201 0.547037 0.146880
H24   H     H_    0.616931 0.088093 0.432199 0.139312
N1    N     N_2   0.987327 0.467569 0.497403 -0.163340
N2    N     N_2   0.013688 0.524875 0.505182 -0.249397
N3    N     N_2   0.494004 0.528782 0.985913 -0.239348
N4    N     N_2   0.499197 0.472192 0.013579 -0.164512
N5    N     N_2   0.531939 0.012552 0.496245 -0.236305
N6    N     N_2   0.475634 0.986815 0.506265 -0.241624
O1    O     O_3   0.500000 0.500000 0.500000 -0.451948
O2    O     O_R   0.340900 0.545940 0.467290 -0.545982
O3    O     O_R   0.655960 0.450920 0.450930 -0.535375
O4    O     O_R   0.347180 0.467040 0.545670 -0.541199
O5    O     O_R   0.655970 0.536100 0.536110 -0.535848
O6    O     O_2   0.622847 0.359219 0.039874 -0.236211
O7    O     O_2   0.575902 0.287252 0.125511 -0.259907
O8    O     O_3   0.500148 0.314652 0.017359 -0.493000
O9    O     O_2   0.575837 0.360926 0.699365 -0.278048
O10   O     O_2   0.546419 0.309452 0.806914 -0.253687
O11   O     O_3   0.445620 0.341865 0.722490 -0.491384
O12   O     O_R   0.536480 0.656330 0.545680 -0.546942
O13   O     O_2   0.970853 0.368555 0.362937 -0.236113
O14   O     O_2   0.968321 0.309512 0.470912 -0.253499
O15   O     O_3   0.868984 0.290517 0.380942 -0.521703
O16   O     O_R   0.545300 0.340270 0.450920 -0.539152
O17   O     O_R   0.451550 0.536740 0.347440 -0.536521
O18   O     O_R   0.466670 0.466660 0.655960 -0.474089
O19   O     O_R   0.536460 0.451300 0.340640 -0.539191
O20   O     O_R   0.545320 0.545300 0.655970 -0.544378
O21   O     O_R   0.451560 0.656600 0.467300 -0.546996
O22   O     O_R   0.466660 0.346810 0.536100 -0.527884
S1    S     S_3+6 0.557800 0.343252 0.076835 0.055144
S2    S     S_3+6 0.522508 0.362520 0.756905 0.044079
S3    S     S_3+6 0.924165 0.346011 0.418150 0.047967
Zn1   Zn    Zn3+2 0.558430 0.558420 0.558430 0.960177
Zn2   Zn    Zn3+2 0.437090 0.558800 0.446440 0.941180
Zn3   Zn    Zn3+2 0.446060 0.446060 0.558420 1.000941
Zn4   Zn    Zn3+2 0.558420 0.436720 0.436720 0.976622

loop_
_geom_bond_atom_site_label_1
_geom_bond_atom_site_label_2
_ccdc_geom_bond_type
O1    Zn3   S    
C41   C42   A    
C35   C36   A    
O16   Zn4   S    
O20   Zn1   S    
C7    C8    A    
C39   C41   A    
O7    S1    D    
C5    C6    A    
C12   C23   A    
C16   O21   A    
O17   Zn2   S    
C18   C24   A    
C24   H3    S    
C36   C37   A    
C18   C19   A    
C32   O2    A    
C30   C31   A    
C11   C14   A    
C13   N4    S    
O1    Zn2   S    
C16   O12   A    
C28   O22   A    
C34   C35   A    
C12   C37   A    
O14   S3    D    
C26   H22   S    
C22   H24   S    
C33   O3    A    
C19   C20   A    
C8    C9    A    
C28   O16   A    
C32   C41   S    
O21   Zn2   S    
C42   H9    S    
O1    Zn4   S    
C1    O19   A    
C21   C22   A    
H15   O8    S    
O19   Zn4   S    
O18   Zn3   S    
C4    O18   A    
O1    Zn1   S    
C12   N1    S    
C34   H8    S    
O10   S2    D    
C27   C31   A    
N1    N2    D    
C18   C28   S    
C8    H12   S    
O9    S2    D    
C39   H1    S    
C25   C26   A    
C2    H11   S    
C38   H2    S    
C29   C30   A    
C3    C9    A    
C19   H7    S    
O22   Zn3   S    
O6    S1    D    
C23   C34   A    
C15   H19   S    
C25   H23   S    
O5    Zn1   S    
O8    S1    S    
O2    Zn2   S    
C23   S3    S    
C21   N5    S    
C31   H6    S    
C22   C24   A    
C25   C27   A    
C3    C4    S    
C5    S2    S    
C37   H10   S    
C1    O17   A    
C30   H4    S    
C3    C5    A    
C10   C13   A    
C32   O4    A    
C15   C17   A    
C6    C7    A    
O4    Zn3   S    
C13   C17   A    
C9    H18   S    
O12   Zn1   S    
C6    H20   S    
C7    N3    S    
C16   C29   S    
N5    N6    D    
C36   H13   S    
H16   O11   S    
C17   H21   S    
C38   C40   A    
C33   O5    A    
C38   C39   A    
C10   S1    S    
C2    C42   A    
O11   S2    S    
C33   C35   S    
N3    N4    D    
H17   O15   S    
C20   H5    S    
O13   S3    D    
C10   C11   A    
C27   N6    S    
C2    C40   A    
C20   C21   A    
C26   C29   A    
C40   N2    S    
O3    Zn4   S    
C14   C15   A    
C1    C14   S    
O15   S3    S    
C11   H14   S    
C4    O20   A    
