data_mof_unit_21055.cif
_audit_creation_date              2013-03-05T16:06:18-0500
_audit_creation_method            fapswitch 2.2
_symmetry_space_group_name_H-M    P1
_symmetry_Int_Tables_number       1
_space_group_crystal_system       triclinic
_cell_length_a                    10.823776
_cell_length_b                    9.50921
_cell_length_c                    27.812343
_cell_angle_alpha                 89.740709
_cell_angle_beta                  90.072258
_cell_angle_gamma                 90.026371
_cell_volume                      2862.56906461

loop_
_atom_site_label
_atom_site_type_symbol
_atom_site_description
_atom_site_fract_x
_atom_site_fract_y
_atom_site_fract_z
_atom_type_partial_charge
O1    O     O_R   0.319640 0.618740 0.500000 -0.588078
O2    O     O_R   0.680360 0.381260 0.500000 -0.588094
O3    O     O_R   0.680360 0.618740 0.500000 -0.587720
O4    O     O_R   0.319640 0.381260 0.500000 -0.587685
C1    C     C_R   0.262040 0.499982 0.499971 0.795724
C2    C     C_R   0.737960 0.500017 0.500030 0.795694
O5    O     O_R   0.500020 0.618770 0.430260 -0.584001
O6    O     O_R   0.499980 0.381230 0.569740 -0.583973
O7    O     O_R   0.499980 0.618770 0.569740 -0.584028
O8    O     O_R   0.500020 0.381230 0.430260 -0.584093
C3    C     C_R   0.499986 0.500355 0.407400 0.804530
C4    C     C_R   0.500057 0.499634 0.592599 0.804623
Cu1   Cu    Cu3+1 0.500000 0.640660 0.500000 0.947813
Cu2   Cu    Cu3+1 0.500000 0.359340 0.500000 0.947830
C5    C     C_R   0.395644 0.537443 0.177742 0.533562
C6    C     C_R   0.605959 0.461798 0.822112 0.535400
O9    O     O_2   0.290945 0.564384 0.202343 -0.533789
O10   O     O_2   0.710757 0.436447 0.797373 -0.533202
N1    N     N_R   0.502301 0.507279 0.202043 -0.470054
N2    N     N_R   0.499020 0.491673 0.797960 -0.469618
C7    C     C_R   0.610485 0.482978 0.178175 0.546934
C8    C     C_R   0.390784 0.514523 0.821966 0.547066
C9    C     C_R   0.492724 0.631369 0.279059 -0.101329
C10   C     C_R   0.509608 0.368277 0.720852 -0.101765
C11   C     C_R   0.492276 0.629793 0.329172 -0.213511
C12   C     C_R   0.509714 0.370099 0.670748 -0.213020
C13   C     C_R   0.508678 0.375280 0.328610 -0.214472
C14   C     C_R   0.490202 0.624317 0.671461 -0.214844
C15   C     C_R   0.509621 0.377247 0.278449 -0.104201
C16   C     C_R   0.489582 0.622097 0.721630 -0.102852
C17   C     C_R   0.501500 0.505231 0.253569 0.358403
C18   C     C_R   0.499460 0.494125 0.746431 0.357683
C19   C     C_R   0.503560 0.508758 0.101830 -0.046596
C20   C     C_R   0.498111 0.487247 0.898166 -0.046928
C21   C     C_R   0.394536 0.539660 0.127278 -0.005065
C22   C     C_R   0.607243 0.458137 0.872562 -0.006141
C23   C     C_R   0.288552 0.578132 0.101940 -0.170011
C24   C     C_R   0.713543 0.419838 0.897715 -0.169142
C25   C     C_R   0.613282 0.485084 0.127674 -0.049729
C26   C     C_R   0.388127 0.510861 0.872476 -0.057062
C27   C     C_R   0.500208 0.501671 0.354438 -0.040475
C28   C     C_R   0.500070 0.498190 0.645559 -0.040511
H1    H     H_    0.514938 0.275056 0.347100 0.157772
H2    H     H_    0.482561 0.724496 0.653022 0.157909
H3    H     H_    0.516263 0.279395 0.258859 0.138625
H4    H     H_    0.481829 0.719732 0.741282 0.139399
H5    H     H_    0.205975 0.612159 0.120542 0.187470
H6    H     H_    0.796265 0.387060 0.878944 0.186627
C29   C     C_R   0.386319 0.513220 0.974531 0.018326
C30   C     C_R   0.615554 0.480036 0.025502 0.039432
C31   C     C_R   0.611382 0.465744 0.974479 0.066828
C32   C     C_R   0.390674 0.528774 0.025452 0.059637
C33   C     C_R   0.498727 0.490275 0.949290 0.015164
C34   C     C_R   0.503156 0.504261 0.050697 0.016270
C35   C     C_R   0.273462 0.512562 0.947609 0.142346
C36   C     C_R   0.727893 0.479018 0.052697 0.130591
C37   C     C_R   0.276855 0.521105 0.897376 -0.173454
C38   C     C_R   0.724418 0.472766 0.102859 -0.194789
O11   O     O_2   0.285894 0.539068 0.797011 -0.531352
O12   O     O_2   0.715162 0.458298 0.203249 -0.531616
C39   C     C_R   0.288223 0.577976 0.052071 -0.183188
C40   C     C_R   0.714044 0.418342 0.947586 -0.164192
H7    H     H_    0.517593 0.271269 0.651796 0.156298
H8    H     H_    0.485554 0.728825 0.348067 0.156398
H9    H     H_    0.517006 0.269029 0.739884 0.138740
H10   H     H_    0.486684 0.730623 0.259959 0.138528
H11   H     H_    0.190719 0.527219 0.877579 0.187910
H12   H     H_    0.811003 0.466558 0.122389 0.191414
H13   H     H_    0.207805 0.623379 0.035311 0.191511
H14   H     H_    0.794731 0.372694 0.963950 0.177230
C41   C     C_R   0.063822 0.372167 0.499979 -0.176443
C42   C     C_R   0.936178 0.627833 0.500021 -0.176442
C43   C     C_R   0.936071 0.372185 0.500029 -0.176355
C44   C     C_R   0.063929 0.627815 0.499971 -0.176363
H15   H     H_    0.111858 0.272247 0.499958 0.149945
H16   H     H_    0.888142 0.727753 0.500042 0.149934
H17   H     H_    0.887955 0.272265 0.500057 0.149960
H18   H     H_    0.112045 0.727734 0.499943 0.149963
C45   C     C_R   0.871781 0.500019 0.500037 -0.019094
C46   C     C_R   0.128219 0.499980 0.499963 -0.019120
C47   C     C_R   0.422872 0.074798 0.470247 -0.024074
C48   C     C_R   0.577129 0.925203 0.529753 -0.024016
C49   C     C_R   0.577117 0.074105 0.529758 -0.025227
C50   C     C_R   0.422883 0.925895 0.470242 -0.025327
H19   H     H_    0.361110 0.131269 0.446424 0.120250
H20   H     H_    0.638892 0.868732 0.553575 0.120409
H21   H     H_    0.638850 0.130022 0.553588 0.119041
H22   H     H_    0.361150 0.869978 0.446412 0.119152
N3    N     N_R   0.500000 0.852070 0.500000 -0.157292
N4    N     N_R   0.500000 0.147930 0.500000 -0.157245
N5    N     N_3   0.156150 0.486729 0.970286 -0.616669
H23   H     H_    0.083201 0.494358 0.945716 0.226656
H24   H     H_    0.156928 0.383076 0.982986 0.226615
N6    N     N_3   0.846176 0.500617 0.030731 -0.610583
H25   H     H_    0.884044 0.593718 0.044186 0.235019
H26   H     H_    0.904267 0.417712 0.040888 0.218199

loop_
_geom_bond_atom_site_label_1
_geom_bond_atom_site_label_2
_geom_bond_distance
_ccdc_geom_bond_type
C49   H21   1.081763 S    
C13   C15   1.395166 A    
C42   H16   1.083324 S    
O3    C2    1.289912 A    
N1    C17   1.433129 S    
C36   N6    1.433553 S    
C19   C25   1.405135 A    
C48   N3    1.366839 A    
O1    C1    1.289706 A    
C9    H10   1.082918 S    
C21   C23   1.393706 A    
C10   C12   1.393569 A    
C42   C45   1.400806 A    
C32   C39   1.415058 A    
C40   H14   1.075096 S    
O7    Cu1   1.949834 S    
Cu2   N4    2.010343 S    
C4    C28   1.472952 S    
C35   N5    1.438996 S    
C23   H5    1.083592 S    
C24   H6    1.083635 S    
O3    Cu1   1.963368 S    
O6    C4    1.295517 A    
Cu1   N3    2.010342 S    
C44   C46   1.400963 A    
Cu1   Cu2   2.675131 S    
O2    C2    1.289704 A    
C31   C40   1.415262 A    
C37   H11   1.083614 S    
C5    C21   1.403605 A    
C41   C46   1.400806 A    
C32   C34   1.423439 A    
O5    C3    1.295627 A    
C16   C18   1.400146 A    
C7    O12   1.349766 S    
C42   C44   1.382757 A    
O8    Cu2   1.949834 S    
C11   C27   1.406309 A    
C8    O11   1.349780 S    
C41   C43   1.382757 A    
C48   H20   1.081764 S    
C25   C38   1.392831 A    
C14   H2    1.082993 S    
C30   C36   1.431179 A    
C15   H3    1.082866 S    
C31   C33   1.424321 A    
C11   H8    1.083031 S    
C9    C17   1.399405 A    
C5    N1    1.366884 A    
C12   H7    1.083030 S    
C10   C18   1.399389 A    
N5    H24   1.045567 S    
C13   C27   1.406071 A    
C7    C25   1.404945 A    
C6    N2    1.366863 A    
C29   C32   1.425316 A    
C8    C26   1.405400 A    
C30   C31   1.426835 A    
C43   C45   1.400963 A    
C30   C34   1.424076 A    
C1    C46   1.448454 S    
N6    H26   1.046262 S    
C10   H9    1.082920 S    
C47   N4    1.366840 A    
C38   H12   1.084117 S    
N2    C8    1.367097 A    
C35   C37   1.399606 A    
C20   C26   1.405252 A    
O1    Cu1   1.963177 S    
C50   N3    1.366772 A    
C22   C24   1.393505 A    
N5    H23   1.045902 S    
C47   C50   1.415948 A    
C12   C28   1.406240 A    
N2    C18   1.433246 S    
C39   H13   1.076491 S    
C19   C34   1.422963 A    
C5    O9    1.349747 S    
C49   N4    1.366768 A    
O6    Cu2   1.951707 S    
C26   C37   1.393734 A    
N1    C7    1.367050 A    
C16   H4    1.082847 S    
C50   H22   1.081761 S    
O4    C1    1.289911 A    
C23   C39   1.386965 A    
C14   C16   1.395403 A    
C15   C17   1.400015 A    
C29   C35   1.431983 A    
C6    C22   1.403456 A    
C41   H15   1.083324 S    
C2    C45   1.448453 S    
C29   C33   1.422856 A    
C14   C28   1.406070 A    
C19   C21   1.408601 A    
C36   C38   1.396696 A    
C3    C27   1.473007 S    
C20   C22   1.408267 A    
C9    C11   1.393784 A    
O4    Cu2   1.963368 S    
N6    H25   1.045983 S    
O2    Cu2   1.963177 S    
O7    C4    1.296572 A    
O8    C3    1.296497 A    
C13   H1    1.082999 S    
O5    Cu1   1.951707 S    
C20   C33   1.422293 A    
C6    O10   1.349792 S    
C48   C49   1.415948 A    
C44   H18   1.083308 S    
C43   H17   1.083308 S    
C47   H19   1.081765 S    
C24   C40   1.387047 A    
