data_mof_unit_45442.cif
_audit_creation_date              2012-12-10T17:41:02-0500
_audit_creation_method            fapswitch 2.2
_symmetry_space_group_name_H-M    P1
_symmetry_Int_Tables_number       1
_space_group_crystal_system       triclinic
_cell_length_a                    14.796572
_cell_length_b                    15.883901
_cell_length_c                    10.053244
_cell_angle_alpha                 89.145992
_cell_angle_beta                  86.706583
_cell_angle_gamma                 90.67991
_cell_volume                      2358.43071809

loop_
_atom_site_label
_atom_site_type_symbol
_atom_type_description
_atom_site_fract_x
_atom_site_fract_y
_atom_site_fract_z
_atom_type_partial_charge
C1    C     C_R   0.379630 0.878668 0.503959 0.951415
C2    C     C_R   0.697609 0.243509 0.375204 0.434079
C3    C     C_R   0.227189 0.283593 0.382583 0.443490
C4    C     C_R   0.197609 0.743509 0.375204 0.434079
C5    C     C_R   0.672693 0.800615 0.497620 -0.100510
C6    C     C_R   0.655646 0.209934 0.492054 -0.167346
C7    C     C_R   0.172693 0.300615 0.497620 -0.100511
C8    C     C_R   0.155646 0.709934 0.492054 -0.167346
C9    C     C_R   0.338452 0.997865 0.158870 -0.340554
C10   C     C_R   0.838452 0.497865 0.158870 -0.340554
C11   C     C_R   0.253368 0.995329 0.108784 0.465687
C12   C     C_R   0.382455 0.122079 0.503425 0.931536
C13   C     C_R   0.753368 0.495329 0.108784 0.465687
C14   C     C_R   0.246025 0.995843 0.970447 -0.004786
C15   C     C_R   0.746025 0.495843 0.970447 -0.004786
C16   C     C_R   0.327780 0.998032 0.885898 0.380117
C17   C     C_R   0.827780 0.498032 0.885898 0.380117
C18   C     C_R   0.417029 0.998397 0.937694 0.101275
C19   C     C_R   0.917029 0.498397 0.937694 0.101275
C20   C     C_R   0.419220 0.998580 0.080250 -0.016395
C21   C     C_R   0.919220 0.498580 0.080250 -0.016395
C22   C     C_R   0.579396 0.003061 0.065020 0.138931
C23   C     C_R   0.879630 0.378668 0.503959 0.951415
C24   C     C_R   0.079396 0.503061 0.065020 0.138931
C25   C     C_R   0.609507 0.127397 0.497146 0.891495
C26   C     C_R   0.614691 0.875560 0.498874 0.940888
C27   C     C_R   0.109507 0.627397 0.497146 0.891495
C28   C     C_R   0.114691 0.375560 0.498874 0.940888
C29   C     C_R   0.579571 0.000487 0.921341 0.104538
C30   C     C_R   0.079571 0.500487 0.921341 0.104539
C31   C     C_R   0.291343 0.196469 0.767713 0.346710
C32   C     C_R   0.275015 0.798636 0.764633 0.387155
C33   C     C_R   0.791343 0.696469 0.767713 0.346710
C34   C     C_R   0.882455 0.622079 0.503425 0.931536
C35   C     C_R   0.775015 0.298636 0.764633 0.387155
C36   C     C_R   0.225190 0.201703 0.875250 0.301253
C37   C     C_R   0.206503 0.789117 0.869871 0.293317
C38   C     C_R   0.725190 0.701703 0.875250 0.301253
C39   C     C_R   0.706503 0.289117 0.869871 0.293316
C40   C     C_R   0.637452 0.721064 0.848664 -0.346483
C41   C     C_R   0.617563 0.274458 0.838396 -0.343882
C42   C     C_R   0.137452 0.221064 0.848664 -0.346483
C43   C     C_R   0.117563 0.774458 0.838396 -0.343882
C44   C     C_R   0.616737 0.748373 0.721850 0.369011
C45   C     C_R   0.297082 0.227012 0.390771 -0.320715
C46   C     C_R   0.598684 0.257714 0.707242 0.434991
C47   C     C_R   0.116737 0.248373 0.721850 0.369012
C48   C     C_R   0.098684 0.757714 0.707242 0.434990
C49   C     C_R   0.684020 0.753341 0.616825 -0.083138
C50   C     C_R   0.669607 0.250182 0.611102 -0.088743
C51   C     C_R   0.184020 0.253341 0.616825 -0.083139
C52   C     C_R   0.169607 0.750182 0.611102 -0.088743
C53   C     C_R   0.266319 0.211743 0.632869 -0.076363
C54   C     C_R   0.252743 0.789785 0.629275 -0.054841
C55   C     C_R   0.766319 0.711743 0.632869 -0.076363
C56   C     C_R   0.274007 0.793280 0.384755 -0.246104
C57   C     C_R   0.752743 0.289785 0.629275 -0.054841
C58   C     C_R   0.317848 0.190806 0.512642 -0.076827
C59   C     C_R   0.305692 0.815226 0.510056 -0.132273
C60   C     C_R   0.817848 0.690806 0.512642 -0.076828
C61   C     C_R   0.805692 0.315226 0.510056 -0.132273
C62   C     C_3   0.153456 0.994506 0.906794 -0.344133
C63   C     C_3   0.066797 0.982605 0.997065 -0.200740
C64   C     C_3   0.983313 0.979422 0.915745 -1.008503
C65   C     C_3   0.653456 0.494507 0.906794 -0.344134
C66   C     C_3   0.566797 0.482605 0.997065 -0.200740
C67   C     C_R   0.797082 0.727012 0.390771 -0.320715
C68   C     C_3   0.483313 0.479422 0.915745 -1.008503
C69   C     C_3   0.669299 0.005482 0.838079 -0.376209
C70   C     C_3   0.735032 0.931742 0.849396 -0.404645
C71   C     C_3   0.803527 0.929715 0.729512 -0.872900
C72   C     C_3   0.169299 0.505482 0.838079 -0.376209
C73   C     C_3   0.235031 0.431742 0.849396 -0.404646
C74   C     C_3   0.303527 0.429715 0.729512 -0.872900
C75   C     C_3   0.668383 0.001227 0.134434 -0.355291
C76   C     C_3   0.736310 0.074606 0.104824 -0.385278
C77   C     C_3   0.803250 0.083142 0.214541 -0.779725
C78   C     C_R   0.774007 0.293280 0.384755 -0.246104
C79   C     C_3   0.168383 0.501227 0.134434 -0.355291
C80   C     C_3   0.236310 0.574606 0.104824 -0.385278
C81   C     C_3   0.303250 0.583143 0.214541 -0.779724
C82   C     C_R   0.727189 0.783593 0.382583 0.443490
H1    H     H_    0.336191 0.211908 0.299959 0.179737
H2    H     H_    0.838672 0.500140 0.263115 0.238543
H3    H     H_    0.976191 0.039597 0.859759 0.285687
H4    H     H_    0.988028 0.926660 0.844916 0.266542
H5    H     H_    0.922625 0.969581 0.984284 0.264171
H6    H     H_    0.069703 0.922648 0.055064 0.276717
H7    H     H_    0.058255 0.036988 0.064727 0.274375
H8    H     H_    0.145685 0.054087 0.850966 0.185821
H9    H     H_    0.154000 0.944217 0.831797 0.191810
H10   H     H_    0.476191 0.539597 0.859759 0.285687
H11   H     H_    0.488028 0.426660 0.844916 0.266542
H12   H     H_    0.306480 0.816611 0.291910 0.209392
H13   H     H_    0.422625 0.469581 0.984284 0.264171
H14   H     H_    0.569703 0.422648 0.055064 0.276717
H15   H     H_    0.558255 0.536988 0.064728 0.274375
H16   H     H_    0.645685 0.554087 0.850966 0.185821
H17   H     H_    0.654000 0.444217 0.831797 0.191810
H18   H     H_    0.264948 0.024509 0.724958 0.296328
H19   H     H_    0.764948 0.524509 0.724958 0.296328
H20   H     H_    0.769560 0.923153 0.634915 0.257041
H21   H     H_    0.844814 0.988600 0.723695 0.272580
H22   H     H_    0.848628 0.875342 0.740312 0.255117
H23   H     H_    0.836191 0.711908 0.299959 0.179737
H24   H     H_    0.775732 0.935055 0.937002 0.226510
H25   H     H_    0.695789 0.872655 0.856248 0.248918
H26   H     H_    0.655450 0.003522 0.736415 0.290714
H27   H     H_    0.702129 0.067944 0.846089 0.174541
H28   H     H_    0.269560 0.423153 0.634915 0.257041
H29   H     H_    0.344814 0.488600 0.723695 0.272580
H30   H     H_    0.348628 0.375342 0.740312 0.255117
H31   H     H_    0.275732 0.435055 0.937002 0.226510
H32   H     H_    0.195789 0.372655 0.856248 0.248918
H33   H     H_    0.155450 0.503522 0.736415 0.290714
H34   H     H_    0.806480 0.316611 0.291910 0.209392
H35   H     H_    0.202129 0.567944 0.846089 0.174541
H36   H     H_    0.393098 0.218243 0.875405 0.307402
H37   H     H_    0.372675 0.765994 0.870439 0.314137
H38   H     H_    0.893098 0.718243 0.875405 0.307402
H39   H     H_    0.872675 0.265994 0.870439 0.314137
H40   H     H_    0.301661 0.159929 0.013882 0.327804
H41   H     H_    0.282917 0.825213 0.011204 0.336621
H42   H     H_    0.801661 0.659929 0.013882 0.327804
H43   H     H_    0.782917 0.325213 0.011204 0.336621
H44   H     H_    0.513921 0.806927 0.777911 0.378043
H45   H     H_    0.585463 0.719692 0.929200 0.202459
H46   H     H_    0.478668 0.300337 0.721536 0.326946
H47   H     H_    0.013921 0.306927 0.777911 0.378043
H48   H     H_    0.978668 0.800336 0.721536 0.326946
H49   H     H_    0.756711 0.804496 0.193075 0.349865
H50   H     H_    0.596595 0.222902 0.265673 0.350688
H51   H     H_    0.256711 0.304496 0.193075 0.349865
H52   H     H_    0.096595 0.722902 0.265673 0.350688
H53   H     H_    0.767818 0.089510 0.313827 0.261920
H54   H     H_    0.846656 0.026597 0.217028 0.244695
H55   H     H_    0.847268 0.139514 0.194045 0.259661
H56   H     H_    0.563343 0.276418 0.915375 0.189557
H57   H     H_    0.779760 0.064467 0.014017 0.216542
H58   H     H_    0.699509 0.133706 0.089836 0.308651
H59   H     H_    0.653925 0.000821 0.240289 0.292913
H60   H     H_    0.700972 0.940495 0.117080 0.214124
H61   H     H_    0.267818 0.589510 0.313827 0.261920
H62   H     H_    0.346656 0.526597 0.217028 0.244695
H63   H     H_    0.347268 0.639514 0.194045 0.259661
H64   H     H_    0.279760 0.564467 0.014017 0.216542
H65   H     H_    0.199509 0.633706 0.089836 0.308651
H66   H     H_    0.153925 0.500821 0.240289 0.292913
H67   H     H_    0.085463 0.219692 0.929200 0.202459
H68   H     H_    0.200972 0.440495 0.117080 0.214124
H69   H     H_    0.194758 0.991627 0.289550 0.331066
H70   H     H_    0.694758 0.491627 0.289551 0.331065
H71   H     H_    0.063343 0.776418 0.915375 0.189557
H72   H     H_    0.338672 0.000140 0.263115 0.238543
N1    N     N_R   0.498810 1.000000 0.142780 -0.122097
N2    N     N_R   0.998810 0.500000 0.142780 -0.122097
N3    N     N_R   0.498740 0.000000 0.857170 -0.104802
N4    N     N_R   0.998740 0.500000 0.857170 -0.104802
O1    O     O_R   0.408390 0.908380 0.614690 -0.471775
O2    O     O_R   0.591620 0.908390 0.614640 -0.643020
O3    O     O_R   0.091620 0.591610 0.614640 -0.626901
O4    O     O_R   0.091620 0.408390 0.614640 -0.643019
O5    O     O_R   0.591610 0.091610 0.385310 -0.654574
O6    O     O_R   0.591610 0.908390 0.385310 -0.592275
O7    O     O_R   0.091610 0.591610 0.385310 -0.654574
O8    O     O_R   0.091610 0.408390 0.385310 -0.592275
O9    O     O_3   0.319994 0.996089 0.752177 -0.699712
O10   O     O_3   0.819994 0.496089 0.752177 -0.699712
O11   O     O_3   0.380177 0.185438 0.795438 -0.712708
O12   O     O_R   0.408390 0.091620 0.614690 -0.477364
O13   O     O_3   0.363236 0.804869 0.794460 -0.744283
O14   O     O_3   0.880177 0.685438 0.795438 -0.712708
O15   O     O_3   0.863236 0.304869 0.794460 -0.744283
O16   O     O_3   0.242200 0.186634 0.007142 -0.762724
O17   O     O_3   0.222270 0.799878 0.002565 -0.720949
O18   O     O_3   0.742200 0.686634 0.007142 -0.762724
O19   O     O_3   0.722270 0.299878 0.002565 -0.720949
O20   O     O_3   0.530014 0.770563 0.701283 -0.710448
O21   O     O_3   0.512201 0.259264 0.665279 -0.721848
O22   O     O_3   0.030014 0.270563 0.701283 -0.710448
O23   O     O_R   0.908390 0.408380 0.614690 -0.471775
O24   O     O_3   0.012201 0.759264 0.665279 -0.721848
O25   O     O_3   0.709968 0.820932 0.262160 -0.764435
O26   O     O_3   0.662428 0.234802 0.252525 -0.717842
O27   O     O_3   0.209968 0.320932 0.262160 -0.764435
O28   O     O_3   0.162428 0.734802 0.252525 -0.717842
O29   O     O_3   0.177474 0.993729 0.195712 -0.766489
O30   O     O_3   0.677474 0.493729 0.195712 -0.766488
O31   O     O_R   0.908390 0.591620 0.614690 -0.477364
O32   O     O_R   0.408370 0.908380 0.385360 -0.675673
O33   O     O_R   0.408370 0.091620 0.385360 -0.678734
O34   O     O_R   0.908370 0.408380 0.385360 -0.675673
O35   O     O_R   0.908370 0.591620 0.385360 -0.678734
O36   O     O_R   0.591620 0.091610 0.614640 -0.626901
Zn1   Zn    Zn3+2 0.500010 0.000000 0.653130 1.033379
Zn2   Zn    Zn3+2 0.000010 0.500000 0.653130 1.033379
Zn3   Zn    Zn3+2 0.499980 0.000000 0.346870 0.938133
Zn4   Zn    Zn3+2 0.999980 0.500000 0.346870 0.938133

loop_
_geom_bond_atom_site_label_1
_geom_bond_atom_site_label_2
_ccdc_geom_bond_type
C44   C49   A    
C33   C55   A    
C66   C68   S    
C71   H22   S    
C36   O16   S    
C38   O18   S    
C20   N1    A    
C63   H6    S    
C73   C74   S    
H52   O28   S    
C36   C42   A    
C4    C8    A    
C28   O4    A    
C39   C41   A    
C45   H1    S    
O1    Zn1   S    
C30   C72   S    
C72   H33   S    
C47   O22   S    
C22   C29   A    
H18   O9    S    
C11   O29   S    
C66   H15   S    
C19   C21   A    
C77   H55   S    
C65   H16   S    
C23   O23   A    
C48   C52   A    
C3    C7    A    
C70   H25   S    
C1    C59   S    
C74   H30   S    
O12   Zn1   S    
C80   C81   S    
C11   C14   A    
C76   H57   S    
C6    C25   S    
C16   O9    S    
O35   Zn4   S    
C14   C62   S    
C73   H31   S    
C15   C17   A    
C4    O28   S    
O23   Zn2   S    
C42   H67   S    
C75   H59   S    
C17   C19   A    
C69   H27   S    
C10   H2    S    
C81   H62   S    
H39   O15   S    
C60   C67   A    
C72   H35   S    
C41   C46   A    
C10   C13   A    
C26   O2    A    
C70   C71   S    
C77   H54   S    
O34   Zn4   S    
C43   C48   A    
C8    C52   A    
C64   H5    S    
N1    Zn3   S    
H70   O30   S    
C22   N1    A    
C12   C58   S    
C1    O32   A    
C80   H64   S    
O36   Zn1   S    
C13   O30   S    
C55   C60   A    
C4    C56   A    
C34   C60   S    
C19   N4    A    
C5    C49   A    
C2    C6    A    
H49   O25   S    
C22   C75   S    
C3    O27   S    
C64   H4    S    
C23   O34   A    
C39   O19   S    
C69   H26   S    
C52   C54   A    
C29   C69   S    
C54   C59   A    
C76   H58   S    
C10   C21   A    
H47   O22   S    
N2    Zn4   S    
C45   C58   A    
C68   H13   S    
C63   C64   S    
C29   N3    A    
C35   O15   S    
C1    O1    A    
C76   C77   S    
C65   H17   S    
H48   O24   S    
C44   O20   S    
C74   H29   S    
H38   O14   S    
C12   O12   A    
C31   O11   S    
H36   O11   S    
H40   O16   S    
C40   H45   S    
C82   O25   S    
C3    C45   A    
N4    Zn2   S    
C7    C28   S    
C79   C80   S    
O3    Zn2   S    
C51   C53   A    
C37   C43   A    
H19   O10   S    
C56   H12   S    
C75   C76   S    
O8    Zn4   S    
C62   C63   S    
C2    C78   A    
C75   H60   S    
C70   H24   S    
C37   O17   S    
C24   C79   S    
H41   O17   S    
C40   C44   A    
C61   C78   A    
C62   H9    S    
C63   H7    S    
H46   O21   S    
C2    O26   S    
C32   C37   A    
C31   C53   A    
C9    C11   A    
C41   H56   S    
C27   O7    A    
O2    Zn1   S    
C9    C20   A    
C34   O35   A    
C16   C18   A    
C32   O13   S    
C9    H72   S    
C81   H63   S    
C79   H68   S    
H43   O19   S    
C14   C16   A    
C64   H3    S    
O6    Zn3   S    
C66   H14   S    
C23   C61   S    
C30   N4    A    
C12   O33   A    
C71   H21   S    
C6    C50   A    
N3    Zn1   S    
C50   C57   A    
C46   O21   S    
C71   H20   S    
C34   O31   A    
C78   H34   S    
O33   Zn3   S    
C72   C73   S    
C17   O10   S    
C74   H28   S    
C47   C51   A    
C53   C58   A    
C57   C61   A    
C79   H66   S    
H42   O18   S    
C28   O8    A    
C80   H65   S    
C46   C50   A    
C68   H11   S    
C32   C54   A    
C56   C59   A    
C35   C57   A    
C13   C15   A    
C7    C51   A    
C18   N3    A    
C49   C55   A    
O7    Zn4   S    
H50   O26   S    
C48   O24   S    
C5    C82   A    
O31   Zn2   S    
C38   C40   A    
C25   O5    A    
C35   C39   A    
C62   H8    S    
C26   O6    A    
C68   H10   S    
C21   N2    A    
H44   O20   S    
C18   C20   A    
C42   C47   A    
C69   C70   S    
C24   C30   A    
C73   H32   S    
C5    C26   S    
C81   H61   S    
C67   H23   S    
O5    Zn3   S    
C67   C82   A    
H51   O27   S    
C65   C66   S    
O4    Zn2   S    
C8    C27   S    
C31   C36   A    
C33   C38   A    
C77   H53   S    
C43   H71   S    
C33   O14   S    
H69   O29   S    
C27   O3    A    
C25   O36   A    
C24   N2    A    
O32   Zn3   S    
H37   O13   S    
C15   C65   S    
