data_mof_unit_44727.cif
_audit_creation_date              2012-12-11T15:47:07-0500
_audit_creation_method            fapswitch 2.2
_symmetry_space_group_name_H-M    P1
_symmetry_Int_Tables_number       1
_space_group_crystal_system       triclinic
_cell_length_a                    20.271053
_cell_length_b                    7.255161
_cell_length_c                    13.486418
_cell_angle_alpha                 89.999481
_cell_angle_beta                  103.18807
_cell_angle_gamma                 90.000216
_cell_volume                      1931.13365954

loop_
_atom_site_label
_atom_site_type_symbol
_atom_type_description
_atom_site_fract_x
_atom_site_fract_y
_atom_site_fract_z
_atom_type_partial_charge
O1    O     O_R   0.449560 0.506810 0.599700 -0.542021
O2    O     O_R   0.550440 0.006810 0.400300 -0.542057
O3    O     O_R   0.587960 0.180060 0.595760 -0.534388
O4    O     O_R   0.412040 0.680060 0.404240 -0.534413
C1    C     C_R   0.613851 0.344509 0.619721 0.712164
C2    C     C_R   0.386150 0.844511 0.380275 0.712109
O5    O     O_R   0.452380 0.177430 0.611700 -0.538675
O6    O     O_R   0.547620 0.677430 0.388300 -0.538674
O7    O     O_R   0.413900 0.001890 0.416350 -0.536904
O8    O     O_R   0.586100 0.501890 0.583650 -0.536906
C3    C     C_R   0.435095 0.344967 0.636351 0.668184
C4    C     C_R   0.564904 0.844969 0.363647 0.668216
O9    O     O_3   0.487530 0.337490 0.435890 -0.373198
O10   O     O_3   0.512470 0.837490 0.564110 -0.373168
V1    V     V_3+5 0.502310 0.064660 0.511890 1.463177
V2    V     V_3+5 0.497690 0.564660 0.488110 1.463178
C5    C     C_R   0.613981 0.752412 0.118072 -0.137039
C6    C     C_R   0.386013 0.252549 0.881936 -0.137027
H1    H     H_    0.521958 0.749938 0.169744 0.128611
H2    H     H_    0.478036 0.250039 0.830268 0.128600
H3    H     H_    0.587762 0.707613 0.042815 0.162023
H4    H     H_    0.412233 0.207813 0.957205 0.162053
C7    C     C_R   0.605853 0.846237 0.286793 -0.109771
C8    C     C_R   0.394138 0.346235 0.713193 -0.109710
C9    C     C_R   0.932391 0.882368 0.320625 0.185109
C10   C     C_R   0.067588 0.382266 0.679367 0.185082
C11   C     C_R   0.897534 0.865011 0.398395 0.260208
C12   C     C_R   0.102445 0.364892 0.601596 0.260172
C13   C     C_R   0.827201 0.840016 0.373665 -0.175040
C14   C     C_R   0.172783 0.339955 0.626326 -0.175058
C15   C     C_R   0.789893 0.837114 0.271363 0.050153
C16   C     C_R   0.210096 0.337126 0.728626 0.050187
C17   C     C_R   0.826703 0.828093 0.193698 -0.007394
C18   C     C_R   0.173289 0.328151 0.806297 -0.007337
C19   C     C_R   0.717402 0.831800 0.244291 0.026431
C20   C     C_R   0.282588 0.331834 0.755696 0.026424
C21   C     C_R   0.684610 0.777049 0.143533 0.064153
C22   C     C_R   0.315384 0.277174 0.856471 0.064235
C23   C     C_R   0.722661 0.748581 0.069387 0.188300
C24   C     C_R   0.277339 0.248795 0.930630 0.187962
C25   C     C_R   0.792284 0.783819 0.093800 -0.180525
C26   C     C_R   0.207713 0.283980 0.906207 -0.180788
C27   C     C_R   0.676442 0.883400 0.313038 0.291502
C28   C     C_R   0.323547 0.383365 0.686934 0.291494
C29   C     C_R   0.575754 0.779999 0.189951 -0.220898
C30   C     C_R   0.424239 0.280075 0.810051 -0.220936
C31   C     C_R   0.897674 0.859310 0.218103 -0.159730
C32   C     C_R   0.102316 0.359309 0.781891 -0.159719
H5    H     H_    0.803170 0.813340 0.435766 0.181865
H6    H     H_    0.196811 0.313257 0.564225 0.181885
H7    H     H_    0.819780 0.768907 0.034302 0.135117
H8    H     H_    0.180221 0.269128 0.965714 0.135312
C33   C     C_R   0.206914 0.994177 0.262175 0.137290
C34   C     C_R   0.793057 0.494333 0.737909 0.137214
C35   C     C_R   0.272461 0.986247 0.323174 -0.141244
C36   C     C_R   0.727513 0.486394 0.676904 -0.141289
H9    H     H_    0.287031 0.085452 0.384411 0.167383
H10   H     H_    0.712920 0.585734 0.615740 0.167453
C37   C     C_R   0.318713 0.852250 0.308149 -0.221208
C38   C     C_R   0.681291 0.352235 0.691837 -0.221296
C39   C     C_R   0.299016 0.724994 0.226757 0.270658
C40   C     C_R   0.701024 0.224783 0.773121 0.270718
C41   C     C_R   0.231547 0.726788 0.166701 0.321989
C42   C     C_R   0.768496 0.226534 0.833145 0.322093
C43   C     C_R   0.184762 0.861043 0.184098 -0.192311
C44   C     C_R   0.815241 0.361034 0.815889 -0.192424
O11   O     O_R   0.913920 0.203370 0.916260 -0.503738
O12   O     O_R   0.086080 0.703370 0.083740 -0.503767
O13   O     O_R   0.047620 0.535540 0.888290 -0.532302
O14   O     O_R   0.952380 0.035540 0.111710 -0.532316
C45   C     C_R   0.063970 0.368275 0.862323 0.705158
C46   C     C_R   0.936023 0.868274 0.137672 0.705166
O15   O     O_R   0.912040 0.532780 0.904220 -0.560048
O16   O     O_R   0.087960 0.032780 0.095780 -0.560028
O17   O     O_R   0.949550 0.708160 0.099720 -0.542238
O18   O     O_R   0.050450 0.208160 0.900280 -0.542226
C47   C     C_R   0.885428 0.365404 0.882601 0.740502
C48   C     C_R   0.114572 0.865405 0.117398 0.740569
O19   O     O_3   0.012480 0.375300 0.064060 -0.380433
O20   O     O_3   0.987520 0.875300 0.935940 -0.380415
V3    V     V_3+5 0.997690 0.648180 0.988110 1.450514
V4    V     V_3+5 0.002310 0.148180 0.011890 1.450550
O21   O     O_3   0.344508 0.600990 0.202103 -0.639163
H11   H     H_    0.390508 0.655288 0.220212 0.287044
O22   O     O_3   0.655552 0.100671 0.797731 -0.639089
H12   H     H_    0.609563 0.155070 0.779791 0.287078
O23   O     O_3   0.210861 0.605354 0.086565 -0.643286
H13   H     H_    0.247873 0.518868 0.083060 0.335817
O24   O     O_3   0.789215 0.104813 0.913135 -0.643195
H14   H     H_    0.752356 0.017514 0.916175 0.335682
N1    N     N_3   0.690156 0.687474 0.968418 -0.654242
H15   H     H_    0.724432 0.685125 0.921048 0.234341
H16   H     H_    0.675192 0.550732 0.974274 0.227108
N2    N     N_3   0.309853 0.187860 0.031628 -0.654256
H17   H     H_    0.275594 0.185750 0.079030 0.234618
H18   H     H_    0.324780 0.051061 0.025854 0.227106
O25   O     O_3   0.705805 0.978143 0.401187 -0.658923
H19   H     H_    0.671816 0.013041 0.439718 0.296027
O26   O     O_3   0.294181 0.478031 0.598758 -0.658908
H20   H     H_    0.328157 0.512723 0.560160 0.295989
N3    N     N_3   0.003643 0.919840 0.347489 -0.643618
H21   H     H_    0.029058 0.816361 0.317093 0.216395
H22   H     H_    0.011516 0.045749 0.314495 0.217567
N4    N     N_3   0.996327 0.419633 0.652502 -0.643520
H23   H     H_    0.970936 0.316143 0.682931 0.216426
H24   H     H_    0.988425 0.545550 0.685463 0.217509
N5    N     N_3   0.934308 0.874664 0.502886 -0.621437
H25   H     H_    0.965187 0.757821 0.517597 0.267694
H26   H     H_    0.901198 0.868143 0.551966 0.228535
N6    N     N_3   0.065666 0.374456 0.497105 -0.621424
H27   H     H_    0.034798 0.257589 0.482426 0.267790
H28   H     H_    0.098773 0.367917 0.448023 0.228564
N7    N     N_3   0.163803 0.137485 0.284131 -0.658342
H29   H     H_    0.154296 0.231765 0.223999 0.260716
H30   H     H_    0.118510 0.079169 0.292925 0.226215
N8    N     N_3   0.836135 0.637814 0.716045 -0.658300
H31   H     H_    0.845615 0.731980 0.776231 0.260727
H32   H     H_    0.881444 0.579660 0.707205 0.226251

loop_
_geom_bond_atom_site_label_1
_geom_bond_atom_site_label_2
_ccdc_geom_bond_type
C22   C24   A    
O23   H13   S    
C41   C43   A    
N3    H21   S    
C7    C29   A    
C35   C37   A    
C11   C13   A    
O11   C47   A    
O2    C4    A    
C2    O7    A    
N4    H24   S    
O25   H19   S    
C23   C25   A    
C13   H5    S    
O22   H12   S    
O5    C3    A    
C4    C7    S    
O12   V3    S    
C16   C20   A    
C19   C21   A    
C5    C29   A    
C45   O18   A    
C28   O26   S    
C3    C8    S    
C7    C27   A    
N8    H31   S    
C38   C40   A    
O6    V2    S    
C23   N1    S    
O13   C45   A    
N6    H27   S    
C40   C42   A    
C10   N4    S    
O26   H20   S    
C36   H10   S    
C18   C26   A    
C34   N8    S    
N5    H25   S    
C15   C17   A    
C19   C27   A    
C9    C31   A    
C10   C32   A    
O5    V1    S    
C14   H6    S    
N3    H22   S    
N5    H26   S    
C42   O24   S    
O16   V4    S    
C46   O17   A    
C6    C30   A    
O15   V3    S    
N4    H23   S    
C33   N7    S    
C33   C35   A    
O12   C48   A    
C40   O22   S    
C34   C36   A    
C37   C39   A    
O4    C2    A    
C39   O21   S    
O18   V4    S    
N1    H15   S    
O17   V3    S    
C12   N6    S    
C5    H3    S    
C36   C38   A    
C42   C44   A    
O4    V2    S    
N1    H16   S    
C24   C26   A    
O21   H11   S    
C11   N5    S    
O6    C4    A    
C33   C43   A    
C39   C41   A    
O1    V2    S    
C5    C21   A    
N2    H18   S    
O2    V1    S    
C35   H9    S    
C17   C31   A    
C15   C19   A    
C20   C28   A    
C18   C32   A    
C32   C45   S    
O3    V1    S    
N7    H29   S    
C44   C47   S    
C43   C48   S    
C1    C38   S    
C41   O23   S    
C6    H4    S    
C2    C37   S    
C27   O25   S    
C24   N2    S    
O20   V3    S    
O3    C1    A    
O19   V4    S    
H1    C29   S    
C34   C44   A    
C9    C11   A    
C10   C12   A    
C8    C30   A    
C20   C22   A    
C6    C22   A    
C17   C25   A    
C1    O8    A    
C21   C23   A    
O8    V2    S    
C14   C16   A    
C9    N3    S    
C8    C28   A    
C12   C14   A    
N8    H32   S    
O7    V1    S    
N2    H17   S    
O14   V4    S    
N6    H28   S    
C31   C46   S    
O13   V3    S    
O11   V4    S    
C13   C15   A    
O16   C48   A    
O9    V2    S    
C26   H8    S    
O15   C47   A    
O10   V1    S    
O14   C46   A    
O1    C3    A    
O24   H14   S    
C25   H7    S    
H2    C30   S    
C16   C18   A    
N7    H30   S    
