data_mof_unit_39717.cif
_audit_creation_date              2012-12-10T18:43:05-0500
_audit_creation_method            fapswitch 2.2
_symmetry_space_group_name_H-M    P1
_symmetry_Int_Tables_number       1
_space_group_crystal_system       triclinic
_cell_length_a                    10.658764
_cell_length_b                    9.894192
_cell_length_c                    10.67184
_cell_angle_alpha                 85.576209
_cell_angle_beta                  91.164232
_cell_angle_gamma                 89.368645
_cell_volume                      1121.7767198

loop_
_atom_site_label
_atom_site_type_symbol
_atom_type_description
_atom_site_fract_x
_atom_site_fract_y
_atom_site_fract_z
_atom_type_partial_charge
C1    C     C_R   0.260593 0.500696 0.499042 1.070232
C2    C     C_R   0.739799 0.499349 0.499721 1.056631
C3    C     C_R   0.506396 0.505752 0.262155 0.835240
C4    C     C_R   0.498627 0.494274 0.737273 0.827200
C5    C     C_2   0.603180 0.449219 0.935672 0.127192
C6    C     C_2   0.597872 0.432451 0.072683 0.135643
C7    C     C_2   0.495012 0.475493 0.870447 0.352014
C8    C     C_2   0.531419 0.525061 0.129949 0.323670
C9    C     C_R   0.069200 0.420239 0.592420 0.238208
C10   C     C_R   0.938880 0.412181 0.587005 0.265234
C11   C     C_R   0.872711 0.498475 0.498075 -0.218602
C12   C     C_R   0.128362 0.501810 0.499294 -0.221083
C13   C     C_R   0.932199 0.586100 0.409043 0.254377
C14   C     C_R   0.063072 0.582155 0.405490 0.262362
C15   C     C_R   0.582792 0.063091 0.576643 0.220848
C16   C     C_R   0.415901 0.078715 0.426285 0.247194
C17   C     C_R   0.582928 0.919367 0.573503 -0.053884
C18   C     C_R   0.417449 0.934949 0.425617 -0.145061
H1    H     H_    0.648671 0.855805 0.629972 0.151095
H2    H     H_    0.351632 0.885601 0.366104 0.170132
N1    N     N_R   0.500000 0.857200 0.500000 -0.111206
N2    N     N_R   0.500000 0.142810 0.500000 -0.130465
O1    O     O_R   0.316770 0.614620 0.499990 -0.601483
O2    O     O_R   0.683230 0.614620 0.500010 -0.600181
O3    O     O_R   0.316800 0.385290 0.500000 -0.575485
O4    O     O_R   0.683200 0.385290 0.500000 -0.613894
O5    O     O_R   0.500000 0.614630 0.319080 -0.614005
O6    O     O_R   0.500000 0.614630 0.680920 -0.627246
O7    O     O_R   0.500030 0.385300 0.319080 -0.596418
O8    O     O_R   0.499970 0.385300 0.680920 -0.641256
Zn1   Zn    Zn3+2 0.500000 0.653120 0.500000 0.989481
Zn2   Zn    Zn3+2 0.500000 0.346880 0.500000 0.999841
N3    N     N_2   0.721053 0.444018 0.875036 -0.325452
H3    H     H_    0.780693 0.369346 0.915048 0.243554
C19   C     C_3   0.782583 0.573642 0.859205 -0.740413
H4    H     H_    0.871182 0.562377 0.807917 0.248997
H5    H     H_    0.805252 0.611399 0.952372 0.245228
H6    H     H_    0.721766 0.649079 0.803778 0.245669
N4    N     N_2   0.661672 0.322142 0.141579 -0.324694
H7    H     H_    0.757956 0.329691 0.138503 0.221098
C20   C     C_3   0.618129 0.189446 0.114405 -0.734554
H8    H     H_    0.664446 0.111215 0.180437 0.244125
H9    H     H_    0.641096 0.168518 0.016741 0.226932
H10   H     H_    0.515124 0.182963 0.126392 0.252884
O9    O     O_3   0.379990 0.463382 0.928478 -0.765016
H11   H     H_    0.312365 0.483230 0.864158 0.341176
O10   O     O_3   0.496264 0.646361 0.063243 -0.755314
H12   H     H_    0.435528 0.695942 0.112489 0.353529
O11   O     O_3   0.141099 0.353015 0.687647 -0.774129
H13   H     H_    0.090337 0.340839 0.764331 0.346056
O12   O     O_3   0.873954 0.325034 0.668651 -0.774563
H14   H     H_    0.927552 0.244411 0.692758 0.353837
O13   O     O_3   0.860223 0.670867 0.326450 -0.760842
H15   H     H_    0.909041 0.753015 0.302148 0.346455
O14   O     O_3   0.129640 0.651544 0.311498 -0.774181
H16   H     H_    0.076135 0.663789 0.234432 0.346221
N5    N     N_2   0.670082 0.124375 0.657681 -0.267701
H17   H     H_    0.651986 0.223447 0.671087 0.321340
C21   C     C_3   0.714080 0.048306 0.772067 -0.826712
H18   H     H_    0.767108 0.115962 0.831790 0.248834
H19   H     H_    0.779655 0.966033 0.749907 0.245830
H20   H     H_    0.633520 0.006288 0.826224 0.250109
N6    N     N_2   0.326535 0.156433 0.350324 -0.258124
H21   H     H_    0.334349 0.142027 0.256159 0.211562
C22   C     C_3   0.198297 0.141096 0.390805 -0.719981
H22   H     H_    0.137487 0.217726 0.336863 0.234455
H23   H     H_    0.191280 0.156885 0.492413 0.278074
H24   H     H_    0.163637 0.038410 0.373890 0.219385

loop_
_geom_bond_atom_site_label_1
_geom_bond_atom_site_label_2
_ccdc_geom_bond_type
C1    O3    A    
O14   H16   S    
N6    C22   S    
O4    Zn2   S    
C16   N6    S    
O7    Zn2   S    
C18   N1    A    
C20   H9    S    
C20   H8    S    
C13   O13   S    
C19   H4    S    
C22   H24   S    
C20   H10   S    
N1    Zn1   S    
O3    Zn2   S    
C3    O5    A    
C14   O14   S    
O2    Zn1   S    
C21   H18   S    
C2    O4    A    
C13   C14   A    
O8    Zn2   S    
C15   N5    S    
C3    O7    A    
N5    H17   S    
C1    C12   S    
N2    Zn2   S    
C15   C17   A    
C4    C7    S    
C6    C8    D    
C2    C11   S    
C7    O9    S    
C16   C18   A    
C17   H1    S    
N3    H3    S    
O11   H13   S    
C1    O1    A    
C18   H2    S    
O6    Zn1   S    
C3    C8    S    
C2    O2    A    
C5    C6    S    
C9    C12   A    
C17   N1    A    
C8    O10   S    
N5    C21   S    
C10   C11   A    
C10   O12   S    
O5    Zn1   S    
O12   H14   S    
C11   C13   A    
C19   H6    S    
C9    O11   S    
C19   H5    S    
N4    C20   S    
C22   H22   S    
C9    C10   A    
C21   H19   S    
N4    H7    S    
C5    C7    D    
C6    N4    S    
C21   H20   S    
C16   N2    A    
N3    C19   S    
O9    H11   S    
C4    O6    A    
C15   N2    A    
C4    O8    A    
O10   H12   S    
O13   H15   S    
C12   C14   A    
N6    H21   S    
C22   H23   S    
O1    Zn1   S    
C5    N3    S    
