data_mof_unit_59196.cif
_audit_creation_date              2012-12-10T16:50:18-0500
_audit_creation_method            fapswitch 2.2
_symmetry_space_group_name_H-M    P1
_symmetry_Int_Tables_number       1
_space_group_crystal_system       triclinic
_cell_length_a                    23.517468
_cell_length_b                    8.685448
_cell_length_c                    7.444954
_cell_angle_alpha                 103.109579
_cell_angle_beta                  94.184886
_cell_angle_gamma                 92.483665
_cell_volume                      1474.31297691

loop_
_atom_site_label
_atom_site_type_symbol
_atom_type_description
_atom_site_fract_x
_atom_site_fract_y
_atom_site_fract_z
_atom_type_partial_charge
C1    C     C_R   0.498272 0.199633 0.453118 0.886810
C2    C     C_R   0.501724 0.800369 0.546889 0.884680
C3    C     C_R   0.236097 0.540994 0.361139 0.311490
C4    C     C_R   0.754854 0.434522 0.325812 0.322304
C5    C     C_R   0.295804 0.543711 0.366036 -0.295719
C6    C     C_R   0.695502 0.432899 0.334082 -0.306894
C7    C     C_R   0.328350 0.493379 0.505691 -0.148652
C8    C     C_R   0.671539 0.512093 0.494263 -0.142897
C9    C     C_R   0.300140 0.437711 0.641833 0.350278
C10   C     C_R   0.707891 0.597349 0.647170 0.345022
C11   C     C_R   0.240860 0.436321 0.637861 -0.189080
C12   C     C_R   0.766851 0.596062 0.640297 -0.213741
C13   C     C_R   0.208650 0.489245 0.501075 0.264021
C14   C     C_R   0.790796 0.514044 0.482433 0.261085
C15   C     C_2   0.497445 0.031648 0.426821 -0.342160
C16   C     C_2   0.502542 0.968356 0.573201 -0.327765
C17   C     C_R   0.390960 0.496928 0.502140 0.859172
C18   C     C_R   0.609012 0.504664 0.498404 0.856032
C19   C     C_R   0.884591 0.649424 0.514199 0.520478
C20   C     C_R   0.115433 0.353197 0.478457 0.512798
C21   C     C_R   0.876497 0.367377 0.465496 0.577865
C22   C     C_R   0.123650 0.636164 0.543007 0.578220
C23   C     C_R   0.935991 0.360895 0.467909 -0.027025
C24   C     C_R   0.064184 0.642529 0.540786 -0.028472
C25   C     C_R   0.970083 0.503307 0.500016 -0.016270
C26   C     C_R   0.030081 0.499878 0.506051 -0.018873
C27   C     C_R   0.944333 0.649153 0.525902 -0.015996
C28   C     C_R   0.055801 0.353807 0.476659 -0.019859
C29   C     C_R   0.962073 0.215890 0.439594 -0.160902
C30   C     C_R   0.038119 0.787557 0.570923 -0.158745
C31   C     C_R   0.021370 0.212325 0.443079 -0.170638
C32   C     C_R   0.978776 0.790800 0.562655 -0.170367
Cu1   Cu    Cu3+1 0.506340 0.517380 0.684380 1.027696
Cu2   Cu    Cu3+1 0.493660 0.482620 0.315620 1.001462
H1    H     H_    0.936708 0.104780 0.412465 0.196406
H2    H     H_    0.063467 0.898816 0.599910 0.193489
H3    H     H_    0.040074 0.098514 0.418275 0.184182
H4    H     H_    0.960027 0.904503 0.586226 0.182090
H5    H     H_    0.316902 0.585607 0.259922 0.200742
H6    H     H_    0.668017 0.368893 0.214983 0.184346
H7    H     H_    0.219388 0.393138 0.741637 0.181226
H8    H     H_    0.794570 0.659356 0.759067 0.191806
H9    H     H_    0.492650 0.959732 0.285885 0.183142
H10   H     H_    0.507336 0.040271 0.714139 0.184257
H11   H     H_    0.456244 0.375537 0.948116 0.270015
H12   H     H_    0.544308 0.623158 0.051670 0.246435
N1    N     N_R   0.851913 0.509902 0.485047 -0.457359
N2    N     N_R   0.147907 0.492968 0.508204 -0.459347
N3    N     N_2   0.484110 0.456420 0.038520 -0.204727
N4    N     N_2   0.515890 0.543580 0.961480 -0.206855
O1    O     O_R   0.504120 0.286130 0.619770 -0.586171
O2    O     O_R   0.495880 0.713870 0.380230 -0.591828
O3    O     O_R   0.493410 0.256770 0.308360 -0.583017
O4    O     O_R   0.506590 0.743230 0.691640 -0.573019
O5    O     O_R   0.423230 0.514630 0.655730 -0.547574
O6    O     O_R   0.576770 0.485370 0.344270 -0.597652
O7    O     O_R   0.412530 0.485280 0.344320 -0.565811
O8    O     O_R   0.587470 0.514720 0.655680 -0.532767
O9    O     O_2   0.859289 0.787891 0.530299 -0.506297
O10   O     O_2   0.140743 0.214181 0.446848 -0.507943
O11   O     O_2   0.843506 0.232567 0.445912 -0.496119
O12   O     O_2   0.157045 0.771771 0.579225 -0.496345
N5    N     N_2   0.204426 0.594229 0.218315 -0.393277
H13   H     H_    0.228335 0.664608 0.153655 0.270794
C33   C     C_3   0.169086 0.472763 0.087073 -0.614832
H14   H     H_    0.151975 0.521481 0.969781 0.215020
H15   H     H_    0.132046 0.432722 0.151829 0.235241
H16   H     H_    0.194383 0.369764 0.032965 0.242490
N6    N     N_2   0.778071 0.353353 0.161627 -0.389251
H17   H     H_    0.751403 0.262106 0.081534 0.277926
C34   C     C_3   0.801296 0.455701 0.053015 -0.622703
H18   H     H_    0.818348 0.382852 0.928201 0.236636
H19   H     H_    0.836758 0.536117 0.133895 0.238371
H20   H     H_    0.767294 0.527128 0.008495 0.253314
Cl1   Cl    Cl    0.336083 0.361501 0.815565 -0.631170
Cl2   Cl    Cl    0.682238 0.714042 0.847460 -0.609223

loop_
_geom_bond_atom_site_label_1
_geom_bond_atom_site_label_2
_ccdc_geom_bond_type
Cu1   O5    S    
C22   N2    A    
N5    C33   S    
Cu2   O6    S    
Cu1   O8    S    
C23   C29   A    
C24   C26   A    
C19   N1    A    
C15   C16   D    
N6    C34   S    
C1    O3    A    
C12   H8    S    
C10   Cl2   S    
C18   O8    A    
C33   H15   S    
Cu2   O7    S    
C1    C15   S    
C32   H4    S    
C20   O10   S    
C19   C27   A    
C16   H10   S    
C21   O11   S    
C3    C13   A    
C18   O6    A    
C10   C12   A    
C4    N6    S    
H12   N4    S    
C4    C6    A    
C2    O4    A    
C5    C7    A    
C6    C8    A    
C20   C28   A    
C19   O9    S    
C25   C26   A    
C8    C18   S    
C31   H3    S    
C13   N2    S    
C22   O12   S    
C9    C11   A    
H11   N3    S    
C33   H16   S    
Cu1   Cu2   S    
C1    O1    A    
C20   N2    A    
C2    O2    A    
C12   C14   A    
C33   H14   S    
C21   C23   A    
C22   C24   A    
Cu1   O1    S    
C2    C16   S    
C34   H19   S    
Cu1   O4    S    
C7    C9    A    
C17   O5    A    
Cu2   N3    S    
C27   C32   A    
Cu2   O2    S    
C28   C31   A    
C3    C5    A    
C7    C17   S    
C34   H20   S    
C14   N1    S    
C3    N5    S    
C25   C27   A    
C29   H1    S    
C26   C28   A    
C30   H2    S    
C5    H5    S    
Cu1   N4    S    
C15   H9    S    
C34   H18   S    
C29   C31   A    
C30   C32   A    
C11   C13   A    
C11   H7    S    
C6    H6    S    
C23   C25   A    
C4    C14   A    
N6    H17   S    
C24   C30   A    
N5    H13   S    
Cu2   O3    S    
C8    C10   A    
N3    N4    D    
C9    Cl1   S    
C17   O7    A    
C21   N1    A    
