data_mof_unit_61717.cif
_audit_creation_date              2012-10-26T17:14:03-0400
_audit_creation_method            fapswitch 2.2
_symmetry_space_group_name_H-M    P1
_symmetry_Int_Tables_number       1
_space_group_crystal_system       triclinic
_cell_length_a                    18.885735
_cell_length_b                    19.20026
_cell_length_c                    18.881465
_cell_angle_alpha                 109.713474
_cell_angle_beta                  109.091228
_cell_angle_gamma                 109.752482
_cell_volume                      5261.01492096

loop_
_atom_site_label
_atom_site_type_symbol
_atom_type_description
_atom_site_fract_x
_atom_site_fract_y
_atom_site_fract_z
_atom_type_partial_charge
C1    C     C_R   0.384761 0.383162 0.502888 0.548212
C2    C     C_R   0.604435 0.340789 0.605820 -0.090206
C3    C     C_2   0.259400 0.185152 0.509528 -0.157401
C4    C     C_R   0.619300 0.501349 0.618733 0.565296
C5    C     C_2   0.181847 0.178129 0.492431 -0.112302
C6    C     C_2   0.320354 0.245917 0.497577 -0.158759
C7    C     C_2   0.323449 0.320294 0.510971 -0.111903
C8    C     C_2   0.175055 0.493321 0.248087 -0.156425
C9    C     C_2   0.185019 0.508493 0.186692 -0.114238
C10   C     C_2   0.248197 0.505574 0.321219 -0.156709
C11   C     C_2   0.309795 0.490734 0.311400 -0.113366
C12   C     C_R   0.754545 0.578611 0.763846 0.017151
C13   C     C_2   0.741282 0.817058 0.492614 -0.157770
C14   C     C_2   0.817558 0.821637 0.507081 -0.108405
C15   C     C_2   0.679481 0.755969 0.503611 -0.147340
C16   C     C_R   0.611930 0.616413 0.493928 0.584793
C17   C     C_2   0.671843 0.678982 0.484049 -0.090716
C18   C     C_R   0.996201 0.383053 0.878054 0.551739
C19   C     C_R   0.878562 0.498466 0.878139 0.532235
C20   C     C_R   0.997700 0.616987 0.115767 0.545331
C21   C     C_R   0.115577 0.502157 0.116717 0.558853
C22   C     C_R   0.997964 0.115537 0.617343 0.556717
C23   C     C_R   0.810385 0.497708 0.813614 -0.009638
C24   C     C_R   0.117468 0.115667 0.498196 0.555875
C25   C     C_R   0.001783 0.884297 0.382604 0.556332
C26   C     C_R   0.882442 0.884293 0.501776 0.555388
C27   C     C_2   0.924758 0.182656 0.675018 -0.155330
C28   C     C_R   0.380004 0.497622 0.381124 0.551266
C29   C     C_2   0.996281 0.177500 0.686272 -0.110331
C30   C     C_2   0.924194 0.243652 0.747259 -0.159306
C31   C     C_2   0.995499 0.319814 0.808059 -0.111897
C32   C     C_2   0.072976 0.815617 0.322727 -0.158140
C33   C     C_2   0.002273 0.821804 0.313107 -0.112481
C34   C     C_R   0.746144 0.420819 0.734869 0.010440
C35   C     C_2   0.071955 0.754928 0.248848 -0.157806
C36   C     C_2   0.999459 0.680127 0.186732 -0.119223
C37   C     C_R   0.774538 0.661810 0.777355 0.117164
C38   C     C_R   0.824055 0.732496 0.861455 -0.088454
C39   C     C_R   0.863250 0.723649 0.931586 -0.140159
C40   C     C_R   0.859081 0.646016 0.916860 -0.095809
C41   C     C_R   0.807849 0.573768 0.832057 -0.005751
C42   C     C_R   0.678065 0.420979 0.674880 0.007075
C43   C     C_R   0.685585 0.500877 0.686077 -0.015210
C44   C     C_R   0.746448 0.342946 0.715786 -0.091032
C45   C     C_R   0.676137 0.265731 0.643822 -0.117590
C46   C     C_R   0.604125 0.264387 0.590486 -0.119065
Cu1   Cu    Cu3+1 0.500390 0.438990 0.439360 0.949782
Cu2   Cu    Cu3+1 0.499610 0.561010 0.560640 0.964757
Cu3   Cu    Cu3+1 0.935830 0.439030 0.996840 0.938042
Cu4   Cu    Cu3+1 0.057850 0.561040 0.996790 0.946992
Cu5   Cu    Cu3+1 0.061410 0.000010 0.561410 0.953493
Cu6   Cu    Cu3+1 0.938590 0.999990 0.438590 0.941830
H1    H     H_    0.547924 0.203965 0.536653 0.108342
H2    H     H_    0.836619 0.783245 0.531278 0.129843
H3    H     H_    0.637758 0.773196 0.524615 0.147148
H4    H     H_    0.707308 0.658622 0.454758 0.116401
H5    H     H_    0.864546 0.138588 0.613537 0.143495
H6    H     H_    0.053672 0.214979 0.750181 0.110287
H7    H     H_    0.863412 0.227638 0.747626 0.136390
H8    H     H_    0.053531 0.339737 0.802380 0.110332
H9    H     H_    0.133661 0.858850 0.383854 0.144495
H10   H     H_    0.944516 0.785291 0.249580 0.107271
H11   H     H_    0.132502 0.769965 0.248160 0.146703
H12   H     H_    0.161144 0.214098 0.465404 0.110538
H13   H     H_    0.941379 0.660629 0.192339 0.109454
H14   H     H_    0.838319 0.795844 0.871935 0.138527
H15   H     H_    0.902868 0.778696 0.996548 0.120955
H16   H     H_    0.895686 0.642919 0.972210 0.134052
H17   H     H_    0.800202 0.340529 0.756474 0.128369
H18   H     H_    0.676589 0.206532 0.630828 0.108031
H19   H     H_    0.545513 0.335288 0.563861 0.134924
H20   H     H_    0.276366 0.142516 0.527415 0.143731
H21   H     H_    0.365757 0.231114 0.481753 0.135209
H22   H     H_    0.284978 0.339477 0.536221 0.109331
H23   H     H_    0.113946 0.476717 0.247820 0.148078
H24   H     H_    0.248554 0.534083 0.192058 0.107635
H25   H     H_    0.248446 0.522162 0.382321 0.147258
H26   H     H_    0.304527 0.465178 0.247913 0.109736
H27   H     H_    0.726260 0.862061 0.477923 0.142419
I1    I     I_    0.781930 0.694896 0.683628 -0.373755
O1    O     O_R   0.411310 0.359450 0.448800 -0.512448
O2    O     O_R   0.947570 0.089010 0.536620 -0.505701
O3    O     O_R   0.140880 0.089030 0.551840 -0.505436
O4    O     O_R   0.410660 0.462490 0.551220 -0.510079
O5    O     O_R   0.037150 0.089020 0.448130 -0.506257
O6    O     O_R   0.052430 0.910990 0.463380 -0.504342
O7    O     O_R   0.948700 0.910980 0.359670 -0.507431
O8    O     O_R   0.962850 0.910980 0.551870 -0.499755
O9    O     O_R   0.859120 0.910970 0.448160 -0.506515
O10   O     O_R   0.589930 0.448490 0.538390 -0.511350
O11   O     O_R   0.589280 0.551530 0.640800 -0.490010
O12   O     O_R   0.048900 0.462510 0.908320 -0.504520
O13   O     O_R   0.589340 0.537510 0.448780 -0.501090
O14   O     O_R   0.588690 0.640550 0.551200 -0.481889
O15   O     O_R   0.410720 0.448470 0.359200 -0.508740
O16   O     O_R   0.410070 0.551510 0.461610 -0.510134
O17   O     O_R   0.945860 0.359480 0.908360 -0.507436
O18   O     O_R   0.855710 0.448510 0.907250 -0.518664
O19   O     O_R   0.958760 0.551540 0.907200 -0.501979
O20   O     O_R   0.944780 0.537560 0.085320 -0.506649
O21   O     O_R   0.047820 0.640590 0.085270 -0.508633
O22   O     O_R   0.034920 0.448530 0.086440 -0.499333
O23   O     O_R   0.137970 0.551560 0.086390 -0.508678
O24   O     O_R   0.051300 0.089020 0.640330 -0.504135

loop_
_geom_bond_atom_site_label_1
_geom_bond_atom_site_label_2
_ccdc_geom_bond_type
C13   H27   S    
C22   C29   S    
C27   C29   D    
C35   C36   D    
C34   C42   A    
C3    C6    S    
C45   C46   A    
C2    C46   A    
C26   O9    A    
Cu4   O19   S    
C37   C38   A    
Cu2   O14   S    
C28   O15   A    
C22   O2    A    
Cu6   O5    S    
C24   O3    A    
C32   H9    S    
C33   H10   S    
C12   C43   A    
C38   C39   A    
C1    O1    A    
C25   O7    A    
C22   O24   A    
C12   C37   A    
Cu3   O18   S    
C10   H25   S    
C38   H14   S    
C8    C9    D    
Cu2   O11   S    
C9    H24   S    
C24   O5    A    
C4    O11   A    
Cu4   O23   S    
C13   C14   D    
C27   C30   S    
Cu6   O9    S    
Cu5   O6    S    
C19   O18   A    
C7    H22   S    
C4    O10   A    
Cu1   O13   S    
C37   I1    S    
Cu5   Cu6   S    
C32   C35   S    
C34   C44   A    
C27   H5    S    
Cu3   O22   S    
C19   O19   A    
C36   H13   S    
C16   C17   S    
C20   O21   A    
Cu5   O24   S    
C8    H23   S    
Cu2   O4    S    
C5    H12   S    
C1    O4    A    
C21   O23   A    
C31   H8    S    
C19   C23   S    
C12   C41   A    
C11   H26   S    
Cu1   Cu2   S    
C20   O20   A    
C23   C34   A    
C30   H7    S    
C16   O13   A    
C44   H17   S    
C14   C26   S    
Cu6   O2    S    
C17   H4    S    
C21   O22   A    
Cu4   O12   S    
C40   C41   A    
C18   O17   A    
C15   H3    S    
C13   C15   S    
Cu1   O10   S    
C42   C43   A    
C2    H19   S    
Cu5   O3    S    
C39   C40   A    
C44   C45   A    
C6    H21   S    
C15   C17   D    
Cu2   O16   S    
C14   H2    S    
C45   H18   S    
C1    C7    S    
C39   H15   S    
Cu6   O7    S    
C3    C5    D    
Cu5   O8    S    
C6    C7    D    
C4    C43   S    
C16   O14   A    
C23   C41   A    
C28   O16   A    
C18   O12   A    
C32   C33   D    
C3    H20   S    
Cu3   O20   S    
C9    C21   S    
C30   C31   D    
C5    C24   S    
C11   C28   S    
C2    C42   A    
C46   H1    S    
C25   O6    A    
Cu1   O1    S    
C10   C11   D    
Cu3   O17   S    
C20   C36   S    
C26   O8    A    
C29   H6    S    
Cu4   O21   S    
C8    C10   S    
Cu3   Cu4   S    
C40   H16   S    
Cu1   O15   S    
C35   H11   S    
C18   C31   S    
C25   C33   S    
