data_mof_unit_17119.cif
_audit_creation_date              2012-12-10T17:48:16-0500
_audit_creation_method            fapswitch 2.2
_symmetry_space_group_name_H-M    P1
_symmetry_Int_Tables_number       1
_space_group_crystal_system       triclinic
_cell_length_a                    13.861638
_cell_length_b                    14.886609
_cell_length_c                    14.498323
_cell_angle_alpha                 115.282095
_cell_angle_beta                  108.39957
_cell_angle_gamma                 73.332774
_cell_volume                      2526.30379867

loop_
_atom_site_label
_atom_site_type_symbol
_atom_type_description
_atom_site_fract_x
_atom_site_fract_y
_atom_site_fract_z
_atom_type_partial_charge
C1    C     C_R   0.514210 0.117985 0.689688 0.791300
C2    C     C_R   0.485578 0.882029 0.310278 0.789846
C3    C     C_R   0.512573 0.359662 0.927616 0.047771
C4    C     C_R   0.486083 0.640643 0.071999 0.047568
C5    C     C_R   0.504850 0.328070 0.004071 0.034383
C6    C     C_R   0.492742 0.672449 0.995309 0.034687
C7    C     C_R   0.510044 0.463783 0.951570 0.038512
C8    C     C_R   0.488430 0.536577 0.047905 0.038386
C9    C     C_R   0.463856 0.504038 0.114846 -0.206948
C10   C     C_R   0.534009 0.496552 0.884417 -0.206770
C11   C     C_R   0.467796 0.402132 0.092845 0.128883
C12   C     C_R   0.529344 0.598570 0.906204 0.128857
C13   C     C_R   0.289259 0.332468 0.392670 0.083665
C14   C     C_R   0.713457 0.665189 0.596954 0.086338
C15   C     C_R   0.334461 0.231382 0.383048 0.326003
C16   C     C_R   0.667074 0.767271 0.612761 0.336137
C17   C     C_R   0.498495 0.280102 0.478788 0.255044
C18   C     C_R   0.502041 0.719451 0.520934 0.252289
C19   C     C_R   0.460305 0.376248 0.468174 -0.077659
C20   C     C_R   0.541335 0.622571 0.529682 -0.074316
C21   C     C_R   0.352428 0.406597 0.445305 0.079273
C22   C     C_R   0.649424 0.591875 0.549588 0.071284
C23   C     C_R   0.686726 0.987213 0.504298 0.807994
C24   C     C_R   0.313269 0.012776 0.495682 0.805316
C25   C     C_R   0.523166 0.447370 0.488488 0.102536
C26   C     C_R   0.478869 0.551427 0.510411 0.103140
C27   C     C_R   0.375284 0.581420 0.518674 -0.258675
C28   C     C_R   0.627127 0.417269 0.481849 -0.255932
C29   C     C_R   0.311506 0.510449 0.479740 -0.177916
C30   C     C_R   0.690710 0.488112 0.519930 -0.179669
C31   C     C_1   0.207889 0.020053 0.493363 -0.187850
C32   C     C_1   0.792110 0.979940 0.506629 -0.189888
C33   C     C_2   0.013201 0.033403 0.489085 -0.163103
C34   C     C_2   0.986806 0.966599 0.510946 -0.162605
C35   C     C_1   0.881013 0.973436 0.508726 0.001855
C36   C     C_1   0.118991 0.026559 0.491286 0.001559
C37   C     C_R   0.518395 0.184655 0.801847 -0.120610
C38   C     C_R   0.480755 0.815472 0.198008 -0.120198
C39   C     C_R   0.531249 0.223272 0.986765 0.123154
C40   C     C_R   0.465672 0.777255 0.012691 0.123059
C41   C     C_R   0.521722 0.151825 0.882184 0.160528
C42   C     C_R   0.475686 0.848645 0.117340 0.160601
C43   C     C_R   0.519042 0.286518 0.827849 -0.291249
C44   C     C_R   0.480837 0.713476 0.172134 -0.292011
Cu1   Cu    Cu3+1 0.526370 0.916390 0.524860 0.921625
Cu2   Cu    Cu3+1 0.473630 0.083610 0.475140 0.921268
H1    H     H_    0.044384 0.906573 0.530581 0.151272
H2    H     H_    0.955622 0.093428 0.469449 0.151077
H3    H     H_    0.341729 0.659938 0.552348 0.154042
H4    H     H_    0.661305 0.338697 0.450227 0.153807
H5    H     H_    0.485030 0.690630 0.234469 0.169157
H6    H     H_    0.516445 0.308883 0.765715 0.168250
H7    H     H_    0.435513 0.557230 0.183027 0.149721
H8    H     H_    0.562019 0.443636 0.815993 0.149575
H9    H     H_    0.230900 0.538371 0.482030 0.151499
H10   H     H_    0.772249 0.459944 0.522786 0.155259
N1    N     N_R   0.433980 0.209250 0.437830 -0.187850
N2    N     N_R   0.566020 0.790750 0.562170 -0.189766
O1    O     O_R   0.534760 0.019630 0.662610 -0.583289
O2    O     O_R   0.465240 0.980370 0.337390 -0.583998
O3    O     O_R   0.490220 0.160840 0.620610 -0.580297
O4    O     O_R   0.509780 0.839160 0.379390 -0.580195
O5    O     O_R   0.663260 0.919400 0.523940 -0.563031
O6    O     O_R   0.336740 0.080600 0.476060 -0.565420
O7    O     O_R   0.618720 0.060610 0.481950 -0.574933
O8    O     O_R   0.381280 0.939390 0.518050 -0.574886
C45   C     C_3   0.175765 0.358400 0.342817 -0.897053
H11   H     H_    0.158246 0.308804 0.259120 0.235166
H12   H     H_    0.126665 0.349085 0.384461 0.240842
H13   H     H_    0.152346 0.435615 0.341976 0.228432
C46   C     C_3   0.829384 0.633607 0.632284 -0.896023
H14   H     H_    0.873290 0.696363 0.674578 0.240919
H15   H     H_    0.844312 0.592781 0.685438 0.231845
H16   H     H_    0.862540 0.583368 0.563002 0.232166
C47   C     C_3   0.420835 0.377218 0.159486 -0.427343
C48   C     C_3   0.308694 0.430521 0.160664 -0.816731
H17   H     H_    0.303734 0.512922 0.205453 0.242422
H18   H     H_    0.262216 0.416861 0.079470 0.255750
H19   H     H_    0.274941 0.400380 0.199270 0.249484
H20   H     H_    0.418269 0.295834 0.129312 0.205727
H21   H     H_    0.467864 0.398931 0.241058 0.210188
C49   C     C_3   0.575006 0.623860 0.838866 -0.427156
C50   C     C_3   0.687177 0.571125 0.836850 -0.816995
H22   H     H_    0.734325 0.585084 0.917838 0.256241
H23   H     H_    0.692495 0.488667 0.792270 0.242214
H24   H     H_    0.719867 0.601483 0.797575 0.243880
H25   H     H_    0.527431 0.601944 0.757534 0.209940
H26   H     H_    0.577025 0.705349 0.868833 0.205851
C51   C     C_3   0.487757 0.955670 0.141009 -0.399871
C52   C     C_3   0.598294 0.972989 0.197577 -0.795283
H27   H     H_    0.624514 0.955050 0.269273 0.259277
H28   H     H_    0.651727 0.924674 0.144765 0.237018
H29   H     H_    0.602662 0.053226 0.220058 0.234802
H30   H     H_    0.471585 0.971847 0.069420 0.197621
H31   H     H_    0.430901 0.012791 0.185177 0.217334
C53   C     C_3   0.508009 0.045261 0.858176 -0.400224
C54   C     C_3   0.397363 0.029088 0.800634 -0.796470
H32   H     H_    0.343471 0.078593 0.852607 0.237188
H33   H     H_    0.372836 0.046308 0.728597 0.258930
H34   H     H_    0.391682 0.949282 0.778586 0.234723
H35   H     H_    0.564855 0.987467 0.814527 0.215790
H36   H     H_    0.522798 0.029314 0.929680 0.198046
C55   C     C_3   0.586561 0.189163 0.078913 -0.449381
C56   C     C_3   0.695735 0.130384 0.069644 -0.835711
H37   H     H_    0.694662 0.058491 0.000852 0.244329
H38   H     H_    0.741332 0.176808 0.062877 0.256616
H39   H     H_    0.734830 0.112143 0.140799 0.240347
H40   H     H_    0.597388 0.254870 0.153664 0.211805
H41   H     H_    0.541061 0.143871 0.087383 0.193673
C57   C     C_3   0.409041 0.811300 0.920697 -0.449000
C58   C     C_3   0.299723 0.869173 0.930667 -0.836209
H42   H     H_    0.255078 0.822061 0.937654 0.256595
H43   H     H_    0.300567 0.940964 0.999584 0.243838
H44   H     H_    0.259751 0.887500 0.859687 0.240242
H45   H     H_    0.453564 0.857170 0.911795 0.193668
H46   H     H_    0.398246 0.745582 0.845957 0.211460
C59   C     C_3   0.396333 0.735603 0.451113 -0.775815
H47   H     H_    0.370031 0.663461 0.396752 0.191756
H48   H     H_    0.338592 0.783362 0.498968 0.220514
H49   H     H_    0.395604 0.768464 0.396287 0.256422
C60   C     C_3   0.603521 0.264554 0.549981 -0.776090
H50   H     H_    0.662129 0.216890 0.503174 0.219868
H51   H     H_    0.629104 0.337000 0.604491 0.190878
H52   H     H_    0.603801 0.231819 0.604664 0.256396
C61   C     C_3   0.731013 0.847984 0.685307 -0.807250
H53   H     H_    0.686868 0.924516 0.704069 0.254729
H54   H     H_    0.764307 0.838387 0.761671 0.189419
H55   H     H_    0.794488 0.843055 0.651108 0.228925
C62   C     C_3   0.269813 0.150572 0.312239 -0.797483
H56   H     H_    0.246374 0.150718 0.231709 0.182131
H57   H     H_    0.309808 0.073863 0.303348 0.259919
H58   H     H_    0.199776 0.164456 0.341388 0.227306

loop_
_geom_bond_atom_site_label_1
_geom_bond_atom_site_label_2
_ccdc_geom_bond_type
C7    C10   A    
C37   C43   A    
C53   H36   S    
C27   C29   A    
C14   C46   S    
C58   H42   S    
C48   H19   S    
C4    C8    A    
C56   H38   S    
C54   H32   S    
C7    C8    A    
C39   C41   A    
Cu1   Cu2   S    
C25   C28   A    
C3    C43   A    
C26   C27   A    
C20   C26   A    
C19   C21   A    
C48   H18   S    
C5    C11   A    
C3    C7    A    
C1    O1    A    
C6    C12   A    
C2    O2    A    
C43   H6    S    
C41   C53   S    
C49   H25   S    
Cu1   O4    S    
C33   C36   S    
C34   C35   S    
C51   H30   S    
C57   C58   S    
C60   H52   S    
C28   H4    S    
C18   N2    A    
C8    C9    A    
C61   H55   S    
C55   H40   S    
C47   H20   S    
C18   C20   A    
C24   O8    A    
C62   H58   S    
C40   C42   A    
C24   O6    A    
C53   H35   S    
C15   N1    A    
C10   H8    S    
C56   H37   S    
C54   H33   S    
C23   O5    A    
Cu1   N2    S    
Cu2   O3    S    
C12   C49   S    
C45   H11   S    
C32   C35   T    
C48   H17   S    
Cu2   O7    S    
C4    C6    A    
C59   H49   S    
C46   H15   S    
C47   H21   S    
C40   C57   S    
C29   H9    S    
C25   C26   A    
C30   H10   S    
Cu1   O5    S    
Cu2   O6    S    
C45   H12   S    
C51   H31   S    
C47   C48   S    
C38   C44   A    
C2    C38   S    
C52   H28   S    
C50   H22   S    
C15   C62   S    
C53   C54   S    
C33   C34   D    
C13   C21   A    
C58   H43   S    
C16   N2    A    
C9    C11   A    
C18   C59   S    
C60   H50   S    
C10   C12   A    
C44   H5    S    
C17   C60   S    
C50   H23   S    
C20   C22   A    
C13   C15   A    
Cu2   N1    S    
C61   H53   S    
C14   C16   A    
C9    H7    S    
C57   H46   S    
C55   C56   S    
C54   H34   S    
C52   H29   S    
C62   H56   S    
C16   C61   S    
C5    C39   A    
Cu1   O1    S    
C22   C30   A    
Cu2   O2    S    
C13   C45   S    
C3    C5    A    
C1    O3    A    
C46   H16   S    
C39   C55   S    
C1    C37   S    
C4    C44   A    
C55   H41   S    
C42   C51   S    
C23   C32   S    
C14   C22   A    
C59   H48   S    
C24   C31   S    
C46   H14   S    
C11   C47   S    
C59   H47   S    
C23   O7    A    
C52   H27   S    
C21   C29   A    
C49   H26   S    
C28   C30   A    
C17   C19   A    
C58   H44   S    
C6    C40   A    
C37   C41   A    
C19   C25   A    
C60   H51   S    
C38   C42   A    
C27   H3    S    
C50   H24   S    
C49   C50   S    
Cu1   O8    S    
C61   H54   S    
C33   H2    S    
C31   C36   T    
C34   H1    S    
C45   H13   S    
C51   C52   S    
C57   H45   S    
C56   H39   S    
C2    O4    A    
C17   N1    A    
C62   H57   S    
