data_mof_unit_44569.cif
_audit_creation_date              2012-12-10T19:10:04-0500
_audit_creation_method            fapswitch 2.2
_symmetry_space_group_name_H-M    P1
_symmetry_Int_Tables_number       1
_space_group_crystal_system       triclinic
_cell_length_a                    10.827733
_cell_length_b                    10.825904
_cell_length_c                    9.538881
_cell_angle_alpha                 90.005587
_cell_angle_beta                  90.100072
_cell_angle_gamma                 90.140593
_cell_volume                      1118.14253414

loop_
_atom_site_label
_atom_site_type_symbol
_atom_type_description
_atom_site_fract_x
_atom_site_fract_y
_atom_site_fract_z
_atom_type_partial_charge
C1    C     C_R   0.501710 0.262362 0.499934 0.787258
C2    C     C_R   0.249213 0.736653 0.051293 -0.087851
C3    C     C_R   0.933368 0.548467 0.389065 -0.238397
C4    C     C_R   0.871622 0.492715 0.501299 -0.079806
C5    C     C_R   0.938870 0.440829 0.614120 0.004474
C6    C     C_R   0.066965 0.448447 0.612236 -0.224239
C7    C     C_R   0.128370 0.504034 0.499738 -0.064450
C8    C     C_R   0.061139 0.555688 0.387517 0.008116
C9    C     C_R   0.898370 0.417673 0.871036 -0.187338
C10   C     C_R   0.841918 0.357397 0.983742 -0.133755
C11   C     C_R   0.768476 0.253194 0.960056 -0.099170
C12   C     C_R   0.262336 0.502409 0.499840 0.817120
C13   C     C_R   0.751965 0.208749 0.823760 -0.114715
C14   C     C_R   0.807068 0.269561 0.710482 -0.082438
C15   C     C_R   0.879841 0.375386 0.733307 0.125680
C16   C     C_R   0.505993 0.063533 0.625157 0.028769
C17   C     C_R   0.512292 0.129332 0.499754 -0.051140
C18   C     C_R   0.533751 0.064599 0.374334 -0.214207
C19   C     C_R   0.533154 0.935756 0.374207 -0.225906
C20   C     C_R   0.511063 0.870822 0.499390 -0.042344
C21   C     C_R   0.504071 0.936608 0.624745 0.039338
C22   C     C_3   0.412022 0.931270 0.741373 0.219383
C23   C     C_R   0.501407 0.737648 0.499813 0.834997
C24   C     C_3   0.415466 0.071646 0.742720 -0.478704
C25   C     C_R   0.539215 0.601544 0.073507 0.268338
C26   C     C_R   0.448334 0.405669 0.074307 -0.075584
C27   C     C_R   0.448279 0.405724 0.925439 -0.079164
C28   C     C_R   0.537950 0.602061 0.926247 0.254509
C29   C     C_3   0.660871 0.663448 0.918600 -0.491811
C30   C     C_3   0.664035 0.660039 0.077770 -0.511269
C31   C     C_R   0.737650 0.496124 0.500420 0.784393
C32   C     C_R   0.247855 0.790422 0.184413 -0.133900
C33   C     C_R   0.184054 0.732990 0.293731 -0.102142
C34   C     C_R   0.121422 0.621151 0.270025 0.118151
C35   C     C_R   0.122169 0.568296 0.135689 -0.162181
C36   C     C_R   0.186159 0.626002 0.026614 -0.113878
Cu1   Cu    Cu3+1 0.499990 0.499980 0.640670 0.961641
Cu2   Cu    Cu3+1 0.500010 0.500020 0.359330 0.946581
H1    H     H_    0.300122 0.780109 0.967704 0.161392
H2    H     H_    0.724898 0.206498 0.047353 0.117421
H3    H     H_    0.696879 0.126820 0.806187 0.121629
H4    H     H_    0.545687 0.112843 0.275781 0.150525
H5    H     H_    0.544391 0.887772 0.275593 0.147273
H6    H     H_    0.450802 0.888779 0.837797 0.083436
H7    H     H_    0.327555 0.116763 0.710991 0.227079
H8    H     H_    0.458301 0.109525 0.839604 0.146812
H9    H     H_    0.408122 0.328354 0.129708 0.139051
H10   H     H_    0.297125 0.875950 0.203149 0.137791
H11   H     H_    0.407578 0.328856 0.869801 0.137236
H12   H     H_    0.732113 0.604947 0.868611 0.232633
H13   H     H_    0.654268 0.758618 0.875559 0.183413
H14   H     H_    0.735767 0.596906 0.119610 0.209894
H15   H     H_    0.662608 0.753368 0.125922 0.186765
H16   H     H_    0.184980 0.774322 0.397083 0.169278
H17   H     H_    0.076101 0.481035 0.116751 0.121017
H18   H     H_    0.188233 0.584232 0.923508 0.150454
H19   H     H_    0.881919 0.590722 0.304317 0.147676
H20   H     H_    0.119199 0.407065 0.697218 0.148752
H21   H     H_    0.954210 0.498980 0.890493 0.132462
H22   H     H_    0.854967 0.391496 0.089423 0.130151
N1    N     N_R   0.500790 0.500930 0.147930 -0.180144
N2    N     N_R   0.500790 0.500890 0.852020 -0.177656
O1    O     O_R   0.500000 0.319640 0.618810 -0.583543
O2    O     O_R   0.500010 0.319680 0.381230 -0.597346
O3    O     O_R   0.319640 0.499990 0.618790 -0.577321
O4    O     O_R   0.319650 0.500030 0.381210 -0.571232
O5    O     O_R   0.499990 0.680320 0.618770 -0.568300
O6    O     O_R   0.500000 0.680360 0.381190 -0.590126
O7    O     O_R   0.680350 0.499970 0.618790 -0.574324
O8    O     O_R   0.680360 0.500010 0.381210 -0.590719
H23   H     H_    0.793188 0.234335 0.605319 0.099901
Cl1   Cl    Cl    0.265020 0.871532 0.687591 -0.675691

loop_
_geom_bond_atom_site_label_1
_geom_bond_atom_site_label_2
_ccdc_geom_bond_type
C23   O6    A    
C10   H22   S    
Cu2   O8    S    
C28   N2    A    
C16   C21   A    
C36   H18   S    
C27   N2    A    
Cu1   O7    S    
C29   C30   S    
C11   C13   A    
C12   O3    A    
C6    H20   S    
C1    C17   S    
C19   C20   A    
C20   C23   S    
Cu2   N1    S    
C24   H8    S    
C32   C33   A    
C13   H3    S    
C33   C34   A    
C9    C15   A    
C7    C8    A    
C16   C24   S    
C8    C34   S    
C21   C22   S    
C25   C28   A    
C32   H10   S    
C26   C27   A    
Cu1   Cu2   S    
C30   H14   S    
C26   H9    S    
C27   H11   S    
C5    C6    A    
C1    O1    A    
C9    C10   A    
C22   Cl1   S    
C28   C29   S    
Cu1   O1    S    
C26   N1    A    
C19   H5    S    
C17   C18   A    
C6    C7    A    
Cu2   O2    S    
C29   H12   S    
C18   H4    S    
C3    C8    A    
Cu1   O5    S    
C11   H2    S    
C30   H15   S    
C22   C24   S    
C7    C12   S    
C5    C15   S    
C4    C31   S    
C16   C17   A    
C10   C11   A    
C24   H7    S    
C29   H13   S    
C35   H17   S    
C3    C4    A    
C1    O2    A    
C3    H19   S    
C31   O7    A    
C2    C36   A    
C20   C21   A    
C2    C32   A    
C34   C35   A    
C14   H23   S    
C23   O5    A    
C33   H16   S    
C18   C19   A    
Cu1   N2    S    
C14   C15   A    
C25   C30   S    
C25   N1    A    
C13   C14   A    
C12   O4    A    
C2    H1    S    
C31   O8    A    
C22   H6    S    
Cu2   O4    S    
Cu2   O6    S    
C4    C5    A    
C9    H21   S    
C35   C36   A    
Cu1   O3    S    
