data_mof_unit_20219.cif
_audit_creation_date              2012-12-10T20:27:11-0500
_audit_creation_method            fapswitch 2.2
_symmetry_space_group_name_H-M    P1
_symmetry_Int_Tables_number       1
_space_group_crystal_system       triclinic
_cell_length_a                    10.508584
_cell_length_b                    10.680137
_cell_length_c                    9.916878
_cell_angle_alpha                 89.486533
_cell_angle_beta                  101.815573
_cell_angle_gamma                 90.965813
_cell_volume                      1089.24754459

loop_
_atom_site_label
_atom_site_type_symbol
_atom_type_description
_atom_site_fract_x
_atom_site_fract_y
_atom_site_fract_z
_atom_type_partial_charge
C1    C     C_R   0.498930 0.260289 0.499930 0.898043
C2    C     C_R   0.572001 0.586132 0.084735 0.218977
C3    C     C_R   0.571565 0.584825 0.941171 -0.029743
C4    C     C_R   0.257693 0.495987 0.444051 0.805298
C5    C     C_R   0.437760 0.406359 0.916799 0.034185
C6    C     C_3   0.295774 0.373384 0.882663 0.630197
C7    C     C_3   0.294793 0.377318 0.035566 0.467106
C8    C     C_R   0.501372 0.739534 0.499634 0.942840
C9    C     C_R   0.741697 0.493150 0.555229 0.795907
C10   C     C_2   0.118513 0.473911 0.415909 0.512602
C11   C     C_2   0.068740 0.402249 0.503886 -0.198048
C12   C     C_R   0.504349 0.128299 0.498058 -0.311875
C13   C     C_2   0.880065 0.470798 0.580190 0.516271
C14   C     C_2   0.930088 0.395855 0.495771 0.059379
C15   C     C_R   0.580405 0.064738 0.608027 0.010569
C16   C     C_3   0.850294 0.310314 0.388841 -0.774611
C17   C     C_3   0.647569 0.689846 0.167817 -0.746858
C18   C     C_3   0.266602 0.243179 0.819619 -0.988921
C19   C     C_R   0.445778 0.063579 0.377923 0.640824
C20   C     C_R   0.448773 0.934695 0.377569 -0.285328
C21   C     C_R   0.508436 0.871356 0.497222 -0.180027
C22   C     C_R   0.581393 0.936714 0.608140 0.043288
C23   C     C_3   0.583879 0.927502 0.759089 -0.511214
C24   C     C_3   0.583320 0.069644 0.759095 0.528710
C25   C     C_R   0.436463 0.407662 0.058812 -0.033764
F1    F     F_    0.699159 0.120939 0.830617 -0.615535
F2    F     F_    0.222230 0.467035 0.808733 -0.541625
F3    F     F_    0.223522 0.476366 0.068361 -0.534699
F4    F     F_    0.959144 0.534678 0.683700 -0.583557
F5    F     F_    0.041673 0.525785 0.302638 -0.603837
F6    F     F_    0.377406 0.123516 0.265518 -0.678747
H1    H     H_    0.626073 0.654759 0.896008 0.144222
H2    H     H_    0.799847 0.365073 0.298550 0.283530
H3    H     H_    0.709424 0.653897 0.263241 0.274703
H4    H     H_    0.714027 0.738236 0.109707 0.216800
H5    H     H_    0.579955 0.761484 0.190309 0.241162
H6    H     H_    0.160857 0.222123 0.804901 0.283005
H7    H     H_    0.295714 0.239410 0.718414 0.244165
H8    H     H_    0.320081 0.170022 0.887915 0.218913
H9    H     H_    0.272955 0.286900 0.082799 0.123274
H10   H     H_    0.130203 0.358100 0.591139 0.182576
H11   H     H_    0.397206 0.884747 0.287579 0.203465
H12   H     H_    0.493537 0.884588 0.782267 0.183228
H13   H     H_    0.676000 0.887152 0.817180 0.237643
H14   H     H_    0.495404 0.110452 0.785541 0.077190
H15   H     H_    0.913886 0.242576 0.351014 0.257557
H16   H     H_    0.778545 0.255694 0.434439 0.215686
N1    N     N_R   0.499160 0.499140 0.142600 -0.073920
N2    N     N_R   0.499160 0.499180 0.856960 -0.086398
O1    O     O_R   0.500020 0.316790 0.614700 -0.629243
O2    O     O_R   0.500000 0.316760 0.385350 -0.570811
O3    O     O_R   0.317820 0.500020 0.571850 -0.587526
O4    O     O_R   0.317800 0.499980 0.342510 -0.520983
O5    O     O_R   0.500000 0.683240 0.614650 -0.609925
O6    O     O_R   0.499980 0.683210 0.385300 -0.623938
O7    O     O_R   0.682200 0.500020 0.657490 -0.566324
O8    O     O_R   0.682180 0.499980 0.428150 -0.657417
Zn1   Zn    Zn3+2 0.500010 0.500020 0.653140 1.032605
Zn2   Zn    Zn3+2 0.499990 0.499980 0.346860 1.020956

loop_
_geom_bond_atom_site_label_1
_geom_bond_atom_site_label_2
_ccdc_geom_bond_type
C20   H11   S    
C18   H8    S    
C6    C7    S    
C17   H5    S    
O6    Zn2   S    
C4    O4    A    
C1    O1    A    
C10   F5    S    
C6    F2    S    
C7    C25   S    
C12   C15   A    
C7    H9    S    
C19   F6    S    
C2    C3    A    
O4    Zn2   S    
C9    O7    A    
C21   C22   A    
C2    C17   S    
C1    O2    A    
C25   N1    A    
C5    N2    A    
C5    C6    S    
C1    C12   S    
O3    Zn1   S    
C4    O3    A    
C5    C25   A    
C24   H14   S    
C12   C19   A    
C13   F4    S    
C15   C24   S    
C18   H6    S    
O7    Zn1   S    
C11   H10   S    
C9    O8    A    
C10   C11   D    
C3    N2    A    
C3    H1    S    
C6    C18   S    
C11   C14   S    
C14   C16   S    
O8    Zn2   S    
O2    Zn2   S    
C17   H3    S    
N2    Zn1   S    
C23   C24   S    
C4    C10   S    
O1    Zn1   S    
C23   H12   S    
C20   C21   A    
C8    O6    A    
N1    Zn2   S    
C16   H2    S    
O5    Zn1   S    
C8    O5    A    
C16   H16   S    
C22   C23   S    
C16   H15   S    
C9    C13   S    
C17   H4    S    
C13   C14   D    
C2    N1    A    
C18   H7    S    
C15   C22   A    
C7    F3    S    
C19   C20   A    
C24   F1    S    
C23   H13   S    
C8    C21   S    
