data_mof_unit_7417.cif
_audit_creation_date              2012-12-11T15:50:32-0500
_audit_creation_method            fapswitch 2.2
_symmetry_space_group_name_H-M    P1
_symmetry_Int_Tables_number       1
_space_group_crystal_system       triclinic
_cell_length_a                    19.00033
_cell_length_b                    11.006731
_cell_length_c                    18.75848
_cell_angle_alpha                 89.681957
_cell_angle_beta                  90.587532
_cell_angle_gamma                 90.263912
_cell_volume                      3922.68217315

loop_
_atom_site_label
_atom_site_type_symbol
_atom_type_description
_atom_site_fract_x
_atom_site_fract_y
_atom_site_fract_z
_atom_type_partial_charge
C1    C     C_R   0.275123 0.035084 0.856530 0.543949
C2    C     C_R   0.765946 0.553147 0.932967 -0.007058
C3    C     C_R   0.228305 0.542647 0.355056 0.545860
C4    C     C_R   0.471572 0.823551 0.647944 0.536125
C5    C     C_R   0.562345 0.819242 0.360087 0.560968
C6    C     C_R   0.971515 0.323610 0.647998 0.545082
C7    C     C_R   0.062168 0.319246 0.360098 0.561491
C8    C     C_R   0.259059 0.635697 0.644908 0.538210
C9    C     C_R   0.739325 0.636262 0.356002 0.564713
C10   C     C_R   0.759005 0.135803 0.644912 0.536439
C11   C     C_R   0.239372 0.136047 0.355898 0.567333
C12   C     C_3   0.434722 0.887252 0.043789 -0.114652
C13   C     C_R   0.734742 0.054463 0.066742 -0.014708
C14   C     C_3   0.477052 0.943003 0.980999 -0.102804
C15   C     C_3   0.934718 0.387251 0.043790 -0.114623
C16   C     C_3   0.977047 0.443002 0.981001 -0.102686
C17   C     C_3   0.418792 0.773683 0.998611 -0.156587
C18   C     C_3   0.544602 0.881826 0.010020 -0.126627
C19   C     C_3   0.918789 0.273681 0.998612 -0.156782
C20   C     C_3   0.044598 0.381828 0.010021 -0.126495
C21   C     C_3   0.461811 0.827827 0.937523 0.054639
C22   C     C_3   0.501800 0.826630 0.071144 0.048241
C23   C     C_3   0.961808 0.327826 0.937524 0.054462
C24   C     C_R   0.265949 0.053138 0.932969 -0.007054
C25   C     C_3   0.001796 0.326631 0.071146 0.048211
C26   C     C_R   0.284180 0.487567 0.028726 0.019854
C27   C     C_R   0.716448 0.486569 0.971772 0.021538
C28   C     C_R   0.784179 0.987565 0.028726 0.019871
C29   C     C_R   0.216449 0.986563 0.971774 0.020873
C30   C     C_R   0.288236 0.497039 0.955039 -0.018301
C31   C     C_R   0.710871 0.502628 0.044594 -0.017739
C32   C     C_R   0.788235 0.997037 0.955039 -0.019023
C33   C     C_R   0.725084 0.035792 0.143467 0.547924
C34   C     C_R   0.210871 0.002625 0.044595 -0.017739
C35   C     C_R   0.178925 0.606155 0.952727 0.071721
C36   C     C_R   0.820873 0.612409 0.046129 0.071304
C37   C     C_R   0.678925 0.106157 0.952727 0.071905
C38   C     C_R   0.320874 0.112403 0.046131 0.071376
C39   C     C_R   0.179425 0.607795 0.027284 -0.150385
C40   C     C_R   0.821215 0.608694 0.971692 -0.138648
C41   C     C_R   0.679425 0.107798 0.027284 -0.150175
C42   C     C_R   0.321219 0.108683 0.971695 -0.138663
C43   C     C_3   0.362068 0.484615 0.036474 -0.274593
C44   C     C_R   0.775120 0.535091 0.856527 0.540916
C45   C     C_3   0.638809 0.475624 0.962285 -0.268386
C46   C     C_3   0.862066 0.984607 0.036474 -0.274433
C47   C     C_3   0.138810 0.975623 0.962286 -0.267986
C48   C     C_3   0.366419 0.487938 0.955566 -0.273334
C49   C     C_3   0.632652 0.497459 0.042030 -0.278084
C50   C     C_3   0.866418 0.987934 0.955566 -0.273262
C51   C     C_3   0.132652 0.997461 0.042030 -0.278311
C52   C     C_R   0.240651 0.569847 0.916735 0.035549
C53   C     C_R   0.758846 0.575303 0.082361 0.044783
C54   C     C_R   0.740650 0.069846 0.916735 0.034807
C55   C     C_R   0.225084 0.535791 0.143467 0.547981
C56   C     C_R   0.258847 0.075301 0.082362 0.044975
C57   C     C_R   0.549602 0.825328 0.436569 -0.012462
C58   C     C_R   0.509923 0.827840 0.580912 -0.005836
C59   C     C_R   0.048589 0.325239 0.436311 -0.005238
C60   C     C_R   0.008730 0.327888 0.580487 0.016102
C61   C     C_R   0.439945 0.817562 0.862422 0.554231
C62   C     C_R   0.530341 0.821117 0.144128 0.558147
C63   C     C_R   0.939943 0.317562 0.862422 0.554582
C64   C     C_R   0.030339 0.321118 0.144129 0.557975
C65   C     C_R   0.532977 0.718780 0.472477 0.025106
C66   C     C_3   0.529028 0.767798 0.965523 -0.114879
C67   C     C_R   0.512837 0.720510 0.542071 0.060296
C68   C     C_R   0.029440 0.219251 0.471391 0.009511
C69   C     C_R   0.008444 0.221737 0.540697 0.053559
C70   C     C_R   0.536258 0.934470 0.549111 -0.165192
C71   C     C_R   0.554688 0.933685 0.476316 -0.155256
C72   C     C_R   0.036942 0.433471 0.549337 -0.160599
C73   C     C_R   0.055087 0.432851 0.476487 -0.153602
C74   C     C_3   0.480228 0.622991 0.453650 -0.255622
C75   C     C_3   0.457838 0.625290 0.530511 -0.231712
C76   C     C_3   0.974175 0.128273 0.451543 -0.267777
C77   C     C_3   0.486478 0.712327 0.027130 -0.126378
C78   C     C_3   0.950208 0.132943 0.527862 -0.246635
C79   C     C_R   0.243668 0.567061 0.428925 0.009778
C80   C     C_R   0.757181 0.585154 0.575016 0.021347
C81   C     C_R   0.743519 0.067034 0.428977 0.009275
C82   C     C_R   0.255895 0.085328 0.575066 0.048333
C83   C     C_R   0.189869 0.623329 0.464708 -0.018896
C84   C     C_R   0.815593 0.609589 0.532444 -0.013102
C85   C     C_R   0.690124 0.125147 0.464426 -0.019722
C86   C     C_R   0.314314 0.112222 0.532842 -0.020799
C87   C     C_R   0.187682 0.627481 0.536790 0.069215
C88   C     C_3   0.029025 0.267799 0.965525 -0.114633
C89   C     C_R   0.809744 0.613335 0.460205 0.035682
C90   C     C_R   0.687905 0.129997 0.536519 0.065134
C91   C     C_R   0.309161 0.114650 0.460506 0.035451
C92   C     C_R   0.294078 0.509382 0.544163 -0.122498
C93   C     C_R   0.685071 0.576080 0.469057 -0.126534
C94   C     C_R   0.793014 0.008385 0.544428 -0.123798
C95   C     C_R   0.185112 0.071292 0.468007 -0.157635
C96   C     C_R   0.295320 0.502450 0.469916 0.059662
C97   C     C_R   0.690145 0.574989 0.543290 0.048585
C98   C     C_R   0.794457 0.001259 0.470237 0.060673
C99   C     C_3   0.986476 0.212327 0.027132 -0.126681
C100  C     C_R   0.189247 0.069005 0.542626 0.060013
C101  C     C_3   0.156333 0.743266 0.452448 -0.237315
C102  C     C_3   0.884423 0.544240 0.529135 -0.229419
C103  C     C_3   0.658461 0.246566 0.451887 -0.233177
C104  C     C_3   0.383954 0.048842 0.530166 -0.232505
C105  C     C_3   0.153346 0.750585 0.532892 -0.033214
C106  C     C_3   0.877157 0.548299 0.448669 -0.037945
C107  C     C_3   0.655309 0.254640 0.532284 -0.026980
C108  C     C_3   0.377121 0.050906 0.449743 -0.038607
C109  C     C_R   0.259068 0.632644 0.850090 0.550809
C110  C     C_R   0.234742 0.554463 0.066741 -0.014766
C111  C     C_R   0.740763 0.634002 0.149597 0.565536
C112  C     C_R   0.759068 0.132643 0.850090 0.549927
C113  C     C_R   0.240763 0.134003 0.149597 0.565186
C114  C     C_R   0.243933 0.581854 0.577203 -0.024763
C115  C     C_R   0.745730 0.592890 0.427431 0.006297
C116  C     C_R   0.743591 0.082540 0.577152 -0.027999
C117  C     C_R   0.245809 0.091861 0.427148 0.014721
C118  C     C_R   0.271498 0.046479 0.646438 0.563575
C119  C     C_R   0.728242 0.042532 0.355107 0.545460
C120  C     C_R   0.771854 0.546173 0.646343 0.543058
Cr1   Cr    Cr6+3 0.229640 0.835880 0.747370 1.015138
Cr2   Cr    Cr6+3 0.614230 0.677220 0.250660 1.002190
Cr3   Cr    Cr6+3 0.885770 0.177220 0.749340 1.004967
Cr4   Cr    Cr6+3 0.114230 0.177220 0.250660 1.002448
Cr5   Cr    Cr6+3 0.770360 0.835880 0.252630 1.006785
Cr6   Cr    Cr6+3 0.729640 0.335880 0.747370 1.007880
Cr7   Cr    Cr6+3 0.270360 0.335880 0.252630 1.007132
Cr8   Cr    Cr6+3 0.387390 0.989720 0.750850 1.007489
Cr9   Cr    Cr6+3 0.612610 0.989720 0.249150 1.020384
Cr10  Cr    Cr6+3 0.887390 0.489720 0.750850 1.007998
Cr11  Cr    Cr6+3 0.112610 0.489720 0.249150 1.019772
Cr12  Cr    Cr6+3 0.385770 0.677220 0.749340 0.999934
H1    H     H_    0.364347 0.738208 0.992804 0.110124
H2    H     H_    0.897758 0.175867 0.533679 0.143708
H3    H     H_    0.505205 0.535963 0.438308 0.146918
H4    H     H_    0.404082 0.662273 0.537474 0.143576
H5    H     H_    0.438948 0.657186 0.416303 0.149748
H6    H     H_    0.469656 0.539636 0.559856 0.161407
H7    H     H_    0.934585 0.164979 0.413154 0.154617
H8    H     H_    0.957943 0.046051 0.557294 0.151428
H9    H     H_    0.336342 0.468397 0.575051 0.152174
H10   H     H_    0.634056 0.565606 0.443977 0.155577
H11   H     H_    0.834689 0.966177 0.575551 0.151492
H12   H     H_    0.597630 0.921302 0.016681 0.123590
H13   H     H_    0.134490 0.059909 0.441966 0.138696
H14   H     H_    0.104073 0.735347 0.425598 0.162326
H15   H     H_    0.881275 0.451357 0.552326 0.145552
H16   H     H_    0.606190 0.240730 0.424868 0.163852
H17   H     H_    0.381797 0.956235 0.553850 0.148882
H18   H     H_    0.193042 0.810487 0.428361 0.116736
H19   H     H_    0.927982 0.602303 0.549656 0.146991
H20   H     H_    0.696187 0.312059 0.427782 0.116152
H21   H     H_    0.426929 0.108443 0.550457 0.147070
H22   H     H_    0.186083 0.824908 0.555290 0.162244
H23   H     H_    0.864344 0.238202 0.992806 0.110295
H24   H     H_    0.917463 0.604876 0.421339 0.164548
H25   H     H_    0.688830 0.328049 0.554750 0.167227
H26   H     H_    0.417182 0.107645 0.422174 0.165814
H27   H     H_    0.395808 0.922946 0.081402 0.163531
H28   H     H_    0.474381 0.036309 0.958810 0.103882
H29   H     H_    0.895803 0.422944 0.081403 0.163559
H30   H     H_    0.974375 0.536308 0.958811 0.103945
H31   H     H_    0.568126 0.725077 0.930621 0.120265
H32   H     H_    0.491828 0.617452 0.046221 0.119361
H33   H     H_    0.068124 0.225077 0.930625 0.121840
H34   H     H_    0.097625 0.421306 0.016683 0.123754
H35   H     H_    0.991827 0.117452 0.046223 0.119399
H36   H     H_    0.134553 0.646450 0.053990 0.140597
H37   H     H_    0.866206 0.647073 0.944564 0.133277
H38   H     H_    0.634554 0.146453 0.053990 0.140560
H39   H     H_    0.366210 0.147060 0.944567 0.133229
H40   H     H_    0.882416 0.899805 0.058880 0.130617
H41   H     H_    0.122869 0.882557 0.946467 0.177127
H42   H     H_    0.382420 0.399815 0.058881 0.130656
H43   H     H_    0.622869 0.382557 0.946466 0.177130
H44   H     H_    0.380822 0.566001 0.065172 0.135748
H45   H     H_    0.536939 0.018917 0.578253 0.159988
H46   H     H_    0.616858 0.548006 0.927795 0.129587
H47   H     H_    0.880823 0.065991 0.065173 0.135739
H48   H     H_    0.116861 0.048006 0.927796 0.131139
H49   H     H_    0.393910 0.567846 0.933284 0.170145
H50   H     H_    0.609571 0.586650 0.055122 0.163392
H51   H     H_    0.893910 0.067841 0.933285 0.170155
H52   H     H_    0.109572 0.086653 0.055121 0.163406
H53   H     H_    0.384031 0.400188 0.932884 0.136600
H54   H     H_    0.611227 0.418070 0.071716 0.137691
H55   H     H_    0.884028 0.900184 0.932882 0.136447
H56   H     H_    0.567527 0.018221 0.450076 0.159510
H57   H     H_    0.111226 0.918073 0.071717 0.137686
H58   H     H_    0.331672 0.352743 0.421234 0.280040
H59   H     H_    0.372245 0.483736 0.395925 0.241166
H60   H     H_    0.626401 0.480813 0.611225 0.245550
H61   H     H_    0.628178 0.632869 0.623053 0.242861
H62   H     H_    0.829914 0.850759 0.421914 0.279831
H63   H     H_    0.871602 0.980735 0.396653 0.242475
H64   H     H_    0.084882 0.030733 0.550020 0.211261
H65   H     H_    0.130292 0.974716 0.615632 0.244935
H66   H     H_    0.083292 0.750906 0.614706 0.249149
H67   H     H_    0.039265 0.517149 0.579107 0.161930
H68   H     H_    0.054960 0.823590 0.541036 0.217995
H69   H     H_    0.831715 0.375964 0.446333 0.221819
H70   H     H_    0.914214 0.384530 0.415371 0.246871
H71   H     H_    0.584708 0.254559 0.613613 0.248538
H72   H     H_    0.559067 0.334545 0.541584 0.234060
H73   H     H_    0.331558 0.878631 0.447771 0.222599
H74   H     H_    0.415101 0.885482 0.419967 0.246763
H75   H     H_    0.077680 0.671871 0.948886 0.198031
H76   H     H_    0.098034 0.571889 0.885455 0.239654
H77   H     H_    0.881500 0.730625 0.105679 0.256449
H78   H     H_    0.068980 0.516989 0.450513 0.158525
H79   H     H_    0.927292 0.650219 0.049479 0.201886
H80   H     H_    0.577680 0.171875 0.948886 0.198099
H81   H     H_    0.598033 0.071889 0.885456 0.238877
H82   H     H_    0.381499 0.230631 0.105674 0.256476
H83   H     H_    0.427294 0.150210 0.049483 0.201882
H84   H     H_    0.997208 0.039249 0.436913 0.140371
N1    N     N_3   0.351589 0.435390 0.438975 -0.644503
N2    N     N_3   0.884809 0.644595 0.084182 -0.625995
N3    N     N_3   0.617466 0.146384 0.913988 -0.603504
N4    N     N_3   0.384809 0.144596 0.084185 -0.625986
N5    N     N_3   0.627530 0.564180 0.584759 -0.643125
N6    N     N_3   0.850379 0.932957 0.439632 -0.645230
N7    N     N_3   0.126522 0.052390 0.584153 -0.606640
N8    N     N_3   0.081239 0.745955 0.559098 -0.659098
N9    N     N_3   0.866029 0.429108 0.415753 -0.624354
N10   N     N_3   0.582962 0.253513 0.557917 -0.656414
N11   N     N_3   0.367069 0.930545 0.417869 -0.623302
N12   N     N_3   0.117466 0.646382 0.913988 -0.603229
O1    O     O_R   0.214300 0.709080 0.827500 -0.472909
O2    O     O_R   0.543340 0.717710 0.330180 -0.523028
O3    O     O_R   0.956660 0.217710 0.669820 -0.504607
O4    O     O_R   0.043340 0.217710 0.330180 -0.521847
O5    O     O_R   0.320590 0.625770 0.672930 -0.512685
O6    O     O_R   0.679410 0.625770 0.327070 -0.531431
O7    O     O_R   0.820590 0.125770 0.672930 -0.512947
O8    O     O_R   0.179410 0.125770 0.327070 -0.529657
O9    O     O_3   0.334270 0.834280 0.749190 -0.273763
O10   O     O_3   0.665730 0.834280 0.250810 -0.276990
O11   O     O_3   0.834270 0.334280 0.749190 -0.272715
O12   O     O_R   0.785700 0.709080 0.172500 -0.506888
O13   O     O_3   0.165730 0.334280 0.250810 -0.276804
O14   O     O_R   0.236190 0.958390 0.823150 -0.490663
O15   O     O_R   0.763810 0.958390 0.176850 -0.496708
O16   O     O_R   0.736190 0.458390 0.823150 -0.492933
O17   O     O_R   0.263810 0.458390 0.176850 -0.496719
O18   O     O_R   0.332090 0.075280 0.831290 -0.535179
O19   O     O_R   0.667910 0.075280 0.168710 -0.526183
O20   O     O_R   0.832090 0.575280 0.831290 -0.535593
O21   O     O_R   0.167910 0.575280 0.168710 -0.526171
O22   O     O_R   0.446280 0.918040 0.826620 -0.506551
O23   O     O_R   0.714300 0.209080 0.827500 -0.472694
O24   O     O_R   0.553720 0.918040 0.173380 -0.491418
O25   O     O_R   0.946280 0.418040 0.826620 -0.505743
O26   O     O_R   0.053720 0.418040 0.173380 -0.491446
O27   O     O_R   0.457080 0.716270 0.831760 -0.525234
O28   O     O_R   0.542920 0.716270 0.168240 -0.528890
O29   O     O_R   0.957080 0.216270 0.831760 -0.522576
O30   O     O_R   0.042920 0.216270 0.168240 -0.529047
O31   O     O_R   0.320980 0.624440 0.823040 -0.528406
O32   O     O_R   0.679020 0.624440 0.176960 -0.509367
O33   O     O_R   0.820980 0.124440 0.823040 -0.529105
O34   O     O_R   0.285700 0.209080 0.172500 -0.507078
O35   O     O_R   0.179020 0.124440 0.176960 -0.509683
O36   O     O_R   0.213880 0.710510 0.665560 -0.530935
O37   O     O_R   0.786120 0.710510 0.334440 -0.524741
O38   O     O_R   0.713880 0.210510 0.665560 -0.529772
O39   O     O_R   0.286120 0.210510 0.334440 -0.525315
O40   O     O_R   0.235800 0.959720 0.673040 -0.516480
O41   O     O_R   0.764200 0.959720 0.326960 -0.516655
O42   O     O_R   0.735800 0.459720 0.673040 -0.520951
O43   O     O_R   0.264200 0.459720 0.326960 -0.516252
O44   O     O_R   0.331670 0.076720 0.669350 -0.520539
O45   O     O_R   0.445900 0.919370 0.676500 -0.507980
O46   O     O_R   0.668330 0.076720 0.330650 -0.527565
O47   O     O_R   0.831670 0.576720 0.669350 -0.516074
O48   O     O_R   0.168330 0.576720 0.330650 -0.527717
O49   O     O_R   0.554100 0.919370 0.323500 -0.498171
O50   O     O_R   0.945900 0.419370 0.676500 -0.510538
O51   O     O_R   0.054100 0.419370 0.323500 -0.500137
O52   O     O_R   0.456660 0.717710 0.669820 -0.513072

loop_
_geom_bond_atom_site_label_1
_geom_bond_atom_site_label_2
_ccdc_geom_bond_type
C34   C56   A    
C19   H23   S    
C3    C79   S    
H59   N1    S    
H81   N3    S    
C3    O48   A    
H69   N9    S    
C10   O7    A    
Cr7   O39   S    
C14   C21   S    
H60   N5    S    
C60   C72   A    
C107  N10   S    
C120  O42   A    
C113  O35   A    
H79   N2    S    
C36   C53   A    
C49   H54   S    
C61   O22   A    
C95   H13   S    
C89   C106  S    
C26   C43   S    
C55   O21   A    
C90   C116  A    
C8    O36   A    
C59   C73   A    
C118  O44   A    
C85   C103  S    
C8    C114  S    
C102  H19   S    
H62   N6    S    
C8    O5    A    
C62   O24   A    
Cr9   O46   S    
C7    O51   A    
C7    C59   S    
C40   H37   S    
C107  H25   S    
Cr6   O42   S    
H70   N9    S    
C99   H35   S    
C7    O4    A    
C74   H5    S    
C27   C31   A    
C28   C32   A    
Cr11  O13   S    
C19   C99   S    
C75   H4    S    
C58   C70   A    
C16   H30   S    
Cr8   O9    S    
C9    O37   A    
C17   C21   S    
Cr6   O23   S    
C109  O31   A    
C19   C23   S    
C13   C33   S    
C6    C60   S    
C16   C20   S    
C54   C112  S    
C57   C71   A    
C78   H2    S    
Cr4   O4    S    
C103  H20   S    
Cr2   O6    S    
C17   H1    S    
C4    O52   A    
C82   C118  S    
C6    O50   A    
H58   N1    S    
C111  O32   A    
Cr9   O19   S    
C66   C77   S    
Cr5   O37   S    
C46   H47   S    
C15   H29   S    
C72   C73   A    
C75   H6    S    
C90   C107  S    
C85   C90   A    
C105  N8    S    
C81   C119  S    
C79   C96   A    
H82   N4    S    
H83   N4    S    
C46   H40   S    
C12   H27   S    
Cr8   O45   S    
C88   C99   S    
Cr4   O8    S    
C2    C40   A    
C58   C67   A    
C81   C98   A    
C14   H28   S    
C103  C107  S    
Cr5   O10   S    
C89   C115  A    
C21   C66   S    
C84   C102  S    
C86   C104  S    
Cr3   O29   S    
C28   C46   S    
C34   C51   S    
C29   C47   S    
C4    O45   A    
C30   C48   S    
C76   C78   S    
C45   H43   S    
C15   C25   S    
C12   C22   S    
C92   C96   A    
C3    O43   A    
C2    C44   S    
H73   N11   S    
C104  H21   S    
C53   C111  S    
C77   H32   S    
C61   O27   A    
Cr7   O43   S    
Cr8   O44   S    
Cr3   O11   S    
Cr12  O52   S    
Cr10  O11   S    
Cr1   O1    S    
C100  N7    S    
C65   C74   S    
C25   C64   S    
C47   H48   S    
C102  H15   S    
H75   N12   S    
C87   C105  S    
C106  N9    S    
C92   H9    S    
C2    C27   A    
Cr5   O12   S    
C45   H46   S    
C26   C30   A    
C16   C23   S    
C106  H24   S    
C23   C88   S    
C33   O15   A    
C67   C75   S    
C4    C58   S    
C93   C97   A    
C10   C116  S    
C44   O16   A    
C112  O23   A    
C76   H7    S    
C30   C52   A    
C83   C101  S    
C18   C22   S    
Cr11  O51   S    
H65   N7    S    
C70   H45   S    
C68   C76   S    
C111  O12   A    
Cr7   O34   S    
H80   N3    S    
C48   H53   S    
H76   N12   S    
C72   H67   S    
Cr2   O10   S    
C60   C69   A    
C98   N6    S    
H61   N5    S    
C113  O34   A    
C37   C41   A    
C1    O14   A    
C93   H10   S    
C38   C56   A    
C1    C24   S    
C88   H33   S    
H74   N11   S    
C5    O2    A    
Cr6   O38   S    
Cr4   O13   S    
C81   C85   A    
Cr11  O21   S    
C83   C87   A    
C24   C42   A    
Cr7   O13   S    
C80   C84   A    
C13   C41   A    
C15   C19   S    
C86   C91   A    
C63   O29   A    
Cr1   O36   S    
Cr2   O28   S    
C48   H49   S    
C80   C97   A    
C20   C25   S    
C94   C98   A    
C96   N1    S    
C101  H18   S    
C39   H36   S    
C24   C29   A    
C119  O41   A    
C109  O1    A    
C25   C99   S    
C68   C69   A    
C65   C67   A    
C12   C17   S    
C56   C113  S    
C91   C117  A    
C13   C28   A    
C70   C71   A    
C10   O38   A    
Cr12  O5    S    
C21   C61   S    
C51   H57   S    
C112  O33   A    
C27   C45   S    
C23   C63   S    
Cr4   O30   S    
C31   C49   S    
Cr6   O11   S    
C32   C54   A    
C35   N12   S    
C9    C115  S    
C51   H52   S    
C36   N2    S    
C94   C116  A    
C95   C100  A    
C47   C51   S    
Cr4   O35   S    
C82   C86   A    
C29   C34   A    
C95   C117  A    
Cr5   O15   S    
C104  H17   S    
C35   C39   A    
C43   H44   S    
C76   H84   S    
C45   C49   S    
C74   H3    S    
C17   C77   S    
C47   H41   S    
Cr3   O7    S    
Cr2   O32   S    
C18   C66   S    
H77   N2    S    
H72   N10   S    
C104  C108  S    
C11   O8    A    
Cr10  O20   S    
C9    O6    A    
C91   C108  S    
C22   C77   S    
C57   C65   A    
C78   H8    S    
H63   N6    S    
C108  N11   S    
C20   H34   S    
C41   H38   S    
C5    C57   S    
Cr8   O18   S    
C18   H12   S    
C79   C83   A    
C52   C109  S    
C20   C88   S    
C33   O19   A    
Cr8   O22   S    
H64   N7    S    
C44   O20   A    
Cr10  O25   S    
Cr11  O48   S    
Cr3   O3    S    
C35   C52   A    
C11   O39   A    
H71   N10   S    
C119  O46   A    
C80   C120  S    
Cr9   O10   S    
C14   C18   S    
H66   N8    S    
C50   H51   S    
C71   H56   S    
Cr11  O26   S    
C62   O28   A    
C94   H11   S    
C38   C42   A    
C1    O18   A    
C43   H42   S    
C108  H26   S    
C15   C16   S    
C93   C115  A    
C87   C114  A    
Cr12  O27   S    
C39   C110  A    
Cr9   O49   S    
Cr7   O17   S    
C43   C48   S    
C26   C110  A    
C105  H22   S    
Cr9   O24   S    
C6    O3    A    
C69   C78   S    
C50   H55   S    
Cr1   O40   S    
C64   O30   A    
C103  H16   S    
Cr12  O31   S    
C64   O26   A    
C101  C105  S    
Cr1   O14   S    
Cr2   O2    S    
C101  H14   S    
C74   C75   S    
H68   N8    S    
C38   N4    S    
C73   H78   S    
C36   C40   A    
C5    O49   A    
C42   H39   S    
Cr5   O41   S    
Cr10  O50   S    
Cr12  O9    S    
C59   C68   A    
C22   C62   S    
C31   C53   A    
C32   C50   S    
C37   C54   A    
C12   C14   S    
C55   C110  S    
C118  O40   A    
C84   C89   A    
C11   C117  S    
C120  O47   A    
C82   C100  A    
C46   C50   S    
Cr6   O16   S    
C63   O25   A    
Cr3   O33   S    
Cr1   O9    S    
C97   N5    S    
C66   H31   S    
C102  C106  S    
C49   H50   S    
C55   O17   A    
C37   N3    S    
Cr10  O47   S    
C92   C114  A    
