data_mof_unit_46109.cif
_audit_creation_date              2013-03-05T15:54:52-0500
_audit_creation_method            fapswitch 2.2
_symmetry_space_group_name_H-M    P1
_symmetry_Int_Tables_number       1
_space_group_crystal_system       triclinic
_cell_length_a                    13.719818
_cell_length_b                    14.045836
_cell_length_c                    30.003348
_cell_angle_alpha                 97.731911
_cell_angle_beta                  89.680755
_cell_angle_gamma                 119.359418
_cell_volume                      4981.18592626

loop_
_atom_site_label
_atom_site_type_symbol
_atom_site_description
_atom_site_fract_x
_atom_site_fract_y
_atom_site_fract_z
_atom_type_partial_charge
O1    O     O_R   0.494060 0.188820 0.559230 -0.528771
O2    O     O_R   0.678470 0.153390 0.554100 -0.534237
C1    C     C_R   0.723021 0.099934 0.568255 0.816922
O3    O     O_R   0.697870 0.003940 0.549410 -0.527651
O4    O     O_R   0.480980 0.827230 0.535590 -0.508835
C2    C     C_R   0.382884 0.787960 0.551058 0.848883
O5    O     O_R   0.309390 0.811640 0.537920 -0.547199
O6    O     O_R   0.341810 0.023400 0.546180 -0.520272
C3    C     C_R   0.394272 0.121366 0.567453 0.830116
O7    O     O_R   0.493150 0.185870 0.461540 -0.551015
O8    O     O_R   0.677630 0.150660 0.463530 -0.545393
C4    C     C_R   0.720665 0.095959 0.442969 0.773779
O9    O     O_R   0.696960 0.000990 0.451710 -0.537739
O10   O     O_R   0.480140 0.824500 0.445020 -0.517136
C5    C     C_R   0.382331 0.784476 0.425185 0.797090
O11   O     O_R   0.308480 0.808690 0.440220 -0.543554
O12   O     O_R   0.340970 0.020670 0.455610 -0.542100
C6    C     C_R   0.396591 0.115713 0.443381 0.760663
Cr1   Cr    Cr6+3 0.583400 0.162540 0.509180 0.974639
Cr2   Cr    Cr6+3 0.584070 0.916690 0.495550 1.028557
Cr3   Cr    Cr6+3 0.332550 0.920810 0.495240 0.985427
O13   O     O_3   0.500010 0.000010 0.499990 -0.349528
H1    H     H_    0.226975 0.736772 0.687168 0.116921
C7    C     C_R   0.362368 0.733937 0.591890 -0.063217
C8    C     C_R   0.431942 0.694500 0.607366 -0.021295
C9    C     C_R   0.432085 0.679607 0.652712 -0.154767
C10   C     C_R   0.360734 0.697950 0.681543 0.132284
C11   C     C_R   0.283965 0.724551 0.665074 -0.101268
C12   C     C_R   0.284419 0.742112 0.620657 -0.109847
C13   C     C_R   0.282506 0.696031 0.839346 -0.049698
C14   C     C_R   0.259621 0.667756 0.882872 -0.026506
C15   C     C_R   0.394049 0.601242 0.876513 -0.105655
C16   C     C_R   0.417168 0.631825 0.833866 -0.077212
C17   C     C_R   0.357669 0.674240 0.814572 0.095076
C18   C     C_1   0.365311 0.685402 0.767915 0.005805
C19   C     C_1   0.365798 0.691056 0.728414 -0.001462
C20   C     C_R   0.310279 0.611893 0.900381 -0.158301
C21   C     C_3   0.264978 0.057255 0.710893 -0.014053
C22   C     C_3   0.218118 0.209273 0.709905 -0.204404
C23   C     C_3   0.232657 0.239606 0.762730 -0.338086
H2    H     H_    0.164934 0.029689 0.771494 0.168365
H3    H     H_    0.133482 0.137295 0.702179 0.144760
H4    H     H_    0.270389 0.329918 0.773498 0.226664
C24   C     C_1   0.289210 0.209860 0.873888 -0.089522
C25   C     C_3   0.308184 0.175214 0.694266 0.058498
C26   C     C_3   0.254397 0.072714 0.763262 -0.541440
C27   C     C_3   0.304694 0.196432 0.783929 0.172632
C28   C     C_3   0.430552 0.266712 0.771574 -0.155317
C29   C     C_3   0.427931 0.271376 0.718000 -0.214531
C30   C     C_1   0.295315 0.200879 0.833494 0.067110
C31   C     C_1   0.319729 0.162287 0.644711 0.099222
C32   C     C_1   0.348694 0.146861 0.607609 -0.034260
C33   C     C_3   0.728087 0.151251 0.724757 -0.133567
C34   C     C_3   0.941072 0.257985 0.719444 -0.335482
C35   C     C_3   0.943856 0.279717 0.771804 -0.185295
C36   C     C_1   0.901297 0.201136 0.878641 -0.079868
C37   C     C_3   0.830729 0.150240 0.700405 0.146939
C38   C     C_3   0.739945 0.144828 0.776949 -0.201310
C39   C     C_3   0.860674 0.168837 0.789468 0.042958
C40   C     C_3   0.880527 0.074182 0.764267 -0.234279
C41   C     C_3   0.839000 0.048975 0.713147 -0.203703
C42   C     C_1   0.878121 0.184302 0.838866 0.019654
C43   C     C_1   0.812416 0.145353 0.651052 0.072709
C44   C     C_1   0.779752 0.132945 0.612292 -0.092231
H5    H     H_    0.753782 0.975553 0.708259 0.130039
H6    H     H_    0.971868 0.106200 0.766004 0.125476
C45   C     C_3   0.374242 0.797114 0.271950 -0.225582
C46   C     C_3   0.232699 0.588389 0.269437 -0.163226
C47   C     C_3   0.221204 0.587069 0.217970 -0.413262
H7    H     H_    0.228469 0.509097 0.273525 0.173140
C48   C     C_1   0.308304 0.608708 0.110374 -0.084007
C49   C     C_3   0.350829 0.686517 0.289500 0.113776
C50   C     C_3   0.377379 0.786373 0.218425 -0.059336
C51   C     C_3   0.337998 0.660628 0.199992 0.107248
C52   C     C_3   0.423805 0.627410 0.217856 -0.296390
C53   C     C_3   0.443180 0.655795 0.271509 -0.107050
C54   C     C_1   0.326449 0.638015 0.150324 0.022011
C55   C     C_1   0.357415 0.706474 0.339297 0.129429
C56   C     C_1   0.366164 0.734680 0.379313 -0.063221
H8    H     H_    0.504530 0.675645 0.202676 0.139545
H9    H     H_    0.458790 0.861714 0.286928 0.141897
H10   H     H_    0.132193 0.081688 0.088795 0.142761
C57   C     C_R   0.357815 0.138452 0.402584 -0.050385
C58   C     C_R   0.424849 0.239451 0.386761 -0.133536
C59   C     C_R   0.406512 0.251051 0.342748 -0.110354
C60   C     C_R   0.320466 0.162472 0.314528 0.102435
C61   C     C_R   0.246346 0.065836 0.331267 -0.096663
C62   C     C_R   0.264736 0.053762 0.375301 -0.192828
C63   C     C_R   0.213201 0.105478 0.152840 -0.013827
C64   C     C_R   0.211940 0.124528 0.108514 -0.232989
C65   C     C_R   0.412919 0.253785 0.116193 -0.002284
C66   C     C_R   0.413652 0.236442 0.161184 -0.094747
C67   C     C_R   0.314362 0.167026 0.179904 0.038911
C68   C     C_1   0.316942 0.166342 0.227471 0.038147
C69   C     C_1   0.317450 0.165504 0.267317 0.019624
C70   C     C_R   0.308805 0.203204 0.090537 -0.131164
H11   H     H_    0.496394 0.306686 0.407188 0.149332
H12   H     H_    0.491515 0.279157 0.182216 0.172199
H13   H     H_    0.847300 0.334797 0.338277 0.137900
C71   C     C_R   0.787451 0.137566 0.404456 -0.048371
C72   C     C_R   0.823804 0.072726 0.377555 -0.208915
C73   C     C_R   0.865675 0.099516 0.335645 0.005295
C74   C     C_R   0.870159 0.193025 0.320916 0.111339
C75   C     C_R   0.843742 0.262980 0.349482 -0.131393
C76   C     C_R   0.803060 0.235814 0.391112 -0.153506
C77   C     C_R   0.881016 0.302094 0.169022 -0.042117
C78   C     C_R   0.892239 0.304208 0.121908 -0.084310
C79   C     C_R   0.891491 0.128492 0.114486 -0.167069
C80   C     C_R   0.883111 0.128193 0.160368 -0.097680
C81   C     C_R   0.883491 0.216406 0.187786 0.025445
C82   C     C_1   0.883581 0.214316 0.235273 -0.018133
C83   C     C_1   0.881237 0.207768 0.274651 0.060365
C84   C     C_R   0.904207 0.219132 0.095010 -0.143892
H14   H     H_    0.897384 0.061063 0.094914 0.145407
O14   O     O_R   0.969690 0.151000 0.934080 -0.524938
O15   O     O_R   0.187530 0.180840 0.938210 -0.532550
C85   C     C_R   0.281737 0.234813 0.921389 0.803226
O16   O     O_R   0.358160 0.327300 0.941250 -0.529653
O17   O     O_R   0.323950 0.507710 0.953980 -0.533147
C86   C     C_R   0.267881 0.549930 0.938945 0.748054
O18   O     O_R   0.170530 0.527770 0.952070 -0.550145
O19   O     O_R   0.987720 0.318450 0.945940 -0.536406
C87   C     C_R   0.945744 0.221353 0.923671 0.803064
O20   O     O_R   0.976400 0.159230 0.032040 -0.543899
O21   O     O_R   0.193740 0.188470 0.029020 -0.534344
C88   C     C_R   0.291687 0.241729 0.049141 0.769810
O22   O     O_R   0.364860 0.335530 0.039220 -0.545388
O23   O     O_R   0.330170 0.515340 0.044800 -0.530982
C89   C     C_R   0.274480 0.558136 0.064664 0.795768
O24   O     O_R   0.177230 0.536000 0.050040 -0.524743
O25   O     O_R   0.993930 0.326080 0.036750 -0.544860
C90   C     C_R   0.954143 0.232860 0.050645 0.756142
Cr4   Cr    Cr6+3 0.086700 0.177000 0.983690 0.979082
Cr5   Cr    Cr6+3 0.336880 0.419130 0.994740 0.978457
Cr6   Cr    Cr6+3 0.084850 0.422220 0.995960 0.973622
O26   O     O_3   0.169480 0.339450 0.991460 -0.343973
C91   C     C_2   0.185210 0.699242 0.909262 0.421114
H15   H     H_    0.187815 0.705115 0.945677 0.067098
O27   O     O_2   0.121552 0.721530 0.890676 -0.512813
C92   C     C_2   0.149994 0.968983 0.688416 0.393833
H16   H     H_    0.086024 0.912746 0.707998 0.034595
O28   O     O_2   0.129547 0.955044 0.647738 -0.501214
C93   C     C_2   0.212841 0.293218 0.684506 0.411878
H17   H     H_    0.195284 0.273830 0.648206 0.092045
O29   O     O_2   0.226326 0.381567 0.703754 -0.511308
H18   H     H_    0.149566 0.200455 0.776318 0.118106
C94   C     C_2   0.522587 0.259363 0.696198 0.449125
H19   H     H_    0.522628 0.182771 0.694425 0.031802
O30   O     O_2   0.596237 0.332526 0.678113 -0.494386
C95   C     C_2   0.445034 0.384346 0.708315 0.484123
H20   H     H_    0.437721 0.442133 0.733989 0.059785
O31   O     O_2   0.458488 0.408418 0.670192 -0.508003
C96   C     C_2   0.495500 0.211289 0.785788 0.438852
H21   H     H_    0.481194 0.134109 0.767437 0.005982
O32   O     O_2   0.561419 0.249937 0.819144 -0.492086
C97   C     C_2   0.337198 0.004139 0.699807 0.291116
H22   H     H_    0.353553 0.962908 0.724450 0.045577
O33   O     O_2   0.366895 0.994581 0.661807 -0.521449
H23   H     H_    0.292179 0.033128 0.781285 0.152914
H24   H     H_    0.240216 0.733117 0.824243 0.148054
C98   C     C_2   0.491705 0.384054 0.798389 0.388374
H25   H     H_    0.578500 0.438901 0.792333 0.105963
O34   O     O_2   0.446714 0.418277 0.826230 -0.555836
H26   H     H_    0.729380 0.210363 0.797785 0.230242
C99   C     C_2   0.732849 0.259109 0.718071 0.308912
H27   H     H_    0.737636 0.278840 0.684145 0.119807
O35   O     O_2   0.736486 0.326723 0.749221 -0.515180
H28   H     H_    0.013078 0.247754 0.708893 0.200693
H29   H     H_    0.949612 0.330881 0.705378 0.170249
H30   H     H_    0.914083 0.339952 0.781255 0.194726
C100  C     C_2   0.062390 0.337909 0.792940 0.414488
H31   H     H_    0.087185 0.303000 0.817736 0.033897
O36   O     O_2   0.130882 0.428054 0.783641 -0.493204
C101  C     C_2   0.909822 0.013647 0.684100 0.349954
H32   H     H_    0.918249 0.944499 0.691602 0.063815
O37   O     O_2   0.956427 0.059316 0.652233 -0.521109
C102  C     C_2   0.832681 0.970167 0.785842 0.374686
H33   H     H_    0.758925 0.894971 0.770548 0.040430
O38   O     O_2   0.877298 0.969375 0.820780 -0.504742
C103  C     C_2   0.614342 0.057158 0.703701 0.306255
H34   H     H_    0.540714 0.044386 0.720428 0.063249
O39   O     O_2   0.603216 0.992064 0.670118 -0.524991
C104  C     C_2   0.650954 0.038251 0.792106 0.381023
H35   H     H_    0.630921 0.958539 0.773471 0.037881
O40   O     O_2   0.598825 0.041199 0.824895 -0.507317
C105  C     C_2   0.308232 0.830170 0.197580 0.502788
H36   H     H_    0.329456 0.915599 0.208168 0.081283
O41   O     O_2   0.230756 0.773633 0.169087 -0.508526
C106  C     C_2   0.300978 0.842926 0.292478 0.324145
H37   H     H_    0.334796 0.907601 0.321517 0.060391
O42   O     O_2   0.204362 0.807108 0.278177 -0.522826
C107  C     C_2   0.132381 0.583800 0.292571 0.407021
H38   H     H_    0.075182 0.602873 0.276147 0.118707
O43   O     O_2   0.113126 0.556332 0.329966 -0.519763
H39   H     H_    0.161946 0.615668 0.209871 0.230373
H40   H     H_    0.182247 0.500239 0.200515 0.134001
C108  C     C_2   0.561329 0.752922 0.284877 0.310539
H41   H     H_    0.617082 0.794992 0.259675 0.087057
O44   O     O_2   0.595707 0.786001 0.324493 -0.525778
H42   H     H_    0.228806 0.770273 0.610020 0.178862
C109  C     C_2   0.441498 0.560504 0.291928 0.409533
H43   H     H_    0.500203 0.532625 0.281061 0.064556
O45   O     O_2   0.377858 0.515474 0.320469 -0.523847
C110  C     C_2   0.495870 0.860399 0.205151 0.229686
H44   H     H_    0.529575 0.831637 0.177003 0.084063
O46   O     O_2   0.552004 0.956033 0.223605 -0.529821
C111  C     C_2   0.387927 0.507386 0.199634 0.386302
H45   H     H_    0.312706 0.440455 0.210286 0.056533
O47   O     O_2   0.444010 0.485062 0.173019 -0.508080
C112  C     C_2   0.105729 0.024356 0.169423 0.467928
H46   H     H_    0.028186 0.990673 0.148640 0.027694
O48   O     O_2   0.101950 0.992056 0.205516 -0.489381
H47   H     H_    0.178979 0.997285 0.309453 0.187146
H48   H     H_    0.211357 0.975352 0.386665 0.155983
C113  C     C_2   0.503952 0.666254 0.577881 0.434638
H49   H     H_    0.575312 0.665072 0.592678 0.061069
O49   O     O_2   0.481284 0.638226 0.537283 -0.516924
C114  C     C_2   0.520829 0.323294 0.096909 0.471343
H50   H     H_    0.526250 0.319658 0.060727 0.040638
O50   O     O_2   0.606045 0.383937 0.121255 -0.480603
H51   H     H_    0.463600 0.326415 0.329933 0.132292
C115  C     C_2   0.896234 0.396072 0.101098 0.577182
H52   H     H_    0.850895 0.378412 0.068807 0.023332
O51   O     O_2   0.953892 0.492083 0.118753 -0.482535
C116  C     C_2   0.865568 0.386465 0.199148 0.474699
H53   H     H_    0.898015 0.409771 0.234141 0.005226
O52   O     O_2   0.811999 0.426810 0.185954 -0.467530
H54   H     H_    0.776879 0.288000 0.411417 0.144816
H55   H     H_    0.814261 0.997950 0.388122 0.154852
H56   H     H_    0.880382 0.060244 0.174814 0.154870
H57   H     H_    0.477162 0.616968 0.814962 0.140149
C117  C     C_2   0.897950 0.024640 0.307939 0.405516
H58   H     H_    0.879040 0.946773 0.318531 0.072606
O53   O     O_2   0.947842 0.049253 0.273840 -0.509697
H59   H     H_    0.437150 0.562593 0.889524 0.189195
H60   H     H_    0.487893 0.654004 0.665637 0.127936

loop_
_geom_bond_atom_site_label_1
_geom_bond_atom_site_label_2
_geom_bond_distance
_ccdc_geom_bond_type
C23   C27   1.564479 S    
C61   C62   1.394226 A    
C67   C68   1.429265 S    
C84   C90   1.485852 S    
C35   C39   1.575216 S    
C53   C109  1.535402 S    
C109  H43   1.086416 S    
C34   C35   1.556551 S    
C82   C83   1.196354 T    
C74   C83   1.427219 S    
O22   Cr5   2.043672 S    
C21   C97   1.517704 S    
C49   C53   1.596485 S    
C38   H26   1.110900 S    
O23   C89   1.284219 A    
C98   H25   1.086382 S    
C22   C93   1.517329 S    
C66   H12   1.084679 S    
Cr6   O26   1.999410 S    
O4    Cr2   1.914970 S    
C59   C60   1.394976 A    
C103  H34   1.070214 S    
C13   H24   1.084488 S    
C4    O9    1.273449 A    
C100  O36   1.220450 D    
O20   C90   1.275474 A    
C71   C76   1.402992 A    
C88   O22   1.279664 A    
C62   H48   1.083001 S    
C29   C95   1.554193 S    
C58   H11   1.083038 S    
C66   C67   1.399364 A    
C97   H22   1.084821 S    
C94   O30   1.223602 D    
C116  H53   1.085110 S    
C45   C49   1.588236 S    
O25   Cr6   1.911342 S    
C53   C108  1.530078 S    
C104  O40   1.221175 D    
C13   C14   1.405147 A    
C77   C78   1.423789 A    
C25   C31   1.490518 S    
O21   Cr4   1.940025 S    
C93   H17   1.084957 S    
C47   H39   1.109104 S    
C79   C80   1.381171 A    
C29   C94   1.522689 S    
C106  O42   1.220089 D    
C17   C18   1.427057 S    
C50   C51   1.588088 S    
C76   H54   1.083073 S    
C79   H14   1.083177 S    
C108  O44   1.222255 D    
C22   H3    1.101354 S    
C7    C12   1.409029 A    
C78   C84   1.427443 A    
C21   C25   1.612886 S    
C49   C55   1.477510 S    
C74   C75   1.396627 A    
C94   H19   1.070221 S    
C6    C57   1.470497 S    
C65   C70   1.416924 A    
C101  H32   1.084699 S    
C52   C111  1.524645 S    
C23   H4    1.108678 S    
C5    C56   1.422978 S    
O24   Cr6   2.032780 S    
O6    C3    1.271415 A    
C102  O38   1.220932 D    
C51   C54   1.473992 S    
Cr4   O26   1.967058 S    
H2    C26   1.114547 S    
C45   C50   1.595004 S    
C96   O32   1.223403 D    
C52   H8    1.111166 S    
C35   H30   1.111815 S    
O16   Cr5   2.032629 S    
C22   C25   1.577575 S    
C78   C115  1.484845 S    
H13   C75   1.084308 S    
C40   H6    1.103278 S    
C39   C40   1.579799 S    
C99   O35   1.221919 D    
Cr3   O13   1.997806 S    
C73   C117  1.486779 S    
C109  O45   1.221309 D    
C34   H29   1.112773 S    
C115  H52   1.085297 S    
C3    C32   1.437322 S    
C35   C100  1.511147 S    
C75   C76   1.388838 A    
C98   O34   1.219433 D    
C103  O39   1.221256 D    
C37   C43   1.490109 S    
C27   C30   1.487533 S    
C111  H45   1.084804 S    
C92   H16   1.085700 S    
C50   C110  1.526185 S    
O1    Cr1   2.041485 S    
O17   Cr5   1.924393 S    
O14   C87   1.258750 A    
C51   C52   1.582350 S    
C13   C17   1.396199 A    
C31   C32   1.207747 T    
C72   C73   1.400001 A    
O10   Cr2   1.921907 S    
C8    C113  1.481970 S    
Cr1   O13   1.967114 S    
O1    C3    1.272830 A    
C58   C59   1.391199 A    
C22   C23   1.572197 S    
C33   C37   1.588240 S    
C55   C56   1.199933 T    
C46   C47   1.549775 S    
Cr5   O26   1.997367 S    
C28   C98   1.537022 S    
O14   Cr4   2.057075 S    
C40   C102  1.514500 S    
C1    C44   1.435021 S    
C64   C70   1.410886 A    
C108  H41   1.084704 S    
C47   H40   1.113308 S    
O12   Cr3   1.919064 S    
C1    O3    1.263935 A    
C81   C82   1.429037 S    
C38   C104  1.524197 S    
C18   C19   1.198180 T    
C107  O43   1.220963 D    
C79   C84   1.404975 A    
C21   C92   1.532853 S    
C52   C53   1.596608 S    
C36   C87   1.419162 S    
C104  H35   1.083159 S    
O23   Cr5   1.914375 S    
C48   C89   1.422153 S    
C91   O27   1.221586 D    
C80   H56   1.084548 S    
C114  O50   1.221315 D    
C57   C58   1.407380 A    
C25   C29   1.615188 S    
O7    Cr1   2.056024 S    
C46   C49   1.576691 S    
C12   H42   1.083108 S    
O8    Cr1   1.924960 S    
C117  O53   1.220672 D    
O12   C6    1.276257 A    
C61   H47   1.083621 S    
C77   C116  1.490719 S    
C70   C88   1.482978 S    
C47   C51   1.563012 S    
C15   C20   1.409515 A    
C7    C8    1.423437 A    
O17   C86   1.292317 A    
C115  O51   1.221202 D    
C100  H31   1.083596 S    
C2    O5    1.285020 A    
C102  H33   1.084816 S    
O20   Cr4   2.039456 S    
C33   C99   1.524519 S    
C28   C29   1.618846 S    
C28   C96   1.534805 S    
C110  O46   1.222394 D    
C45   H9    1.111228 S    
C68   C69   1.197236 T    
C112  O48   1.220558 D    
C14   C91   1.484664 S    
C9    C10   1.396735 A    
O21   C88   1.277375 A    
C36   C42   1.198217 T    
C38   C39   1.556765 S    
H1    C11   1.084191 S    
Cr2   O13   1.999306 S    
C105  O41   1.221109 D    
O25   C90   1.276595 A    
C63   C64   1.393260 A    
C33   C103  1.531359 S    
C48   C54   1.199255 T    
C86   O18   1.286599 A    
C89   O24   1.277667 A    
C77   C81   1.410412 A    
C24   C30   1.208264 T    
C106  H37   1.085284 S    
C93   O29   1.221015 D    
C26   C27   1.555427 S    
C11   C12   1.386952 A    
C39   C42   1.472244 S    
C9    H60   1.084805 S    
O9    Cr2   2.032017 S    
O2    Cr1   1.940318 S    
C60   C61   1.397478 A    
C41   C101  1.515541 S    
C34   H28   1.104663 S    
C27   C28   1.585368 S    
O6    Cr3   1.912716 S    
C41   H5    1.109467 S    
C33   C38   1.594378 S    
C45   C106  1.524611 S    
O11   Cr3   2.027509 S    
C37   C41   1.577087 S    
C63   C112  1.488927 S    
O15   Cr4   1.924634 S    
C10   C19   1.426938 S    
C91   H15   1.084020 S    
H10   C64   1.083991 S    
C23   H18   1.099373 S    
C15   C16   1.390017 A    
C65   C114  1.484900 S    
C97   O33   1.221160 D    
O2    C1    1.287022 A    
C8    C9    1.404223 A    
O5    Cr3   2.034226 S    
C85   O16   1.266913 A    
C107  H38   1.084623 S    
C21   C26   1.572782 S    
C50   C105  1.533607 S    
C114  H50   1.083739 S    
O4    C2    1.290338 A    
C20   C86   1.483787 S    
C24   C85   1.436552 S    
O7    C6    1.267434 A    
C26   H23   1.112157 S    
C2    C7    1.480771 S    
C71   C72   1.404561 A    
C116  O52   1.220655 D    
C16   C17   1.389735 A    
O15   C85   1.278610 A    
C57   C62   1.405700 A    
C95   O31   1.223627 D    
C113  H49   1.085673 S    
C63   C67   1.407166 A    
C73   C74   1.414496 A    
C101  O37   1.220850 D    
O19   Cr6   1.918765 S    
C4    C71   1.470092 S    
C113  O49   1.220886 D    
C60   C69   1.424271 S    
C43   C44   1.207592 T    
O3    Cr2   2.042052 S    
C14   C20   1.422826 A    
C99   H27   1.083765 S    
O19   C87   1.275535 A    
C110  H44   1.085047 S    
O18   Cr6   2.028055 S    
C46   H7    1.109987 S    
C112  H46   1.085798 S    
C80   C81   1.389736 A    
C10   C11   1.390864 A    
C111  O47   1.220813 D    
C46   C107  1.514813 S    
O10   C5    1.284561 A    
C40   C41   1.571052 S    
C72   H55   1.084002 S    
C92   O28   1.221558 D    
C105  H36   1.086916 S    
C16   H57   1.083564 S    
C59   H51   1.083966 S    
C34   C37   1.561693 S    
C65   C66   1.404512 A    
C5    O11   1.279576 A    
O8    C4    1.277789 A    
C117  H58   1.085751 S    
C95   H20   1.083051 S    
C96   H21   1.071818 S    
C15   H59   1.082216 S    
