data_mof_unit_32094.cif
_audit_creation_date              2012-12-10T16:49:29-0500
_audit_creation_method            fapswitch 2.2
_symmetry_space_group_name_H-M    P1
_symmetry_Int_Tables_number       1
_space_group_crystal_system       triclinic
_cell_length_a                    19.318747
_cell_length_b                    8.758416
_cell_length_c                    7.409071
_cell_angle_alpha                 102.817397
_cell_angle_beta                  94.021325
_cell_angle_gamma                 92.441112
_cell_volume                      1217.19851237

loop_
_atom_site_label
_atom_site_type_symbol
_atom_type_description
_atom_site_fract_x
_atom_site_fract_y
_atom_site_fract_z
_atom_type_partial_charge
C1    C     C_R   0.498656 0.200350 0.453869 0.851991
C2    C     C_R   0.501344 0.799650 0.546131 0.852006
C3    C     C_2   0.504541 0.034698 0.428708 -0.041326
C4    C     C_2   0.495458 0.965302 0.571292 -0.041338
C5    C     C_R   0.367285 0.499564 0.502750 0.854780
C6    C     C_R   0.632715 0.500396 0.497242 0.854787
C7    C     C_R   0.261106 0.580902 0.668488 0.074526
C8    C     C_R   0.738861 0.418852 0.331441 0.074516
C9    C     C_R   0.187910 0.581267 0.672254 0.038169
C10   C     C_R   0.812053 0.418361 0.327615 0.038172
C11   C     C_R   0.145609 0.502368 0.512238 -0.052517
C12   C     C_R   0.854383 0.497136 0.487644 -0.052539
C13   C     C_R   0.175366 0.421019 0.353481 0.092188
C14   C     C_R   0.824658 0.578497 0.646459 0.092200
C15   C     C_R   0.247593 0.417584 0.352254 0.110277
C16   C     C_R   0.752436 0.582114 0.647702 0.110265
C17   C     C_R   0.290882 0.499111 0.508372 -0.115087
C18   C     C_R   0.709118 0.500706 0.491584 -0.115070
C19   C     C_R   0.930063 0.496646 0.491488 0.418672
C20   C     C_R   0.069926 0.502788 0.508323 0.418614
Cu1   Cu    Cu3+1 0.507710 0.517380 0.684380 0.975750
Cu2   Cu    Cu3+1 0.492290 0.482620 0.315620 0.975760
H1    H     H_    0.444857 0.381060 0.948716 0.241144
H2    H     H_    0.555143 0.618940 0.051284 0.241135
N1    N     N_R   0.034703 0.589483 0.406303 -0.258572
N2    N     N_R   0.965286 0.409948 0.593506 -0.258565
N3    N     N_R   0.965723 0.587096 0.398753 -0.248516
N4    N     N_R   0.034266 0.412337 0.601059 -0.248524
N5    N     N_2   0.480680 0.456420 0.038530 -0.204360
N6    N     N_2   0.519320 0.543580 0.961470 -0.204375
O1    O     O_R   0.505010 0.286130 0.619770 -0.561828
O2    O     O_R   0.494990 0.713870 0.380230 -0.561816
O3    O     O_R   0.491990 0.256780 0.308370 -0.594669
O4    O     O_R   0.508010 0.743220 0.691630 -0.594677
O5    O     O_R   0.406650 0.514660 0.655750 -0.567780
O6    O     O_R   0.593350 0.485340 0.344250 -0.567789
O7    O     O_R   0.393640 0.485310 0.344340 -0.564419
O8    O     O_R   0.606360 0.514690 0.655660 -0.564430
N7    N     N_3   0.305957 0.667696 0.823491 -0.571548
H3    H     H_    0.299852 0.618800 0.938293 0.224462
H4    H     H_    0.292878 0.784693 0.854136 0.213783
N8    N     N_3   0.693978 0.332101 0.176483 -0.571541
H5    H     H_    0.700074 0.380998 0.061679 0.224445
H6    H     H_    0.707038 0.215091 0.145825 0.213775
C21   C     C_3   0.154909 0.669378 0.843131 -0.402091
C22   C     C_3   0.132926 0.830395 0.818720 -0.339680
C23   C     C_3   0.094875 0.913314 0.982973 -0.824891
H7    H     H_    0.047857 0.841137 0.998211 0.259208
H8    H     H_    0.129630 0.935135 0.113158 0.255513
H9    H     H_    0.078331 0.027456 0.958862 0.251238
H10   H     H_    0.179620 0.904802 0.806266 0.215001
H11   H     H_    0.097943 0.817407 0.690204 0.239932
H12   H     H_    0.109374 0.598867 0.870631 0.216906
H13   H     H_    0.190529 0.685970 0.970779 0.193903
C24   C     C_3   0.845018 0.330348 0.156611 -0.402097
C25   C     C_3   0.867022 0.169278 0.180776 -0.339690
C26   C     C_3   0.905151 0.086621 0.016537 -0.824746
H14   H     H_    0.870463 0.065004 0.886242 0.255502
H15   H     H_    0.952197 0.158870 0.001660 0.259206
H16   H     H_    0.921670 0.972386 0.040400 0.251152
H17   H     H_    0.901959 0.182144 0.309353 0.239905
H18   H     H_    0.820327 0.094760 0.192952 0.214963
H19   H     H_    0.809373 0.313836 0.029023 0.193859
H20   H     H_    0.890535 0.400915 0.129114 0.216942
N9    N     N_3   0.132722 0.337854 0.192057 -0.610640
H21   H     H_    0.103667 0.418159 0.138671 0.236424
H22   H     H_    0.098574 0.257771 0.231756 0.229345
N10   N     N_3   0.867328 0.661518 0.807908 -0.610608
H23   H     H_    0.901511 0.741565 0.768267 0.229340
H24   H     H_    0.896341 0.581117 0.861234 0.236423
N11   N     N_3   0.277141 0.327904 0.192584 -0.567158
H25   H     H_    0.260813 0.370940 0.076745 0.235309
H26   H     H_    0.258092 0.211124 0.170611 0.230865
N12   N     N_3   0.722919 0.671825 0.807406 -0.567177
H27   H     H_    0.739175 0.628606 0.923161 0.235269
H28   H     H_    0.742062 0.788553 0.829548 0.230925
N13   N     N_3   0.523874 0.949102 0.251725 -0.581745
H29   H     H_    0.485232 0.958570 0.149354 0.235400
H30   H     H_    0.570395 0.000970 0.223071 0.212106
N14   N     N_3   0.476126 0.050898 0.748275 -0.581745
H31   H     H_    0.514768 0.041430 0.850646 0.235402
H32   H     H_    0.429605 0.999032 0.776930 0.212100

loop_
_geom_bond_atom_site_label_1
_geom_bond_atom_site_label_2
_ccdc_geom_bond_type
C24   C25   S    
C9    C21   S    
Cu2   N5    S    
C5    O7    A    
C1    O3    A    
C23   H8    S    
C13   N9    S    
N13   H29   S    
Cu1   O1    S    
Cu2   O2    S    
C16   N12   S    
H1    N5    S    
C8    N8    S    
C4    N14   S    
C26   H15   S    
C5    C17   S    
C20   N1    A    
C22   H11   S    
C1    O1    A    
C25   C26   S    
C2    O2    A    
C19   N2    A    
Cu1   O8    S    
N10   H23   S    
C7    C17   A    
C24   H19   S    
C6    O8    A    
C19   N3    A    
C2    O4    A    
C21   H12   S    
Cu1   Cu2   S    
N8    H6    S    
C23   H9    S    
N13   H30   S    
C6    C18   S    
C11   C20   S    
N12   H27   S    
N14   H32   S    
N7    H3    S    
N11   H26   S    
C26   H16   S    
Cu1   O4    S    
C20   N4    A    
N9    H22   S    
C21   C22   S    
Cu2   O7    S    
C22   H10   S    
C8    C18   A    
C1    C3    S    
C2    C4    S    
N5    N6    D    
C23   H7    S    
C24   H20   S    
C16   C18   A    
C10   C24   S    
C9    C11   A    
C10   C12   A    
C8    C10   A    
C12   C14   A    
C21   H13   S    
C13   C15   A    
C25   H18   S    
N8    H5    S    
N12   H28   S    
C3    C4    D    
C3    N13   S    
Cu2   O6    S    
C15   C17   A    
Cu2   O3    S    
C22   C23   S    
C7    N7    S    
N14   H31   S    
Cu1   O5    S    
N1    N3    A    
C15   N11   S    
Cu1   N6    S    
N2    N4    A    
N11   H25   S    
C11   C13   A    
C26   H14   S    
C5    O5    A    
C12   C19   S    
C6    O6    A    
C14   C16   A    
H2    N6    S    
C7    C9    A    
N7    H4    S    
N10   H24   S    
N9    H21   S    
C14   N10   S    
C25   H17   S    
