data_mof_unit_22899.cif
_audit_creation_date              2013-03-05T15:45:10-0500
_audit_creation_method            fapswitch 2.2
_symmetry_space_group_name_H-M    P1
_symmetry_Int_Tables_number       1
_space_group_crystal_system       triclinic
_cell_length_a                    10.849137
_cell_length_b                    11.011284
_cell_length_c                    9.862498
_cell_angle_alpha                 110.563231
_cell_angle_beta                  99.333113
_cell_angle_gamma                 91.64307
_cell_volume                      1083.84465506

loop_
_atom_site_label
_atom_site_type_symbol
_atom_site_description
_atom_site_fract_x
_atom_site_fract_y
_atom_site_fract_z
_atom_type_partial_charge
O1    O     O_R   0.511700 0.332330 0.577400 -0.581460
O2    O     O_R   0.474680 0.295500 0.332650 -0.581941
C1    C     C_R   0.488405 0.254134 0.441110 0.846411
O3    O     O_R   0.338160 0.518420 0.622400 -0.591051
O4    O     O_R   0.301140 0.481590 0.377650 -0.574411
C2    C     C_R   0.263300 0.509997 0.502485 0.783940
Cu1   Cu    Cu3+1 0.521920 0.521810 0.644910 0.966869
Cu2   Cu    Cu3+1 0.478080 0.478190 0.355090 1.015745
O5    O     O_R   0.525320 0.704500 0.667350 -0.581577
O6    O     O_R   0.488300 0.667670 0.422600 -0.532774
O7    O     O_R   0.698860 0.518410 0.622350 -0.594026
O8    O     O_R   0.661840 0.481580 0.377600 -0.535381
C3    C     C_R   0.507182 0.745745 0.559140 0.880804
C4    C     C_R   0.737890 0.493224 0.500025 0.827544
H1    H     H_    0.075713 0.439528 0.268153 0.197026
C5    C     C_R   0.163840 0.638701 0.777312 -0.211257
H2    H     H_    0.252769 0.688497 0.782402 0.183925
C6    C     C_R   0.127323 0.652162 0.910269 -0.219272
H3    H     H_    0.190714 0.706362 0.012339 0.187194
C7    C     C_R   0.013554 0.589849 0.910748 0.371772
C8    C     C_R   0.930908 0.527663 0.776298 -0.230259
C9    C     C_R   0.961187 0.526693 0.641206 0.039414
C10   C     C_R   0.086354 0.563517 0.641546 0.099193
C11   C     C_R   0.130083 0.521023 0.506336 -0.115838
C12   C     C_R   0.044532 0.471191 0.373057 -0.118748
H4    H     H_    0.853279 0.427512 0.268066 0.212488
C13   C     C_R   0.917388 0.460746 0.372856 -0.111288
C14   C     C_R   0.873546 0.488856 0.505334 -0.128694
H5    H     H_    0.431017 0.866083 0.376031 0.220015
H6    H     H_    0.506445 0.135898 0.633379 0.179330
C15   C     C_2   0.474076 0.114842 0.408959 -0.311692
C16   C     C_2   0.484106 0.070076 0.518966 -0.160275
C17   C     C_2   0.509571 0.885095 0.593091 -0.340427
C18   C     C_2   0.470321 0.931128 0.487347 -0.086219
H7    H     H_    0.414340 0.416675 0.844577 0.141713
N1    N     N_2   0.445130 0.445430 0.137370 -0.344947
C19   C     C_2   0.504311 0.517724 0.082326 0.413369
H8    H     H_    0.625865 0.622263 0.932717 0.268391
N2    N     N_2   0.554930 0.554500 0.862630 -0.267153
C20   C     C_2   0.487020 0.490789 0.918363 -0.135237
H9    H     H_    0.387866 0.365839 0.062922 0.160024
H10   H     H_    0.453916 0.048479 0.294769 0.173324
N3    N     N_R   0.584270 0.631097 0.178516 0.156048
O9    O     O_R   0.551134 0.744637 0.182373 -0.412499
O10   O     O_R   0.702250 0.620158 0.218611 -0.300946
N4    N     N_R   0.981557 0.589982 0.046763 0.124173
O11   O     O_R   0.050484 0.660769 0.172685 -0.364459
O12   O     O_R   0.885589 0.515804 0.045652 -0.375055
H11   H     H_    0.846990 0.474735 0.779240 0.204175
H12   H     H_    0.545702 0.950729 0.705376 0.153997

loop_
_geom_bond_atom_site_label_1
_geom_bond_atom_site_label_2
_geom_bond_distance
_ccdc_geom_bond_type
C19   N3    1.431779 S    
O4    Cu2   1.967930 S    
Cu1   O7    1.967930 S    
C10   C11   1.414880 A    
C3    C17   1.449554 S    
C15   H10   1.087646 S    
O2    C1    1.291663 A    
H6    C16   1.088131 S    
C15   C16   1.331316 D    
Cu2   O8    1.967646 S    
N3    O9    1.300202 A    
C2    C11   1.459337 S    
C8    H11   1.076762 S    
H7    C20   1.084948 S    
N1    H9    1.030500 S    
Cu1   Cu2   2.684882 S    
C9    C14   1.430093 A    
C8    C9    1.419621 A    
C11   C12   1.399568 A    
C1    C15   1.451167 S    
N3    O10   1.298986 A    
H4    C13   1.082755 S    
O4    C2    1.297286 A    
O3    Cu1   1.967646 S    
O3    C2    1.293828 A    
N1    C19   1.314526 D    
O8    C4    1.310385 A    
C17   C18   1.328747 D    
C5    C10   1.414658 A    
C6    C7    1.396384 A    
O1    Cu1   1.948247 S    
H8    N2    1.029087 S    
O7    C4    1.284159 A    
N4    O12   1.300983 A    
H1    C12   1.083181 S    
C12   C13   1.380523 A    
C19   C20   1.516444 S    
C7    N4    1.438641 S    
N2    C20   1.307565 D    
C7    C8    1.404445 A    
C5    C6    1.390593 A    
C6    H3    1.082779 S    
Cu2   N1    2.016968 S    
C13   C14   1.398244 A    
Cu1   O5    1.943561 S    
Cu1   N2    2.017123 S    
C9    C10   1.405152 A    
O5    C3    1.288973 A    
C4    C14   1.466952 S    
C17   H12   1.087685 S    
N4    O11   1.301704 A    
H5    C18   1.085528 S    
Cu2   O6    1.948247 S    
O2    Cu2   1.943561 S    
C5    H2    1.081031 S    
O1    C1    1.294729 A    
O6    C3    1.296773 A    
C16   C18   1.448135 S    
