data_mof_unit_18597.cif
_audit_creation_date              2013-03-05T16:12:50-0500
_audit_creation_method            fapswitch 2.2
_symmetry_space_group_name_H-M    P1
_symmetry_Int_Tables_number       1
_space_group_crystal_system       triclinic
_cell_length_a                    26.22186
_cell_length_b                    6.890504
_cell_length_c                    21.547207
_cell_angle_alpha                 90.115647
_cell_angle_beta                  95.900092
_cell_angle_gamma                 90.040898
_cell_volume                      3872.55569315

loop_
_atom_site_label
_atom_site_type_symbol
_atom_site_description
_atom_site_fract_x
_atom_site_fract_y
_atom_site_fract_z
_atom_type_partial_charge
O1    O     O_R   0.208650 0.594520 0.175450 -0.597413
O2    O     O_R   0.791350 0.405480 0.824550 -0.592744
O3    O     O_R   0.291350 0.094520 0.324550 -0.594521
O4    O     O_R   0.708650 0.905480 0.675450 -0.603881
O5    O     O_R   0.192980 0.260780 0.300160 -0.563341
O6    O     O_R   0.807020 0.739220 0.699840 -0.576846
O7    O     O_R   0.307020 0.760780 0.199840 -0.567919
O8    O     O_R   0.692980 0.239220 0.800160 -0.564205
C1    C     C_R   0.178447 0.431954 0.318195 1.156825
C2    C     C_R   0.821229 0.567259 0.681653 1.161018
C3    C     C_R   0.320945 0.932101 0.181262 1.163405
C4    C     C_R   0.678749 0.067251 0.818817 1.148250
O9    O     O_R   0.202550 0.264660 0.174420 -0.589133
O10   O     O_R   0.797450 0.735340 0.825580 -0.564587
O11   O     O_R   0.297450 0.764660 0.325580 -0.589048
O12   O     O_R   0.702550 0.235340 0.674420 -0.581730
O13   O     O_R   0.300990 0.096480 0.197920 -0.578129
O14   O     O_R   0.699010 0.903520 0.802080 -0.563280
O15   O     O_R   0.199010 0.596480 0.302080 -0.579788
O16   O     O_R   0.800990 0.403520 0.697920 -0.581698
C5    C     C_R   0.190779 0.433945 0.151082 1.214495
C6    C     C_R   0.810352 0.566864 0.848016 1.205943
C7    C     C_R   0.309953 0.934840 0.348236 1.214451
C8    C     C_R   0.691258 0.064858 0.650710 1.212832
O17   O     O_3   0.282290 0.427760 0.257860 -0.264424
O18   O     O_3   0.717710 0.572240 0.742140 -0.258628
O19   O     O_3   0.217710 0.927760 0.242140 -0.267427
O20   O     O_3   0.782290 0.072240 0.757860 -0.264623
V1    V     V_3+5 0.244010 0.152080 0.248540 1.360284
V2    V     V_3+5 0.755990 0.847920 0.751460 1.371977
V3    V     V_3+5 0.255990 0.652080 0.251460 1.356692
V4    V     V_3+5 0.744010 0.347920 0.748540 1.368009
C9    C     C_R   0.657679 0.044986 0.590968 -0.608914
C10   C     C_R   0.345369 0.946300 0.406673 -0.615205
C11   C     C_R   0.845854 0.566646 0.906661 -0.597384
C12   C     C_R   0.155895 0.445849 0.092206 -0.611163
C13   C     C_R   0.650721 0.965945 0.480682 0.780374
C14   C     C_R   0.355133 0.933475 0.519508 0.786873
C15   C     C_R   0.861951 0.684923 0.013011 0.790466
C16   C     C_R   0.147056 0.475252 0.979447 0.784879
C17   C     C_R   0.680355 0.996023 0.537176 0.625655
C18   C     C_R   0.324279 0.938794 0.463404 0.626936
C19   C     C_R   0.831956 0.679958 0.956162 0.613766
C20   C     C_R   0.177244 0.480908 0.036479 0.627597
C21   C     C_R   0.603513 0.049784 0.588700 0.270854
C22   C     C_R   0.398982 0.977433 0.406875 0.276350
C23   C     C_R   0.894535 0.473145 0.912681 0.289298
C24   C     C_R   0.101975 0.423376 0.090817 0.264409
C25   C     C_R   0.572042 0.998391 0.532189 -0.096369
C26   C     C_R   0.432176 0.959227 0.464301 -0.089689
C27   C     C_R   0.929988 0.509245 0.967233 -0.087365
C28   C     C_R   0.069712 0.450709 0.033373 -0.099829
C29   C     C_R   0.596815 0.968010 0.477277 -0.496509
C30   C     C_R   0.408742 0.937341 0.520698 -0.505852
C31   C     C_R   0.910782 0.599526 0.019469 -0.485805
C32   C     C_R   0.093409 0.457477 0.977099 -0.496811
C33   C     C_R   0.517225 0.972190 0.527961 0.052500
C34   C     C_R   0.487519 0.960606 0.468414 0.057140
C35   C     C_R   0.984349 0.472905 0.970877 0.063707
C36   C     C_R   0.015274 0.482814 0.029715 0.063976
C37   C     C_R   0.514260 0.929835 0.415934 -0.253186
C38   C     C_R   0.491872 0.933918 0.580954 -0.250868
C39   C     C_R   0.992418 0.554164 0.081416 -0.249275
C40   C     C_R   0.009820 0.458180 0.916658 -0.258857
C41   C     C_R   0.567479 0.931756 0.420139 0.943827
C42   C     C_R   0.439077 0.918765 0.577788 0.946758
C43   C     C_R   0.941767 0.614558 0.076326 0.947843
C44   C     C_R   0.063046 0.455578 0.919471 0.939848
H1    H     H_    0.494863 0.889029 0.371318 0.220932
H2    H     H_    0.512365 0.900929 0.625453 0.222575
H3    H     H_    0.014575 0.586074 0.125157 0.214735
H4    H     H_    0.989564 0.470374 0.870719 0.217234
C45   C     C_R   0.444704 0.833571 0.105073 0.736445
C46   C     C_R   0.557100 0.182108 0.900108 0.737406
C47   C     C_R   0.054040 0.331428 0.394627 0.730664
C48   C     C_R   0.943403 0.676607 0.603145 0.741822
C49   C     C_R   0.405217 0.814017 0.144405 0.200536
C50   C     C_R   0.596262 0.199734 0.859815 0.196581
C51   C     C_R   0.093862 0.310026 0.355598 0.200091
C52   C     C_R   0.904942 0.689801 0.644436 0.188295
C53   C     C_R   0.362287 0.941603 0.137913 -0.554931
C54   C     C_R   0.635846 0.055155 0.860791 -0.572761
C55   C     C_R   0.136416 0.440566 0.361207 -0.556869
C56   C     C_R   0.863316 0.555885 0.639304 -0.557326
C57   C     C_R   0.360280 0.085351 0.090418 0.180275
C58   C     C_R   0.634522 0.900059 0.904890 0.188035
C59   C     C_R   0.137772 0.586098 0.408189 0.172843
C60   C     C_R   0.862302 0.408950 0.592739 0.179279
C61   C     C_R   0.400425 0.102673 0.052110 0.734863
C62   C     C_R   0.594470 0.887073 0.943413 0.749851
C63   C     C_R   0.097277 0.605716 0.445928 0.733150
C64   C     C_R   0.901796 0.395732 0.553413 0.745292
C65   C     C_R   0.442413 0.977246 0.059018 -0.467747
C66   C     C_R   0.556039 0.026480 0.941331 -0.470605
C67   C     C_R   0.055540 0.479035 0.439532 -0.463337
C68   C     C_R   0.942073 0.529412 0.557966 -0.466086
C69   C     C_1   0.482604 0.994697 0.017660 0.353907
C70   C     C_1   0.515844 0.010127 0.982762 0.361358
C71   C     C_1   0.015253 0.497436 0.480959 0.355522
C72   C     C_1   0.982085 0.513392 0.516077 0.353640
F1    F     F_    0.590088 0.896145 0.367311 -0.550799
F2    F     F_    0.417922 0.882525 0.631569 -0.551554
F3    F     F_    0.923851 0.694990 0.127452 -0.552143
F4    F     F_    0.084657 0.456224 0.864822 -0.553292
N1    N     N_R   0.417229 0.060339 0.352166 0.241673
O21   O     O_R   0.405099 0.983434 0.297494 -0.412273
O22   O     O_R   0.442039 0.224277 0.356261 -0.322086
N2    N     N_R   0.581564 0.115950 0.642983 0.243305
O23   O     O_R   0.589131 0.017999 0.694702 -0.387341
O24   O     O_R   0.551038 0.265250 0.639588 -0.308306
N3    N     N_R   0.081117 0.353999 0.145655 0.243233
O25   O     O_R   0.048931 0.209588 0.141599 -0.301768
O26   O     O_R   0.093016 0.437990 0.199322 -0.423536
N4    N     N_R   0.905811 0.331609 0.866915 0.247317
O27   O     O_R   0.924641 0.163645 0.884696 -0.338520
O28   O     O_R   0.897871 0.369673 0.807585 -0.368163
F5    F     F_    0.273071 0.951000 0.464950 -0.565200
F6    F     F_    0.731872 0.974687 0.539380 -0.572494
F7    F     F_    0.228105 0.516015 0.037017 -0.570936
F8    F     F_    0.788555 0.787377 0.949506 -0.606928
F9    F     F_    0.675366 0.927174 0.429610 -0.514109
F10   F     F_    0.331884 0.925836 0.572975 -0.509437
F11   F     F_    0.844254 0.786540 0.060457 -0.526093
F12   F     F_    0.170586 0.496583 0.926580 -0.511640
F13   F     F_    0.485284 0.710110 0.111500 -0.573125
F14   F     F_    0.518832 0.315618 0.898139 -0.564922
F15   F     F_    0.014057 0.204834 0.389434 -0.572560
F16   F     F_    0.983275 0.803645 0.608541 -0.570600
N5    N     N_R   0.410393 0.667554 0.191802 0.282962
O29   O     O_R   0.450823 0.667287 0.232217 -0.237848
O30   O     O_R   0.382734 0.510812 0.184857 -0.318599
N6    N     N_R   0.594626 0.365819 0.819023 0.299633
O31   O     O_R   0.577574 0.531372 0.837404 -0.269666
O32   O     O_R   0.601384 0.346234 0.760519 -0.281599
N7    N     N_R   0.089563 0.156772 0.310182 0.285008
O33   O     O_R   0.047071 0.137247 0.273864 -0.203262
O34   O     O_R   0.120611 0.009572 0.316958 -0.331381
N8    N     N_R   0.909973 0.834320 0.692871 0.289928
O35   O     O_R   0.923776 0.010369 0.680558 -0.262114
O36   O     O_R   0.907310 0.784660 0.750687 -0.336703
N9    N     N_R   0.316723 0.210475 0.078735 0.294061
O37   O     O_R   0.270797 0.137026 0.070130 -0.341174
O38   O     O_R   0.323360 0.394125 0.068108 -0.212223
N10   N     N_R   0.675367 0.761739 0.915764 0.284973
O39   O     O_R   0.680538 0.625745 0.874990 -0.334897
O40   O     O_R   0.695063 0.733040 0.972928 -0.204266
N11   N     N_R   0.181939 0.706777 0.421186 0.299586
O41   O     O_R   0.227110 0.627516 0.430329 -0.325530
O42   O     O_R   0.176478 0.890293 0.433177 -0.205362
N12   N     N_R   0.820213 0.276135 0.582954 0.292759
O43   O     O_R   0.828855 0.091027 0.578345 -0.243860
O44   O     O_R   0.773773 0.341846 0.570682 -0.333601
F17   F     F_    0.397628 0.238711 0.006285 -0.567823
F18   F     F_    0.593267 0.736019 0.983772 -0.575364
F19   F     F_    0.099764 0.744020 0.491223 -0.568870
F20   F     F_    0.899937 0.254943 0.508950 -0.568927

loop_
_geom_bond_atom_site_label_1
_geom_bond_atom_site_label_2
_geom_bond_distance
_ccdc_geom_bond_type
O17   V3    1.693092 S    
C23   N4    1.437878 S    
C55   C59   1.421301 A    
O1    C5    1.290670 A    
C59   C63   1.408663 A    
O19   V1    1.691685 S    
C9    C21   1.416559 A    
C46   C66   1.395905 A    
O3    C7    1.288757 A    
N3    O25   1.301301 A    
C10   C18   1.393549 A    
C41   F1    1.358393 S    
C52   C56   1.424221 A    
O15   V3    1.976044 S    
C69   C70   1.213011 T    
C47   C67   1.400132 A    
C33   C38   1.404397 A    
C5    C12   1.488220 S    
C3    C53   1.503393 S    
O7    C3    1.310907 A    
C6    C11   1.490502 S    
N1    O22   1.301464 A    
C35   C40   1.407573 A    
C26   C30   1.425189 A    
C59   N11   1.429047 S    
C36   C39   1.406203 A    
C40   C44   1.390880 A    
O9    V1    1.995893 S    
N11   O42   1.301083 A    
C14   C18   1.384351 A    
N9    O38   1.301199 A    
O4    C8    1.285027 A    
C67   C71   1.456880 S    
C66   C70   1.454019 S    
C22   N1    1.436386 S    
C64   C68   1.396583 A    
C15   F11   1.358621 S    
N2    O23   1.301750 A    
C38   H2    1.074660 S    
O2    V4    1.989805 S    
O3    V1    1.991476 S    
C42   F2    1.358725 S    
C50   N6    1.442375 S    
C28   C36   1.438830 A    
N11   O41   1.301325 A    
C1    O15   1.317467 A    
C15   C31   1.403542 A    
C60   C64   1.406796 A    
C2    O16   1.310122 A    
N6    O31   1.301315 A    
C16   C32   1.407681 A    
O2    C6    1.298323 A    
C10   C22   1.421522 A    
C49   C53   1.424497 A    
C17   F6    1.354916 S    
C62   F18   1.360089 S    
C11   C19   1.398938 A    
C16   C20   1.392135 A    
C27   C31   1.421838 A    
C21   N2    1.429609 S    
C19   F8    1.353399 S    
C13   C29   1.407957 A    
C34   C37   1.406286 A    
O11   C7    1.298112 A    
C11   C23   1.424374 A    
C35   C36   1.434472 A    
O12   C8    1.301764 A    
C61   C65   1.396227 A    
O10   V2    1.995891 S    
O20   V4    2.149206 S    
C62   C66   1.390159 A    
O5    V1    1.972991 S    
O1    V3    1.989809 S    
O17   V1    2.147225 S    
C16   F12   1.358295 S    
C39   C43   1.385727 A    
O7    V3    1.973972 S    
C38   C42   1.382905 A    
C58   N10   1.435677 S    
C26   C34   1.444794 A    
C44   F4    1.358298 S    
N7    O33   1.300816 A    
N10   O40   1.301293 A    
C58   C62   1.406897 A    
C57   N9    1.433310 S    
C57   C61   1.408029 A    
O18   V4    1.693093 S    
C15   C19   1.386350 A    
C20   F7    1.354136 S    
C54   C58   1.434244 A    
O19   V3    2.149209 S    
N4    O28   1.301202 A    
O8    V4    1.973972 S    
O5    C1    1.310208 A    
C50   C54   1.437831 A    
C61   F17   1.359400 S    
C71   C72   1.214972 T    
C14   C30   1.403561 A    
C21   C25   1.442339 A    
O8    C4    1.317988 A    
C7    C10   1.487688 S    
O9    C5    1.296048 A    
N3    O26   1.300906 A    
C49   N5    1.433791 S    
O11   V3    1.992780 S    
C14   F10   1.358783 S    
N8    O36   1.301347 A    
C1    C55   1.512272 S    
C13   F9    1.358413 S    
O6    V2    1.972993 S    
C39   H3    1.077330 S    
O18   V2    2.147225 S    
O14   V2    1.975603 S    
C48   F16   1.358739 S    
N12   O44   1.301108 A    
C12   C20   1.397391 A    
C27   C35   1.441646 A    
C63   F19   1.359430 S    
C64   F20   1.359382 S    
C45   F13   1.358905 S    
C65   C69   1.453498 S    
C29   C41   1.404869 A    
N5    O29   1.300961 A    
O16   V4    1.976046 S    
C37   H1    1.077097 S    
N7    O34   1.300100 A    
C22   C26   1.443533 A    
C3    O13   1.312771 A    
C60   N12   1.431769 S    
C48   C52   1.414641 A    
N10   O39   1.299883 A    
O6    C2    1.313454 A    
C25   C33   1.442105 A    
C23   C27   1.442788 A    
C18   F5    1.349258 S    
N4    O27   1.301443 A    
C30   C42   1.400686 A    
C43   F3    1.358586 S    
O12   V4    1.992782 S    
C51   N7    1.434731 S    
N1    O21   1.299969 A    
C4    C54   1.516543 S    
C8    C9    1.489030 S    
C52   N8    1.437187 S    
C9    C17   1.396855 A    
O10   C6    1.290357 A    
O20   V2    1.691684 S    
C31   C43   1.402312 A    
C32   C44   1.404492 A    
O13   V1    1.975608 S    
C48   C68   1.402349 A    
C51   C55   1.428020 A    
C33   C34   1.432992 A    
C46   F14   1.359316 S    
C56   C60   1.422268 A    
C25   C29   1.422301 A    
C45   C65   1.400096 A    
C68   C72   1.456753 S    
C2    C56   1.504530 S    
N2    O24   1.301478 A    
C12   C24   1.419467 A    
C47   F15   1.358975 S    
C40   H4    1.077626 S    
C13   C17   1.390280 A    
O4    V2    1.991481 S    
N8    O35   1.301288 A    
C63   C67   1.394934 A    
C37   C41   1.389150 A    
C24   C28   1.438456 A    
C24   N3    1.434801 S    
N6    O32   1.297686 A    
C46   C50   1.416545 A    
C4    O14   1.312908 A    
C45   C49   1.410385 A    
N12   O43   1.301009 A    
N9    O37   1.301401 A    
C47   C51   1.414067 A    
C53   C57   1.422775 A    
C28   C32   1.419017 A    
N5    O30   1.300298 A    
