data_mof_unit_23091.cif
_audit_creation_date              2012-12-10T18:45:09-0500
_audit_creation_method            fapswitch 2.2
_symmetry_space_group_name_H-M    P1
_symmetry_Int_Tables_number       1
_space_group_crystal_system       triclinic
_cell_length_a                    10.71661
_cell_length_b                    9.812475
_cell_length_c                    10.674248
_cell_angle_alpha                 91.470758
_cell_angle_beta                  90.132691
_cell_angle_gamma                 89.987087
_cell_volume                      1122.09339934

loop_
_atom_site_label
_atom_site_type_symbol
_atom_type_description
_atom_site_fract_x
_atom_site_fract_y
_atom_site_fract_z
_atom_type_partial_charge
C1    C     C_R   0.259801 0.499956 0.499743 0.873404
C2    C     C_R   0.485468 0.502672 0.739772 0.977435
C3    C     C_R   0.621542 0.723230 0.114635 0.339488
C4    C     C_R   0.474962 0.765349 0.900443 0.375667
C5    C     C_R   0.616177 0.853016 0.061503 0.454240
C6    C     C_R   0.538000 0.875429 0.959707 0.515982
C7    C     C_R   0.495492 0.631248 0.943331 -0.181738
C8    C     C_R   0.547432 0.616059 0.062157 -0.167203
C9    C     C_R   0.518397 0.495127 0.125397 -0.260765
C10   C     C_R   0.467105 0.509901 0.873670 -0.268918
C11   C     C_R   0.469478 0.380892 0.060501 0.561277
C12   C     C_R   0.740187 0.499949 0.499996 0.891460
C13   C     C_R   0.448347 0.387025 0.934330 0.566319
C14   C     C_R   0.063990 0.379410 0.524895 -0.150480
C15   C     C_R   0.936166 0.379411 0.524978 -0.162704
C16   C     C_R   0.872577 0.499935 0.499666 -0.019118
C17   C     C_R   0.127393 0.499945 0.499539 -0.027259
C18   C     C_R   0.935961 0.620435 0.474090 -0.127881
C19   C     C_R   0.063805 0.620440 0.474039 -0.148358
C20   C     C_R   0.576706 0.074272 0.578943 -0.121539
C21   C     C_R   0.423439 0.069966 0.420935 -0.129302
C22   C     C_R   0.576888 0.930190 0.578867 0.595268
C23   C     C_R   0.423345 0.925892 0.420897 0.592084
C24   C     C_R   0.509998 0.498283 0.259677 1.016707
F1    F     F_    0.441166 0.263069 0.118378 -0.572595
F2    F     F_    0.407280 0.273092 0.871897 -0.566828
F3    F     F_    0.682133 0.959331 0.111607 -0.599182
F4    F     F_    0.525460 0.004163 0.917727 -0.554805
F5    F     F_    0.654043 0.864124 0.657663 -0.633627
F6    F     F_    0.346516 0.855595 0.341671 -0.637331
H1    H     H_    0.112773 0.285834 0.545488 0.178271
H2    H     H_    0.887530 0.285847 0.545660 0.172532
H3    H     H_    0.887150 0.714001 0.453510 0.183182
H4    H     H_    0.112457 0.714004 0.453408 0.200577
H5    H     H_    0.637902 0.130925 0.641954 0.200192
H6    H     H_    0.362337 0.123201 0.357887 0.214278
H7    H     H_    0.747310 0.780872 0.237807 0.374635
H8    H     H_    0.379340 0.885828 0.793210 0.380053
N1    N     N_R   0.500000 0.857200 0.500000 -0.187467
N2    N     N_R   0.500000 0.142810 0.500000 -0.149768
O1    O     O_R   0.316770 0.614620 0.499990 -0.586599
O2    O     O_3   0.384056 0.787365 0.810976 -0.702716
O3    O     O_R   0.683230 0.614620 0.500010 -0.579631
O4    O     O_R   0.316800 0.385290 0.500000 -0.632378
O5    O     O_R   0.683200 0.385290 0.500000 -0.640117
O6    O     O_R   0.500010 0.614690 0.316770 -0.554369
O7    O     O_R   0.499990 0.614690 0.683230 -0.544921
O8    O     O_R   0.500040 0.385360 0.316770 -0.571442
O9    O     O_R   0.499960 0.385360 0.683230 -0.576738
O10   O     O_3   0.702569 0.696365 0.212035 -0.737305
Zn1   Zn    Zn3+2 0.500000 0.653120 0.500000 1.094408
Zn2   Zn    Zn3+2 0.500000 0.346880 0.500000 1.035625

loop_
_geom_bond_atom_site_label_1
_geom_bond_atom_site_label_2
_ccdc_geom_bond_type
C7    C10   A    
N1    Zn1   S    
C10   C13   A    
C9    C24   S    
C22   F5    S    
C2    O7    A    
C9    C11   A    
C1    O4    A    
C1    C17   S    
O8    Zn2   S    
C14   H1    S    
O9    Zn2   S    
C24   O6    A    
O4    Zn2   S    
C15   H2    S    
C21   H6    S    
C5    F3    S    
H7    O10   S    
C11   C13   A    
C14   C17   A    
O3    Zn1   S    
C21   N2    A    
C4    O2    S    
C4    C7    A    
C23   N1    A    
C22   N1    A    
C1    O1    A    
C2    O9    A    
C3    O10   S    
C20   C22   A    
H8    O2    S    
C12   O3    A    
C21   C23   A    
C5    C6    A    
C20   N2    A    
C18   H3    S    
C13   F2    S    
C3    C8    A    
C11   F1    S    
C15   C16   A    
C2    C10   S    
C23   F6    S    
C7    C8    A    
C4    C6    A    
C18   C19   A    
C14   C15   A    
C8    C9    A    
O7    Zn1   S    
O5    Zn2   S    
C17   C19   A    
N2    Zn2   S    
C20   H5    S    
O6    Zn1   S    
O1    Zn1   S    
C16   C18   A    
C6    F4    S    
C12   C16   S    
C12   O5    A    
C3    C5    A    
C19   H4    S    
C24   O8    A    
