data_mof_unit_6108.cif
_audit_creation_date              2013-03-05T15:40:46-0500
_audit_creation_method            fapswitch 2.2
_symmetry_space_group_name_H-M    P1
_symmetry_Int_Tables_number       1
_space_group_crystal_system       triclinic
_cell_length_a                    6.920123
_cell_length_b                    17.27323
_cell_length_c                    24.1156
_cell_angle_alpha                 104.479423
_cell_angle_beta                  90.304429
_cell_angle_gamma                 89.917193
_cell_volume                      2791.00880212

loop_
_atom_site_label
_atom_site_type_symbol
_atom_site_description
_atom_site_fract_x
_atom_site_fract_y
_atom_site_fract_z
_atom_type_partial_charge
O1    O     O_R   0.494290 0.391990 0.999150 -0.557476
O2    O     O_R   0.827170 0.534410 0.082350 -0.548770
O3    O     O_R   0.994360 0.608010 0.000850 -0.552361
C1    C     C_R   0.658314 0.552200 0.106051 0.841438
O4    O     O_R   0.824210 0.388010 0.004470 -0.566498
O5    O     O_R   0.991370 0.460560 0.922410 -0.559253
C2    C     C_R   0.654609 0.354851 0.001471 0.858275
O6    O     O_R   0.497270 0.539440 0.077590 -0.564191
O7    O     O_3   0.659770 0.523970 0.973170 -0.274103
V1    V     V_3+5 0.935840 0.495550 0.004980 1.147318
O8    O     O_R   0.320910 0.465590 0.917650 -0.565101
C3    C     C_R   0.151684 0.449361 0.893985 0.846421
O9    O     O_R   0.323870 0.611990 0.995530 -0.562774
C4    C     C_R   0.154343 0.645081 0.998380 0.886127
V2    V     V_3+5 0.435470 0.504450 0.995020 1.142443
O10   O     O_3   0.161670 0.476030 0.026830 -0.273491
C5    C     C_2   0.142832 0.730262 0.998077 -0.240795
H1    H     H_    0.277360 0.761088 0.994703 0.102708
C6    C     C_2   0.972757 0.769796 0.002101 -0.240133
H2    H     H_    0.838245 0.738978 0.005511 0.104219
C7    C     C_R   0.104726 0.232395 0.628719 0.609616
N1    N     N_R   0.098189 0.313690 0.650249 -0.428765
C8    C     C_R   0.068961 0.363787 0.615236 0.657858
C9    C     C_R   0.048110 0.332930 0.555848 -0.030167
C10   C     C_R   0.055935 0.249296 0.532233 -0.032324
C11   C     C_R   0.083607 0.197512 0.568734 -0.030363
C12   C     C_R   0.019786 0.384335 0.519749 -0.059130
C13   C     C_R   0.000444 0.353937 0.460914 -0.042884
C14   C     C_R   0.008418 0.271239 0.436471 -0.026215
C15   C     C_R   0.035714 0.218195 0.472035 -0.035102
C16   C     C_R   0.043737 0.134855 0.447318 -0.045381
C17   C     C_R   0.073332 0.082630 0.483923 -0.088293
C18   C     C_R   0.090329 0.113538 0.544002 -0.073000
C19   C     C_R   0.991833 0.240778 0.376911 0.558306
N2    N     N_R   0.999272 0.160214 0.353074 -0.449976
C20   C     C_R   0.021905 0.107301 0.386647 0.547610
O11   O     O_2   0.133535 0.186139 0.665498 -0.533343
O12   O     O_2   0.059891 0.443474 0.637948 -0.506597
H3    H     H_    0.013040 0.448548 0.536819 0.126955
H4    H     H_    0.979545 0.395757 0.434596 0.142341
O13   O     O_2   0.971172 0.291609 0.342914 -0.539294
O14   O     O_2   0.021099 0.028398 0.361106 -0.513311
C21   C     C_R   0.147084 0.089520 0.261340 -0.019699
H5    H     H_    0.274474 0.079437 0.284975 0.089081
C22   C     C_R   0.141507 0.061077 0.201517 -0.102020
C23   C     C_R   0.976122 0.074995 0.170152 -0.119838
C24   C     C_R   0.817970 0.115658 0.200890 -0.111279
H6    H     H_    0.689095 0.127187 0.178558 0.092295
C25   C     C_R   0.824556 0.143037 0.260678 -0.002531
H7    H     H_    0.700999 0.174187 0.283181 0.087698
C26   C     C_R   0.989678 0.130661 0.291357 0.273342
C27   C     C_R   0.290679 0.385179 0.735830 0.380942
C28   C     C_R   0.299515 0.418896 0.795475 -0.170050
H8    H     H_    0.431980 0.447263 0.814362 0.134703
C29   C     C_R   0.140061 0.415750 0.830847 -0.151494
C30   C     C_R   0.969859 0.378227 0.805590 -0.110494
H9    H     H_    0.844539 0.374332 0.831471 0.104627
C31   C     C_R   0.959735 0.343998 0.746703 -0.012737
H10   H     H_    0.827276 0.315117 0.728305 0.143165
C32   C     C_R   0.117984 0.347123 0.711284 0.211212
C33   C     C_R   0.549976 0.886061 0.614422 0.559061
N3    N     N_R   0.516407 0.834658 0.648386 -0.452269
C34   C     C_R   0.506173 0.753887 0.625579 0.558284
C35   C     C_R   0.531618 0.721419 0.566453 -0.029519
C36   C     C_R   0.565914 0.772752 0.530451 -0.036657
C37   C     C_R   0.573882 0.856655 0.554181 -0.049825
C38   C     C_R   0.524532 0.638552 0.542995 -0.083480
C39   C     C_R   0.549966 0.605496 0.484330 -0.069311
C40   C     C_R   0.583081 0.656028 0.446910 -0.047156
C41   C     C_R   0.591608 0.739925 0.470644 -0.035354
C42   C     C_R   0.625059 0.791253 0.434598 -0.024155
C43   C     C_R   0.631555 0.874157 0.458049 -0.064001
C44   C     C_R   0.605794 0.907219 0.516717 -0.064755
C45   C     C_R   0.604714 0.626605 0.386607 0.593298
N4    N     N_R   0.633539 0.678063 0.352390 -0.432005
C46   C     C_R   0.647698 0.758789 0.375355 0.661818
O15   O     O_2   0.560635 0.965083 0.639160 -0.523758
O16   O     O_2   0.473494 0.704882 0.660217 -0.522594
H11   H     H_    0.498977 0.598712 0.570564 0.147786
O17   O     O_2   0.593311 0.547580 0.361946 -0.540028
O18   O     O_2   0.681697 0.807718 0.340750 -0.486233
H12   H     H_    0.655240 0.914048 0.430404 0.138406
C47   C     C_R   0.479108 0.661071 0.256852 0.349657
C48   C     C_R   0.484662 0.631151 0.196491 -0.177291
C49   C     C_R   0.647342 0.586503 0.169683 -0.162857
C50   C     C_R   0.802462 0.574519 0.204580 -0.105991
H13   H     H_    0.928717 0.541128 0.185819 0.107703
C51   C     C_R   0.796388 0.604006 0.264121 -0.010898
H14   H     H_    0.917359 0.593209 0.289823 0.141874
C52   C     C_R   0.636115 0.647147 0.290723 0.215547
C53   C     C_R   0.318044 0.871339 0.736370 0.007232
H15   H     H_    0.188853 0.853540 0.710874 0.074117
C54   C     C_R   0.303118 0.899560 0.796088 -0.116762
H16   H     H_    0.161702 0.902917 0.815543 0.087954
C55   C     C_R   0.469568 0.922069 0.830197 -0.104130
C56   C     C_R   0.650522 0.916502 0.802841 -0.118935
H17   H     H_    0.781889 0.933493 0.827437 0.097409
C57   C     C_R   0.664839 0.888877 0.743299 -0.005835
H18   H     H_    0.805481 0.884689 0.723288 0.071134
C58   C     C_R   0.499148 0.865742 0.709642 0.287648
C59   C     C_2   0.642966 0.269654 0.001884 -0.254781
H19   H     H_    0.777605 0.238668 0.005248 0.102593
C60   C     C_2   0.472550 0.230301 0.997969 -0.253215
H20   H     H_    0.337910 0.261287 0.994606 0.102431
O19   O     O_R   0.618210 0.960470 0.922400 -0.562833
O20   O     O_R   0.291310 0.111960 0.995450 -0.563947
O21   O     O_R   0.124210 0.039530 0.077580 -0.561975
C61   C     C_R   0.460908 0.145119 0.998425 0.858485
O22   O     O_R   0.288310 0.965490 0.917650 -0.563258
O23   O     O_R   0.121180 0.892010 0.999220 -0.556833
C62   C     C_R   0.457255 0.950639 0.893816 0.829134
O24   O     O_R   0.621230 0.107990 0.000760 -0.558473
O25   O     O_3   0.455770 0.976060 0.026840 -0.259861
V3    V     V_3+5 0.179680 0.004440 0.995020 1.139522
O26   O     O_R   0.791670 0.888040 0.004570 -0.558678
C63   C     C_R   0.961188 0.854920 0.001631 0.864069
O27   O     O_R   0.794680 0.034510 0.082370 -0.549386
C64   C     C_R   0.964463 0.047957 0.106272 0.828194
V4    V     V_3+5 0.680070 0.995560 0.005010 1.150507
O28   O     O_3   0.953840 0.023940 0.973160 -0.277923
N5    N     N_R   0.457017 0.390065 0.701206 0.087663
O29   O     O_R   0.490364 0.335398 0.654283 -0.375999
O30   O     O_R   0.583196 0.446944 0.718335 -0.340360
C65   C     C_1   0.540325 0.519289 0.464957 0.373128
N6    N     N_1   0.532380 0.450270 0.449757 -0.247444
C66   C     C_1   0.609919 0.993496 0.535901 0.336159
N7    N     N_1   0.612905 0.062592 0.550955 -0.256729
N8    N     N_R   0.313555 0.705028 0.284013 0.083502
O31   O     O_R   0.236223 0.688155 0.328644 -0.382909
O32   O     O_R   0.245759 0.764856 0.266134 -0.305644
C67   C     C_1   0.321250 0.646733 0.163110 0.391434
N9    N     N_1   0.190079 0.659442 0.136741 -0.260424
C68   C     C_1   0.090760 0.996657 0.460964 0.335558
N10   N     N_1   0.105288 0.928177 0.443048 -0.220688
C69   C     C_1   0.112368 0.057088 0.579352 0.394384
N11   N     N_1   0.129336 0.011695 0.607163 -0.225846
C70   C     C_1   0.304730 0.014887 0.174369 0.317075
N12   N     N_1   0.435754 0.977648 0.152985 -0.241225

loop_
_geom_bond_atom_site_label_1
_geom_bond_atom_site_label_2
_geom_bond_distance
_ccdc_geom_bond_type
C29   C30   1.405522 A    
C59   H19   1.086561 S    
C20   O14   1.348012 S    
C55   C56   1.410394 A    
C9    C12   1.403166 A    
C47   N8    1.440423 S    
C1    O6    1.295600 A    
N8    O31   1.301230 A    
C39   C65   1.446418 S    
C69   N11   1.157696 T    
C24   C25   1.401061 A    
C28   H8    1.083095 S    
C54   H16   1.082729 S    
O20   V3    2.010108 S    
C13   C14   1.403593 A    
O22   C62   1.302136 A    
N1    C32   1.446290 S    
C15   C16   1.414812 A    
C50   C51   1.399205 A    
C13   H4    1.083299 S    
C31   C32   1.401751 A    
C44   C66   1.446038 S    
C30   H9    1.083077 S    
C23   C64   1.495593 S    
C19   N2    1.367383 A    
C27   C32   1.418051 A    
N4    C52   1.449191 S    
O25   V4    1.702567 S    
O8    V2    1.979865 S    
C33   C37   1.424476 A    
C47   C48   1.418382 A    
C33   O15   1.347994 S    
C39   C40   1.423153 A    
C25   C26   1.402905 A    
C56   C57   1.399305 A    
C8    C9    1.404406 A    
C41   C42   1.408339 A    
O1    V2    2.010753 S    
C53   C58   1.404476 A    
O7    V1    2.156217 S    
O23   V3    2.011639 S    
O21   C64   1.295882 A    
O19   C62   1.295554 A    
C59   C60   1.353052 D    
C45   O17   1.347975 S    
O9    C4    1.298840 A    
C4    C5    1.475225 S    
C33   N3    1.370953 A    
C19   O13   1.349764 S    
C17   C68   1.454459 S    
N1    C8    1.365912 A    
C7    C11   1.427988 A    
C28   C29   1.407659 A    
C45   N4    1.371051 A    
C38   C39   1.398886 A    
C35   C38   1.402252 A    
C38   H11   1.085020 S    
C9    C10   1.415241 A    
C12   H3    1.083337 S    
C53   H15   1.082714 S    
O4    C2    1.300419 A    
C50   H13   1.083029 S    
C1    C49   1.502670 S    
C10   C11   1.415288 A    
C49   C50   1.407213 A    
C37   C44   1.423067 A    
C14   C19   1.404833 A    
C61   O24   1.288681 A    
N2    C20   1.372479 A    
O2    C1    1.305659 A    
N4    C46   1.369057 A    
O21   V3    1.970464 S    
C14   C15   1.414731 A    
C53   C54   1.404502 A    
C27   N5    1.440489 S    
C18   C69   1.454163 S    
C11   C18   1.424547 A    
C24   H6    1.083077 S    
V4    O28   2.150793 S    
C56   H17   1.082766 S    
N3    C34   1.367542 A    
C22   C70   1.443974 S    
C5    H1    1.086601 S    
C40   C45   1.424071 A    
C48   C49   1.426878 A    
C21   C22   1.403272 A    
N5    O29   1.301230 A    
C60   C61   1.476477 S    
O3    C4    1.288826 A    
O22   V3    1.970977 S    
N3    C58   1.445605 S    
C51   C52   1.401103 A    
C25   H7    1.082897 S    
O6    V2    1.975614 S    
C57   C58   1.400864 A    
O9    V2    2.007894 S    
C21   H5    1.084536 S    
N2    C26   1.448893 S    
C68   N10   1.157801 T    
C67   N9    1.157425 T    
O2    V1    1.970923 S    
O23   C63   1.288794 A    
C12   C13   1.390103 A    
C27   C28   1.411438 A    
O25   V3    2.156219 S    
C10   C15   1.422587 A    
C47   C52   1.411965 A    
C23   C24   1.409480 A    
O1    C2    1.288700 A    
C16   C17   1.425046 A    
C43   C44   1.399275 A    
N8    O32   1.301243 A    
C46   O18   1.349626 S    
O5    V1    1.970679 S    
O24   V4    2.011115 S    
O8    C3    1.299811 A    
C8    O12   1.349702 S    
C70   N12   1.157236 T    
C48   C67   1.448111 S    
O26   V4    2.007955 S    
C35   C36   1.408578 A    
C6    H2    1.086616 S    
O27   V4    1.979960 S    
C31   H10   1.082709 S    
O4    V1    2.009990 S    
O3    V1    2.011683 S    
C55   C62   1.492406 S    
O27   C64   1.301260 A    
C17   C18   1.417581 A    
O5    C3    1.295850 A    
C21   C26   1.401575 A    
O26   C63   1.298887 A    
C42   C46   1.407699 A    
O20   C61   1.300438 A    
C6    C63   1.475304 S    
C66   N7    1.157586 T    
C5    C6    1.351551 D    
C30   C31   1.396547 A    
C36   C37   1.419887 A    
O7    V2    1.702838 S    
C40   C41   1.419963 A    
C43   H12   1.085035 S    
N5    O30   1.301554 A    
C3    C29   1.489522 S    
C34   C35   1.407508 A    
C22   C23   1.421506 A    
C42   C43   1.402655 A    
C7    O11   1.347898 S    
C51   H14   1.082406 S    
C54   C55   1.409200 A    
C57   H18   1.082901 S    
C2    C59   1.476469 S    
C60   H20   1.086562 S    
C16   C20   1.428165 A    
O19   V4    1.976691 S    
V1    O10   1.706505 S    
C36   C41   1.423651 A    
C7    N1    1.370740 A    
V3    O28   1.706560 S    
V2    O10   2.150793 S    
C65   N6    1.157651 T    
C34   O16   1.349653 S    
