data_mof_unit_14567.cif
_audit_creation_date              2012-12-10T18:15:20-0500
_audit_creation_method            fapswitch 2.2
_symmetry_space_group_name_H-M    P1
_symmetry_Int_Tables_number       1
_space_group_crystal_system       triclinic
_cell_length_a                    12.581136
_cell_length_b                    13.195717
_cell_length_c                    23.418278
_cell_angle_alpha                 90.752626
_cell_angle_beta                  102.889218
_cell_angle_gamma                 82.320454
_cell_volume                      3755.32285044

loop_
_atom_site_label
_atom_site_type_symbol
_atom_type_description
_atom_site_fract_x
_atom_site_fract_y
_atom_site_fract_z
_atom_type_partial_charge
C1    C     C_R   0.438589 0.691280 0.492592 0.912683
C2    C     C_R   0.422831 0.691140 0.021884 0.542042
C3    C     C_R   0.428442 0.691085 0.962909 -0.259303
C4    C     C_R   0.464515 0.601019 0.936549 -0.090035
C5    C     C_R   0.497270 0.509548 0.969749 -0.019383
C6    C     C_R   0.533638 0.418623 0.943396 -0.011666
C7    C     C_R   0.566253 0.327635 0.976631 -0.155231
C8    C     C_R   0.563193 0.326732 0.035590 -0.149420
C9    C     C_R   0.468292 0.599792 0.877352 0.543633
C10   C     C_R   0.536021 0.421214 0.884107 0.559768
C11   C     C_R   0.600288 0.520585 0.773736 0.588261
C12   C     C_R   0.500817 0.500855 0.610569 0.912857
C13   C     C_R   0.599672 0.515528 0.714045 -0.320986
C14   C     C_R   0.502042 0.504299 0.673037 -0.110422
C15   C     C_R   0.405144 0.497028 0.692086 -0.194514
C16   C     C_R   0.406108 0.499927 0.751383 -0.195905
C17   C     C_R   0.503417 0.510652 0.792023 0.222628
C18   C     C_R   0.584430 0.528883 0.247702 -0.184422
C19   C     C_R   0.586738 0.527403 0.307136 -0.209362
C20   C     C_R   0.496277 0.501161 0.326787 -0.103474
C21   C     C_R   0.403372 0.476675 0.286197 -0.312858
C22   C     C_R   0.399916 0.480271 0.226202 0.587455
C23   C     C_R   0.561234 0.309018 0.506271 0.871785
C24   C     C_R   0.491822 0.504759 0.207495 0.219460
C25   C     C_R   0.709575 0.060544 0.471326 -0.148178
C26   C     C_R   0.598458 0.200415 0.505833 -0.074276
C27   C     C_R   0.311104 0.834479 0.519212 0.451383
C28   C     C_R   0.307982 0.928064 0.547166 -0.308097
C29   C     C_R   0.390738 0.989164 0.548648 0.466550
C30   C     C_R   0.468435 0.965341 0.512487 -0.053843
C31   C     C_R   0.472276 0.869799 0.484853 -0.115653
C32   C     C_R   0.543867 0.031245 0.503800 0.028067
C33   C     C_R   0.631477 0.995922 0.476094 0.042402
C34   C     C_R   0.498951 0.499905 0.389406 0.881182
C35   C     C_R   0.634822 0.900119 0.449857 0.493462
C36   C     C_R   0.550258 0.842191 0.450394 -0.217311
C37   C     C_R   0.527034 0.134731 0.515888 -0.178542
C38   C     C_R   0.693654 0.162640 0.486874 -0.211890
C39   C     C_R   0.401274 0.800756 0.494164 -0.209986
C40   C     C_R   0.086927 0.347637 0.418442 -0.293925
C41   C     C_R   0.800637 0.628274 0.570088 -0.003087
C42   C     C_R   0.906216 0.654998 0.585444 -0.262205
C43   C     C_R   0.987462 0.606236 0.559062 -0.211280
C44   C     C_R   0.963211 0.529731 0.517103 0.010301
C45   C     C_R   0.524954 0.417329 0.121538 0.559178
C46   C     C_R   0.854570 0.504362 0.503630 0.232265
C47   C     C_R   0.041996 0.477142 0.488353 -0.022188
C48   C     C_R   0.010777 0.400160 0.447310 0.195379
C49   C     C_R   0.904063 0.375851 0.435643 -0.287856
C50   C     C_R   0.827402 0.427024 0.463592 -0.218897
C51   C     C_R   0.151238 0.497417 0.498509 -0.052623
C52   C     C_R   0.193444 0.371458 0.430460 0.017827
C53   C     C_R   0.458518 0.596286 0.115970 0.543159
C54   C     C_R   0.458112 0.600026 0.055999 -0.141639
C55   C     C_R   0.494154 0.508894 0.029400 -0.084333
C56   C     C_R   0.527576 0.416825 0.062335 -0.000559
H1    H     H_    0.659347 0.546634 0.337565 0.179049
H2    H     H_    0.750067 0.213368 0.479122 0.155682
H3    H     H_    0.779259 0.034169 0.452417 0.181534
H4    H     H_    0.451683 0.168210 0.527041 0.220713
H5    H     H_    0.404024 0.762175 0.937924 0.206451
H6    H     H_    0.547081 0.773997 0.424143 0.171160
H7    H     H_    0.253774 0.331630 0.408714 0.138295
H8    H     H_    0.879635 0.316676 0.404807 0.161417
H9    H     H_    0.182732 0.554057 0.528780 0.158751
H10   H     H_    0.736955 0.666075 0.590268 0.141599
H11   H     H_    0.067984 0.629689 0.572581 0.163646
H12   H     H_    0.589072 0.255316 0.060139 0.194102
H13   H     H_    0.675478 0.519602 0.700067 0.180172
H14   H     H_    0.328688 0.488793 0.661303 0.178151
H15   H     H_    0.654633 0.548542 0.232699 0.161190
N1    N     N_R   0.491180 0.506041 0.146729 -0.344792
N2    N     N_R   0.503467 0.510795 0.852724 -0.337604
N3    N     N_R   0.222200 0.444670 0.469780 -0.104367
N4    N     N_R   0.776960 0.554790 0.529910 -0.133471
O1    O     O_R   0.366740 0.627150 0.485570 -0.567165
O2    O     O_2   0.427197 0.681503 0.143769 -0.512804
O3    O     O_2   0.436854 0.686411 0.844473 -0.576729
O4    O     O_2   0.569952 0.335129 0.857774 -0.547569
O5    O     O_R   0.544830 0.662520 0.504870 -0.634559
O6    O     O_R   0.410930 0.482340 0.574190 -0.612755
O7    O     O_R   0.589010 0.517710 0.593490 -0.622560
O8    O     O_R   0.455170 0.337480 0.495130 -0.618446
O9    O     O_R   0.633260 0.372850 0.514430 -0.630307
O10   O     O_R   0.410990 0.482290 0.406510 -0.623704
O11   O     O_R   0.589070 0.517660 0.425810 -0.651261
O12   O     O_2   0.556367 0.330211 0.153988 -0.542910
Zn1   Zn    Zn3+2 0.381090 0.476380 0.487110 0.967832
Zn2   Zn    Zn3+2 0.618910 0.523620 0.512890 0.923069
O13   O     O_3   0.388765 0.782111 0.046518 -0.552164
C57   C     C_3   0.272859 0.800910 0.030914 -0.217046
H16   H     H_    0.245260 0.870763 0.053386 0.202621
H17   H     H_    0.235109 0.736866 0.045390 0.153121
H18   H     H_    0.242594 0.815131 0.982945 0.138114
H19   H     H_    0.333913 0.454275 0.300801 0.175595
O14   O     O_3   0.311032 0.452543 0.185657 -0.596231
C58   C     C_3   0.221172 0.530528 0.181371 -0.311201
H20   H     H_    0.242729 0.606017 0.170487 0.185551
H21   H     H_    0.189781 0.535256 0.222243 0.160306
H22   H     H_    0.153372 0.511992 0.145284 0.202609
O15   O     O_3   0.710962 0.870393 0.416257 -0.608337
C59   C     C_3   0.784450 0.786220 0.444010 -0.318006
H23   H     H_    0.850302 0.767982 0.419459 0.191331
H24   H     H_    0.742519 0.717106 0.443549 0.184325
H25   H     H_    0.824790 0.804439 0.489606 0.162300
O16   O     O_3   0.237311 0.769348 0.526030 -0.595176
C60   C     C_3   0.140992 0.793375 0.481821 -0.304574
H26   H     H_    0.158713 0.783995 0.437384 0.169748
H27   H     H_    0.100125 0.872195 0.486691 0.162059
H28   H     H_    0.082251 0.739701 0.485806 0.177312
O17   O     O_3   0.396583 0.067878 0.588259 -0.620207
C61   C     C_3   0.475271 0.033832 0.639537 -0.284656
H29   H     H_    0.558830 0.014436 0.630624 0.161965
H30   H     H_    0.451557 0.967145 0.660076 0.170518
H31   H     H_    0.479206 0.096626 0.671587 0.207855
H32   H     H_    0.246257 0.949207 0.572433 0.189690
H33   H     H_    0.064322 0.288778 0.387068 0.150936
H34   H     H_    0.924962 0.713573 0.617522 0.159865
H35   H     H_    0.747469 0.403755 0.453234 0.213973
H36   H     H_    0.594284 0.256931 0.957244 0.192473
O18   O     O_3   0.696629 0.527352 0.814890 -0.594746
C62   C     C_3   0.723191 0.627613 0.813375 -0.306076
H37   H     H_    0.654579 0.685494 0.820481 0.188557
H38   H     H_    0.746128 0.644035 0.771572 0.153567
H39   H     H_    0.795566 0.634892 0.849459 0.202628
H40   H     H_    0.331470 0.493160 0.765976 0.161213

loop_
_geom_bond_atom_site_label_1
_geom_bond_atom_site_label_2
_ccdc_geom_bond_type
C55   C56   A    
O15   C59   S    
C41   C42   A    
C35   C36   A    
C51   N3    A    
C8    C56   A    
C61   H30   S    
C58   H20   S    
C7    C8    A    
C53   C54   A    
C19   H1    S    
O7    Zn2   S    
C23   O8    A    
C18   C24   A    
C28   C29   A    
C45   O12   S    
C52   N3    A    
C34   O11   A    
C5    C6    A    
C10   N2    A    
C57   H17   S    
O16   C60   S    
C15   C16   A    
C59   H25   S    
C18   C19   A    
C51   H9    S    
C23   C26   S    
O5    Zn2   S    
C2    O13   S    
C61   H29   S    
C28   H32   S    
C38   H2    S    
C19   C20   A    
C45   C56   A    
C27   C39   A    
C16   C17   A    
C60   H26   S    
O1    Zn1   S    
C44   C47   A    
C20   C34   S    
C40   H33   S    
C49   H8    S    
C21   C22   A    
C45   N1    A    
C17   N2    S    
C60   H27   S    
C11   O18   S    
C9    N2    A    
C36   H6    S    
C46   N4    A    
C58   H21   S    
C44   C46   A    
C3    H5    S    
C23   O9    A    
C50   H35   S    
C37   H4    S    
C2    C54   A    
C57   H16   S    
N4    Zn2   S    
C26   C38   A    
C47   C51   A    
C21   H19   S    
C27   O16   S    
C40   C52   A    
O11   Zn2   S    
C34   O10   A    
C53   O2    S    
C43   C44   A    
C29   C30   A    
C25   C38   A    
C41   N4    A    
C47   C48   A    
O14   C58   S    
C12   O7    A    
C32   C37   A    
C59   H24   S    
O18   C62   S    
C6    C7    A    
C48   C49   A    
C12   C14   S    
C8    H12   S    
C60   H28   S    
C22   C24   A    
O9    Zn2   S    
C62   H38   S    
C3    C4    A    
C58   H22   S    
C24   N1    S    
O10   Zn1   S    
C18   H15   S    
C40   C48   A    
C15   H14   S    
C54   C55   A    
C11   C17   A    
O17   C61   S    
C31   C36   A    
C1    O1    A    
C22   O14   S    
C7    H36   S    
C5    C55   A    
C42   H34   S    
C4    C5    A    
C35   O15   S    
C52   H7    S    
C6    C10   A    
C10   O4    S    
C26   C37   A    
C41   H10   S    
C46   C50   A    
C32   C33   A    
C62   H39   S    
C2    C3    A    
C62   H37   S    
C57   H18   S    
C30   C32   A    
C11   C13   A    
O13   C57   S    
C30   C31   A    
C13   H13   S    
C33   C35   A    
C31   C39   A    
C12   O6    A    
O8    Zn1   S    
C9    O3    S    
C29   O17   S    
C59   H23   S    
O6    Zn1   S    
C1    C39   S    
C20   C21   A    
C43   H11   S    
C49   C50   A    
C42   C43   A    
C27   C28   A    
C1    O5    A    
C14   C15   A    
C25   H3    S    
N3    Zn1   S    
C4    C9    A    
C13   C14   A    
C53   N1    A    
C16   H40   S    
C61   H31   S    
C25   C33   A    
