data_mof_unit_50787.cif
_audit_creation_date              2012-12-10T18:02:06-0500
_audit_creation_method            fapswitch 2.2
_symmetry_space_group_name_H-M    P1
_symmetry_Int_Tables_number       1
_space_group_crystal_system       triclinic
_cell_length_a                    10.817271
_cell_length_b                    9.508072
_cell_length_c                    23.498952
_cell_angle_alpha                 90.013027
_cell_angle_beta                  89.512581
_cell_angle_gamma                 90.000552
_cell_volume                      2416.81239451

loop_
_atom_site_label
_atom_site_type_symbol
_atom_type_description
_atom_site_fract_x
_atom_site_fract_y
_atom_site_fract_z
_atom_type_partial_charge
C1    C     C_R   0.262038 0.500029 0.499944 0.769602
C2    C     C_R   0.737962 0.500030 0.500059 0.769706
C3    C     C_R   0.542594 0.387437 0.238398 0.516632
C4    C     C_R   0.458591 0.386506 0.761573 0.517429
C5    C     C_R   0.546716 0.390208 0.298062 -0.391855
C6    C     C_R   0.454062 0.389683 0.701899 -0.393142
C7    C     C_R   0.489607 0.499040 0.328750 -0.198990
C8    C     C_R   0.510468 0.499042 0.671259 -0.198628
C9    C     C_R   0.423869 0.604520 0.299470 0.427242
C10   C     C_R   0.575744 0.604835 0.700585 0.428046
C11   C     C_R   0.427580 0.607207 0.240107 -0.279000
C12   C     C_R   0.572146 0.607301 0.759947 -0.280396
C13   C     C_R   0.487623 0.500468 0.209386 0.207938
C14   C     C_R   0.512884 0.499955 0.790621 0.208639
C15   C     C_R   0.063889 0.372316 0.499691 -0.187725
C16   C     C_R   0.936102 0.627982 0.500324 -0.204069
C17   C     C_R   0.936117 0.372316 0.499845 -0.187598
C18   C     C_R   0.063893 0.627983 0.500146 -0.203965
C19   C     C_R   0.871776 0.500129 0.500125 -0.011481
C20   C     C_R   0.128224 0.500130 0.499878 -0.011587
C21   C     C_R   0.425343 0.074464 0.463997 -0.025970
C22   C     C_R   0.574588 0.925655 0.536003 -0.013874
C23   C     C_R   0.574647 0.074507 0.536006 -0.026165
C24   C     C_R   0.425398 0.925608 0.464000 -0.013433
C25   C     C_R   0.497558 0.499906 0.391047 0.845179
C26   C     C_R   0.502469 0.499927 0.608956 0.845126
C27   C     C_R   0.618036 0.503795 0.881398 0.532520
C28   C     C_R   0.382468 0.503327 0.118613 0.531814
C29   C     C_R   0.397301 0.513120 0.879365 0.603444
C30   C     C_R   0.603133 0.514584 0.120646 0.603063
C31   C     C_R   0.391286 0.512378 0.939005 -0.037522
C32   C     C_R   0.609159 0.513634 0.061006 -0.037562
C33   C     C_R   0.502103 0.510963 0.969982 -0.017524
C34   C     C_R   0.498356 0.511101 0.030028 -0.017559
C35   C     C_R   0.616654 0.508975 0.941070 -0.016160
C36   C     C_R   0.383819 0.508263 0.058941 -0.016078
C37   C     C_R   0.277463 0.512478 0.968265 -0.162206
C38   C     C_R   0.722979 0.514573 0.031744 -0.162154
C39   C     C_R   0.273765 0.509174 0.027613 -0.160185
C40   C     C_R   0.726699 0.510997 0.972397 -0.160172
Cu1   Cu    Cu3+1 0.500000 0.640660 0.500000 0.958647
Cu2   Cu    Cu3+1 0.500000 0.359340 0.500000 0.933459
H1    H     H_    0.190906 0.513397 0.945431 0.187750
H2    H     H_    0.809526 0.516352 0.054579 0.187732
H3    H     H_    0.184471 0.507688 0.048814 0.187089
H4    H     H_    0.816000 0.510182 0.951197 0.187040
H5    H     H_    0.596341 0.308531 0.320417 0.182347
H6    H     H_    0.404770 0.307855 0.679472 0.182203
H7    H     H_    0.382747 0.692425 0.217705 0.179898
H8    H     H_    0.616518 0.692794 0.782390 0.179615
H9    H     H_    0.111985 0.272385 0.499449 0.148650
H10   H     H_    0.887994 0.727900 0.500604 0.146529
H11   H     H_    0.888026 0.272383 0.499707 0.148742
H12   H     H_    0.111996 0.727902 0.500245 0.146726
H13   H     H_    0.365511 0.130620 0.435178 0.121293
H14   H     H_    0.634258 0.869721 0.564813 0.137271
H15   H     H_    0.634473 0.130695 0.564828 0.121345
H16   H     H_    0.365709 0.869630 0.435194 0.137586
N1    N     N_R   0.509366 0.505681 0.851780 -0.442120
N2    N     N_R   0.491120 0.506259 0.148231 -0.442406
N3    N     N_R   0.500000 0.852070 0.500000 -0.162343
N4    N     N_R   0.500000 0.147930 0.500000 -0.157955
O1    O     O_R   0.319640 0.618740 0.500000 -0.596674
O2    O     O_R   0.680360 0.381260 0.500000 -0.589037
O3    O     O_R   0.680360 0.618740 0.500000 -0.596587
O4    O     O_R   0.319640 0.381260 0.500000 -0.588989
O5    O     O_R   0.499960 0.618810 0.417880 -0.545545
O6    O     O_R   0.500040 0.381190 0.582120 -0.589947
O7    O     O_R   0.500040 0.618810 0.582120 -0.545662
O8    O     O_R   0.499960 0.381190 0.417880 -0.589970
O9    O     O_2   0.727018 0.495472 0.853214 -0.554553
O10   O     O_2   0.273540 0.494162 0.146799 -0.554607
O11   O     O_2   0.292037 0.521737 0.849137 -0.516867
O12   O     O_2   0.708331 0.524248 0.150874 -0.516806
O13   O     O_3   0.602000 0.282721 0.207473 -0.579562
C41   C     C_3   0.555617 0.147522 0.221448 0.048019
H17   H     H_    0.518674 0.100031 0.181869 0.171156
H18   H     H_    0.477931 0.147268 0.253081 0.126202
C42   C     C_3   0.661263 0.055374 0.243063 -0.343417
H19   H     H_    0.736731 0.052626 0.210676 0.244362
H20   H     H_    0.698892 0.100920 0.282857 0.214366
C43   C     C_3   0.617810 0.905404 0.254828 -0.862247
H21   H     H_    0.542932 0.905394 0.287459 0.277214
H22   H     H_    0.696122 0.841686 0.270899 0.262769
H23   H     H_    0.583441 0.856319 0.215091 0.258640
O14   O     O_3   0.400177 0.281151 0.792567 -0.579800
C44   C     C_3   0.444640 0.145902 0.777372 0.048671
H24   H     H_    0.482215 0.096287 0.816379 0.170929
H25   H     H_    0.521504 0.145887 0.745326 0.126351
C45   C     C_3   0.337329 0.056058 0.755867 -0.344259
H26   H     H_    0.263324 0.052116 0.788947 0.244018
H27   H     H_    0.298179 0.104270 0.716922 0.214826
C46   C     C_3   0.379084 0.906426 0.742228 -0.861233
H28   H     H_    0.452176 0.907548 0.708742 0.277137
H29   H     H_    0.299430 0.844308 0.726506 0.261576
H30   H     H_    0.415242 0.854877 0.781087 0.259083
O15   O     O_3   0.360135 0.709545 0.328120 -0.617881
C47   C     C_3   0.246289 0.656218 0.349305 0.066563
H31   H     H_    0.222149 0.716355 0.388339 0.158599
H32   H     H_    0.250579 0.543461 0.362363 0.111430
C48   C     C_3   0.143196 0.677466 0.305877 -0.360237
H33   H     H_    0.139729 0.789940 0.293108 0.227956
H34   H     H_    0.162643 0.613038 0.267378 0.245562
C49   C     C_3   0.017754 0.634609 0.330626 -0.868438
H35   H     H_    0.018917 0.522158 0.343457 0.260832
H36   H     H_    0.945062 0.649650 0.298102 0.269215
H37   H     H_    0.994496 0.700379 0.368305 0.251726
O16   O     O_3   0.639048 0.710230 0.671980 -0.617648
C50   C     C_3   0.753255 0.657580 0.650912 0.066519
H38   H     H_    0.777310 0.717786 0.611898 0.158247
H39   H     H_    0.749552 0.544780 0.637848 0.111505
C51   C     C_3   0.856043 0.679542 0.694442 -0.360036
H40   H     H_    0.858857 0.792043 0.707237 0.227871
H41   H     H_    0.836783 0.614985 0.732914 0.245664
C52   C     C_3   0.981812 0.637556 0.669794 -0.868873
H42   H     H_    0.981298 0.525099 0.656926 0.261005
H43   H     H_    0.054268 0.653076 0.702398 0.268986
H44   H     H_    0.004896 0.703502 0.632152 0.251394

loop_
_geom_bond_atom_site_label_1
_geom_bond_atom_site_label_2
_ccdc_geom_bond_type
C38   C40   A    
C44   H24   S    
C48   H33   S    
Cu2   O2    S    
C8    C26   S    
Cu1   Cu2   S    
C10   O16   S    
C25   O5    A    
C41   C42   S    
Cu1   N3    S    
C2    O3    A    
C49   H36   S    
O15   C47   S    
C21   H13   S    
Cu1   O5    S    
C13   N2    S    
C40   H4    S    
C14   N1    S    
C5    H5    S    
C46   H28   S    
C6    H6    S    
C6    C8    A    
C41   H18   S    
C50   H39   S    
C30   O12   S    
C29   O11   S    
C52   H42   S    
Cu2   O8    S    
O16   C50   S    
C23   H15   S    
C51   H40   S    
C33   C35   A    
C23   N4    A    
C29   N1    A    
C12   H8    S    
C52   H43   S    
C30   N2    A    
C31   C33   A    
C32   C38   A    
C3    O13   S    
Cu2   N4    S    
C18   C20   A    
C3    C13   A    
C39   H3    S    
C46   H29   S    
Cu2   O6    S    
C28   O10   S    
C1    O1    A    
C51   H41   S    
C49   H35   S    
C2    O2    A    
C1    O4    A    
C28   N2    A    
C15   C20   A    
C41   H17   S    
C4    C6    A    
C50   C51   S    
C5    C7    A    
O14   C44   S    
C22   H14   S    
C27   C35   A    
C36   C39   A    
C31   C37   A    
C32   C34   A    
C37   H1    S    
O13   C41   S    
C38   H2    S    
C11   H7    S    
C45   H27   S    
C15   H9    S    
C29   C31   A    
C52   H44   S    
C33   C34   A    
C9    C11   A    
C21   N4    A    
C10   C12   A    
C24   N3    A    
C24   H16   S    
C12   C14   A    
C47   H31   S    
C46   H30   S    
C43   H22   S    
C44   H25   S    
C21   C24   A    
Cu1   O1    S    
C43   H23   S    
C17   H11   S    
C27   O9    S    
C45   C46   S    
Cu1   O7    S    
C48   H34   S    
C15   C17   A    
C1    C20   S    
C9    O15   S    
C2    C19   S    
C8    C10   A    
C16   H10   S    
C3    C5    A    
C42   C43   S    
Cu1   O3    S    
C42   H20   S    
C48   C49   S    
C47   C48   S    
C47   H32   S    
C7    C25   S    
C26   O6    A    
C35   C40   A    
C37   C39   A    
C27   N1    A    
C50   H38   S    
C22   N3    A    
C30   C32   A    
C11   C13   A    
C45   H26   S    
C16   C19   A    
C17   C19   A    
C34   C36   A    
C49   H37   S    
C4    C14   A    
C18   H12   S    
C42   H19   S    
C7    C9    A    
C4    O14   S    
C28   C36   A    
C16   C18   A    
C43   H21   S    
C44   C45   S    
Cu2   O4    S    
C26   O7    A    
C22   C23   A    
C25   O8    A    
C51   C52   S    
