data_mof_unit_14907.cif
_audit_creation_date              2012-12-11T16:56:15-0500
_audit_creation_method            fapswitch 2.2
_symmetry_space_group_name_H-M    P1
_symmetry_Int_Tables_number       1
_space_group_crystal_system       triclinic
_cell_length_a                    6.991708
_cell_length_b                    14.542104
_cell_length_c                    16.221631
_cell_angle_alpha                 90.581971
_cell_angle_beta                  90.197875
_cell_angle_gamma                 89.820456
_cell_volume                      1649.21762676

loop_
_atom_site_label
_atom_site_type_symbol
_atom_type_description
_atom_site_fract_x
_atom_site_fract_y
_atom_site_fract_z
_atom_type_partial_charge
O1    O     O_R   0.505830 0.583360 0.413880 -0.530640
O2    O     O_R   0.175830 0.595460 0.585520 -0.545851
O3    O     O_R   0.005520 0.416640 0.586120 -0.536377
C1    C     C_R   0.344594 0.617211 0.614478 0.692637
O4    O     O_R   0.176120 0.594390 0.414490 -0.541697
O5    O     O_R   0.005810 0.415570 0.413870 -0.542611
C2    C     C_R   0.344611 0.616057 0.385837 0.726592
O6    O     O_R   0.505540 0.584430 0.586130 -0.536325
O7    O     O_3   0.339200 0.441330 0.500000 -0.375845
V1    V     V_3+5 0.064350 0.510880 0.500000 1.404658
O8    O     O_R   0.676100 0.404540 0.414480 -0.528834
C3    C     C_R   0.844963 0.382837 0.385681 0.716477
O9    O     O_R   0.675810 0.405610 0.585510 -0.560609
C4    C     C_R   0.846809 0.384023 0.613617 0.635891
V2    V     V_3+5 0.564340 0.489120 0.500000 1.406887
O10   O     O_3   0.839360 0.558670 0.500000 -0.371268
C5    C     C_2   0.726930 0.204849 0.781729 -0.100486
C6    C     C_2   0.887292 0.173484 0.818529 -0.266298
H1    H     H_    0.588859 0.182168 0.804110 0.126920
H2    H     H_    0.026867 0.188813 0.795335 0.173556
C7    C     C_2   0.725024 0.265572 0.707817 -0.240009
C8    C     C_2   0.869645 0.320798 0.684412 0.331770
H3    H     H_    0.595457 0.265023 0.671215 0.090856
C9    C     C_R   0.718890 0.187582 0.237239 0.054010
C10   C     C_R   0.881584 0.180616 0.187322 -0.088530
C11   C     C_R   0.035593 0.239285 0.205959 -0.158370
H4    H     H_    0.160318 0.239007 0.167055 0.155749
C12   C     C_R   0.024027 0.303642 0.271202 -0.147523
H5    H     H_    0.140234 0.350462 0.281882 0.166218
C13   C     C_R   0.857650 0.312916 0.318692 -0.087589
C14   C     C_R   0.705356 0.254662 0.299303 0.053440
C15   C     C_3   0.507785 0.280540 0.273669 -0.006481
C16   C     C_3   0.518481 0.203621 0.209956 -0.410633
H6    H     H_    0.403843 0.267341 0.323735 0.112597
H7    H     H_    0.508725 0.226965 0.145010 0.204859
H8    H     H_    0.425499 0.144134 0.224641 0.140507
C17   C     C_R   0.517172 0.740029 0.696376 0.056389
C18   C     C_R   0.353453 0.686797 0.682171 -0.088818
C19   C     C_R   0.199515 0.699382 0.736852 -0.157776
H9    H     H_    0.074657 0.656509 0.730850 0.153086
C20   C     C_R   0.211762 0.761986 0.803690 -0.146945
H10   H     H_    0.095452 0.767642 0.846567 0.165877
C21   C     C_R   0.379010 0.812309 0.819366 -0.083591
C22   C     C_R   0.531165 0.798834 0.764949 0.044887
C23   C     C_3   0.728448 0.766380 0.784023 0.000993
C24   C     C_3   0.716989 0.706989 0.706705 -0.413503
H11   H     H_    0.832492 0.823574 0.779386 0.103043
H12   H     H_    0.725851 0.631825 0.718133 0.199935
H13   H     H_    0.810173 0.731544 0.656127 0.146770
C25   C     C_R   0.507112 0.681223 0.260510 0.169774
C26   C     C_R   0.352442 0.680845 0.315381 -0.118309
C27   C     C_R   0.200954 0.742172 0.298808 -0.183294
H14   H     H_    0.077799 0.744379 0.338801 0.133583
C28   C     C_R   0.212775 0.805940 0.233933 -0.174305
H15   H     H_    0.097493 0.854802 0.225895 0.127272
C29   C     C_R   0.376795 0.810774 0.183594 -0.119190
C30   C     C_R   0.519166 0.744418 0.196544 0.148006
C31   C     C_3   0.728949 0.756160 0.208727 -0.420536
C32   C     C_3   0.715949 0.686917 0.278067 -0.405709
H16   H     H_    0.765451 0.826668 0.230520 0.157524
H17   H     H_    0.812542 0.730547 0.154992 0.209651
H18   H     H_    0.745733 0.717047 0.340025 0.160575
H19   H     H_    0.791258 0.621139 0.264213 0.203685
O11   O     O_R   0.229930 0.912420 0.917160 -0.544371
O12   O     O_R   0.559420 0.902500 0.088780 -0.536401
O13   O     O_R   0.729660 0.081330 0.089380 -0.538258
C33   C     C_R   0.390636 0.880669 0.117353 0.707853
O14   O     O_R   0.559650 0.901420 0.917750 -0.528303
O15   O     O_R   0.729880 0.080250 0.917130 -0.539511
C34   C     C_R   0.390694 0.878837 0.889451 0.715582
O16   O     O_R   0.229700 0.913500 0.089410 -0.539381
O17   O     O_3   0.396250 0.055540 0.003280 -0.374931
V3    V     V_3+5 0.671130 0.986010 0.003260 1.444812
O18   O     O_R   0.059600 0.091310 0.917720 -0.545032
C35   C     C_R   0.890608 0.111306 0.888994 0.722863
O19   O     O_R   0.059370 0.092380 0.088750 -0.547511
C36   C     C_R   0.890569 0.114498 0.117226 0.693963
V4    V     V_3+5 0.171120 0.007820 0.003230 1.418117
O20   O     O_3   0.896130 0.938240 0.003240 -0.362164
I1    I     I_    0.740110 0.683847 0.894311 -0.387437
O21   O     O_3   0.030990 0.328500 0.734411 -0.562276
C37   C     C_3   0.203872 0.301121 0.694739 0.113561
H20   H     H_    0.309863 0.292372 0.745168 0.112730
H21   H     H_    0.265477 0.357775 0.658243 0.161808
C38   C     C_3   0.197378 0.208230 0.646253 -0.424129
H22   H     H_    0.308675 0.161337 0.671380 0.167150
H23   H     H_    0.059107 0.172103 0.653282 0.200506
C39   C     C_3   0.236264 0.220077 0.554368 -0.751689
H24   H     H_    0.120540 0.260678 0.525063 0.229524
H25   H     H_    0.241696 0.151516 0.523694 0.206549
H26   H     H_    0.375667 0.254720 0.544858 0.225953
I2    I     I_    0.496472 0.414296 0.216283 -0.426300

loop_
_geom_bond_atom_site_label_1
_geom_bond_atom_site_label_2
_ccdc_geom_bond_type
C6    C35   S    
C20   H10   S    
C1    O6    A    
O21   C37   S    
C19   C20   A    
C38   H22   S    
C27   H14   S    
C24   H13   S    
C11   H4    S    
C10   C36   S    
C25   C32   S    
C12   H5    S    
O19   V4    S    
O5    C3    A    
C18   C19   A    
C31   H16   S    
V2    O10   S    
C16   H8    S    
O12   V3    S    
C29   C30   A    
O17   V4    S    
C16   H7    S    
O8    V2    S    
O12   C33   A    
O15   V3    S    
O1    V2    S    
O11   C34   A    
O7    V1    S    
C33   O16   A    
O14   V3    S    
C31   H17   S    
C23   H11   S    
C7    C8    D    
C20   C21   A    
C27   C28   A    
C5    C6    D    
C24   H12   S    
C38   H23   S    
C28   C29   A    
O18   C35   A    
C26   C27   A    
C8    O21   S    
C9    C10   A    
C19   H9    S    
O4    C2    A    
V4    O20   S    
C31   C32   S    
C23   C24   S    
O13   V3    S    
C5    C7    S    
C15   H6    S    
O2    C1    A    
C21   C22   A    
C17   C18   A    
C14   C15   S    
C39   H26   S    
C13   C14   A    
C25   C26   A    
V3    O20   S    
O19   C36   A    
O3    C4    A    
C39   H25   S    
C21   C34   S    
C37   H21   S    
C7    H3    S    
C32   H19   S    
C29   C33   S    
C22   C23   S    
C38   C39   S    
O13   C36   A    
C28   H15   S    
C32   H18   S    
C3    C13   S    
O1    C2    A    
C25   C30   A    
O11   V4    S    
C1    C18   S    
O17   V3    S    
O5    V1    S    
O8    C3    A    
O6    V2    S    
C37   C38   S    
C11   C12   A    
C9    C16   S    
C15   C16   S    
C4    C8    S    
C17   C22   A    
O9    V2    S    
C10   C11   A    
C9    C14   A    
C2    C26   S    
O4    V1    S    
O3    V1    S    
V1    O10   S    
C30   C31   S    
C15   I2    S    
C12   C13   A    
C5    H1    S    
O15   C35   A    
C23   I1    S    
C6    H2    S    
O7    V2    S    
C39   H24   S    
O14   C34   A    
C37   H20   S    
O18   V4    S    
C17   C24   S    
O9    C4    A    
O16   V4    S    
O2    V1    S    
