data_mof_unit_45487.cif
_audit_creation_date              2012-12-11T16:22:09-0500
_audit_creation_method            fapswitch 2.2
_symmetry_space_group_name_H-M    P1
_symmetry_Int_Tables_number       1
_space_group_crystal_system       triclinic
_cell_length_a                    13.487456
_cell_length_b                    14.082573
_cell_length_c                    30.034246
_cell_angle_alpha                 98.038751
_cell_angle_beta                  89.962178
_cell_angle_gamma                 118.76936
_cell_volume                      4936.73574708

loop_
_atom_site_label
_atom_site_type_symbol
_atom_type_description
_atom_site_fract_x
_atom_site_fract_y
_atom_site_fract_z
_atom_type_partial_charge
Br1   Br    Br    0.114802 0.105996 0.695143 -0.466975
Br2   Br    Br    0.394355 0.940430 0.713805 -0.484063
Br3   Br    Br    0.565961 0.361676 0.725861 -0.254469
Br4   Br    Br    0.372302 0.473855 0.280100 -0.501645
Br5   Br    Br    0.117955 0.955261 0.162474 -0.466517
Br6   Br    Br    0.131566 0.658934 0.689390 -0.409615
C1    C     C_R   0.720637 0.098926 0.569219 0.553438
C2    C     C_1   0.345767 0.641479 0.759188 0.095269
C3    C     C_1   0.346022 0.644852 0.719305 0.145527
C4    C     C_R   0.382895 0.787799 0.550687 0.545180
C5    C     C_R   0.303836 0.597629 0.896437 -0.037225
C6    C     C_3   0.249542 0.126713 0.727462 0.126156
C7    C     C_3   0.254321 0.047757 0.757310 -0.066801
C8    C     C_1   0.303722 0.191141 0.878842 0.029138
C9    C     C_1   0.375570 0.127976 0.616501 0.073104
C10   C     C_3   0.326375 0.227120 0.762907 -0.057666
C11   C     C_3   0.332529 0.148404 0.792341 -0.036866
C12   C     C_R   0.342383 0.654060 0.672217 0.036609
C13   C     C_3   0.432070 0.234346 0.740165 0.183300
C14   C     C_3   0.354707 0.135350 0.704789 0.040137
C15   C     C_3   0.439269 0.157247 0.770364 -0.088039
C16   C     C_R   0.399115 0.117318 0.570361 0.560908
C17   C     C_3   0.361302 0.057705 0.734371 0.140901
C18   C     C_1   0.317916 0.166208 0.840391 0.003975
C19   C     C_1   0.364113 0.131786 0.656241 0.076449
C20   C     C_3   0.927638 0.247980 0.732060 -0.097608
C21   C     C_3   0.859660 0.280038 0.766546 0.276513
C22   C     C_1   0.893593 0.204316 0.879036 0.040627
C23   C     C_R   0.257273 0.672820 0.655274 0.159739
C24   C     C_1   0.768273 0.132249 0.614808 0.063885
C25   C     C_3   0.909605 0.153260 0.757915 -0.140913
C26   C     C_3   0.841802 0.186635 0.791927 -0.023902
C27   C     C_3   0.797760 0.076775 0.729052 0.243473
C28   C     C_R   0.718260 0.093623 0.441895 0.554871
C29   C     C_3   0.815382 0.169751 0.703510 0.001752
C30   C     C_3   0.729710 0.108549 0.763396 -0.126585
C31   C     C_3   0.747407 0.203228 0.737482 -0.118233
C32   C     C_1   0.863963 0.194940 0.840235 0.021263
C33   C     C_1   0.795124 0.153265 0.654577 0.052537
C34   C     C_R   0.266250 0.708709 0.613774 -0.076078
C35   C     C_3   0.252161 0.668563 0.258456 0.270478
C36   C     C_3   0.334954 0.751642 0.229953 -0.101280
C37   C     C_1   0.309546 0.607577 0.111157 0.015443
C38   C     C_1   0.366055 0.735120 0.378362 0.089530
C39   C     C_3   0.255943 0.572772 0.228234 -0.064993
C40   C     C_R   0.382106 0.784076 0.424499 0.546142
C41   C     C_3   0.340888 0.656501 0.200335 -0.025585
C42   C     C_3   0.357002 0.590508 0.259180 0.164700
C43   C     C_3   0.351216 0.684800 0.289223 0.036956
C44   C     C_3   0.441853 0.672574 0.230431 -0.093151
C45   C     C_R   0.273361 0.669766 0.831752 -0.073154
C46   C     C_3   0.435863 0.768044 0.261021 -0.164899
C47   C     C_1   0.328622 0.635404 0.151232 -0.020403
C48   C     C_1   0.357617 0.706734 0.338333 0.080383
C49   C     C_R   0.358212 0.134602 0.400557 0.000549
C50   C     C_R   0.438820 0.224761 0.381594 -0.152762
C51   C     C_R   0.425170 0.231989 0.336678 -0.110658
C52   C     C_R   0.395389 0.114756 0.443103 0.563268
C53   C     C_R   0.330427 0.150110 0.309972 -0.008693
C54   C     C_R   0.243777 0.066144 0.328928 -0.050537
C55   C     C_R   0.255091 0.058400 0.374489 0.239899
C56   C     C_R   0.254675 0.652602 0.876675 0.265726
C57   C     C_R   0.238816 0.086080 0.145442 0.172207
C58   C     C_R   0.232738 0.107976 0.101969 -0.086398
C59   C     C_R   0.410478 0.278360 0.119293 -0.128305
C60   C     C_R   0.416743 0.256631 0.162697 -0.132846
C61   C     C_R   0.329014 0.162992 0.176299 0.046466
C62   C     C_1   0.326867 0.153715 0.223009 0.058767
C63   C     C_1   0.326137 0.150352 0.262609 0.040130
C64   C     C_R   0.359604 0.726080 0.588651 -0.054434
C65   C     C_R   0.315634 0.206729 0.089288 -0.009250
C66   C     C_R   0.776252 0.129812 0.400594 0.001965
C67   C     C_R   0.380170 0.573357 0.872141 -0.154496
C68   C     C_R   0.788988 0.057519 0.365516 0.254962
C69   C     C_R   0.816840 0.090125 0.323360 -0.079899
C70   C     C_R   0.832341 0.191162 0.315336 -0.011697
C71   C     C_R   0.829377 0.265738 0.350183 -0.109294
C72   C     C_R   0.802620 0.235689 0.392637 -0.159859
C73   C     C_R   0.878064 0.310387 0.164608 -0.106809
C74   C     C_R   0.901820 0.312737 0.119493 -0.120607
C75   C     C_R   0.863818 0.123914 0.111013 -0.110468
C76   C     C_R   0.436939 0.695088 0.603075 -0.083826
C77   C     C_R   0.839408 0.121616 0.156018 -0.099512
C78   C     C_R   0.397729 0.589698 0.827562 0.176210
C79   C     C_R   0.850583 0.215977 0.183100 0.030249
C80   C     C_1   0.844707 0.217571 0.230551 0.001918
C81   C     C_1   0.840880 0.211307 0.269915 0.007427
C82   C     C_R   0.899839 0.220998 0.092866 0.016436
C83   C     C_R   0.285012 0.231859 0.922525 0.550275
C84   C     C_R   0.267152 0.548244 0.938107 0.573844
C85   C     C_R   0.944980 0.222090 0.923095 0.546210
C86   C     C_R   0.292937 0.243129 0.048802 0.547992
C87   C     C_R   0.275397 0.558801 0.065065 0.553795
C88   C     C_R   0.428828 0.658112 0.644491 0.248221
C89   C     C_R   0.341109 0.635235 0.806690 -0.039792
C90   C     C_R   0.954217 0.233519 0.050020 0.539427
Cr1   Cr    Cr6+3 0.583430 0.162610 0.509470 1.063708
Cr2   Cr    Cr6+3 0.584210 0.916680 0.495400 1.139284
Cr3   Cr    Cr6+3 0.332380 0.920740 0.495100 1.149776
Cr4   Cr    Cr6+3 0.086810 0.177030 0.983130 1.055241
Cr5   Cr    Cr6+3 0.337180 0.419300 0.994610 1.056857
Cr6   Cr    Cr6+3 0.084840 0.422330 0.995830 1.115702
H1    H     H_    0.517139 0.169354 0.788550 0.157048
H2    H     H_    0.520348 0.674172 0.218310 0.154043
H3    H     H_    0.181368 0.492595 0.214471 0.153725
H4    H     H_    0.159438 0.050996 0.079186 0.165144
H5    H     H_    0.168851 0.005197 0.307804 0.205292
H6    H     H_    0.517219 0.286459 0.400461 0.159927
H7    H     H_    0.486804 0.316064 0.186452 0.139027
H8    H     H_    0.475722 0.354837 0.110424 0.151690
H9    H     H_    0.491545 0.298605 0.322211 0.152684
H10   H     H_    0.929307 0.388823 0.106479 0.153119
H11   H     H_    0.886733 0.383623 0.185512 0.155353
H12   H     H_    0.307789 0.293644 0.776324 0.157308
H13   H     H_    0.842426 0.344845 0.344070 0.160712
H14   H     H_    0.795615 0.293451 0.418554 0.152629
H15   H     H_    0.203729 0.729487 0.602678 0.189832
H16   H     H_    0.817781 0.048099 0.170319 0.134709
H17   H     H_    0.861322 0.052094 0.091350 0.150044
H18   H     H_    0.820852 0.034268 0.295613 0.178232
H19   H     H_    0.506246 0.703788 0.582747 0.195664
H20   H     H_    0.421416 0.534387 0.886954 0.193898
H21   H     H_    0.181359 0.970774 0.764660 0.182509
H22   H     H_    0.119641 0.823467 0.899515 0.375318
H23   H     H_    0.008349 0.305791 0.719162 0.171026
H24   H     H_    0.929204 0.565032 0.768438 0.401867
H25   H     H_    0.847432 0.907620 0.753274 0.347593
H26   H     H_    0.962431 0.620679 0.243589 0.372878
H27   H     H_    0.966161 0.837119 0.370330 0.392774
H28   H     H_    0.769887 0.790776 0.326553 0.374482
H29   H     H_    0.345537 0.446449 0.748188 0.308921
H30   H     H_    0.688866 0.638107 0.638084 0.398527
H31   H     H_    0.681613 0.224610 0.728630 0.177959
H32   H     H_    0.649033 0.050688 0.776297 0.177534
H33   H     H_    0.232065 0.707157 0.815671 0.206362
H34   H     H_    0.974570 0.131160 0.767267 0.158622
H35   H     H_    0.325178 0.817663 0.217632 0.163732
H36   H     H_    0.510063 0.848232 0.275053 0.149728
O1    O     O_R   0.493980 0.188910 0.559650 -0.485919
O2    O     O_R   0.170560 0.527890 0.952050 -0.418689
O3    O     O_R   0.987620 0.318470 0.945550 -0.474517
O4    O     O_R   0.678640 0.153520 0.554450 -0.499103
O5    O     O_R   0.976400 0.159270 0.031530 -0.509931
O6    O     O_R   0.194000 0.188570 0.028560 -0.500484
O7    O     O_R   0.365260 0.335720 0.039020 -0.508237
O8    O     O_R   0.330440 0.515580 0.044910 -0.497980
O9    O     O_R   0.177310 0.536200 0.050190 -0.488565
O10   O     O_R   0.993870 0.326170 0.036530 -0.505845
O11   O     O_3   0.169610 0.339550 0.991190 -0.272477
O12   O     O_R   0.480180 0.824400 0.444640 -0.471701
O13   O     O_R   0.698130 0.004030 0.549500 -0.469405
O14   O     O_R   0.481060 0.827210 0.535360 -0.496822
O15   O     O_R   0.309260 0.811560 0.537660 -0.505375
O16   O     O_R   0.341620 0.023400 0.546290 -0.481172
O17   O     O_R   0.493030 0.185890 0.461780 -0.524962
O18   O     O_R   0.677760 0.150720 0.463730 -0.521440
O19   O     O_R   0.697180 0.001010 0.451640 -0.415392
O20   O     O_2   0.052321 0.609945 0.906051 -0.188748
O21   O     O_2   0.220764 0.749334 0.954230 -0.272244
O22   O     O_3   0.168467 0.801005 0.881414 -0.524587
O23   O     O_R   0.308310 0.808540 0.439800 -0.458762
O24   O     O_2   0.818668 0.415545 0.826021 -0.213096
O25   O     O_2   0.017910 0.467178 0.815298 -0.278782
O26   O     O_3   0.901988 0.489605 0.752184 -0.448037
O27   O     O_2   0.634458 0.886896 0.684932 -0.217650
O28   O     O_2   0.829273 0.938384 0.666755 -0.201959
O29   O     O_3   0.765539 0.870597 0.743514 -0.423466
O30   O     O_2   0.074226 0.584494 0.308808 -0.272468
O31   O     O_2   0.150799 0.777277 0.299158 -0.241828
O32   O     O_3   0.032608 0.625712 0.231158 -0.519929
O33   O     O_2   0.158993 0.858067 0.397610 -0.227993
O34   O     O_R   0.340740 0.020600 0.455570 -0.429778
O35   O     O_2   0.122560 0.995302 0.443254 -0.238964
O36   O     O_3   0.019718 0.910574 0.363152 -0.456637
O37   O     O_2   0.829938 0.926654 0.410777 -0.200959
O38   O     O_2   0.638481 0.851185 0.374329 -0.297490
O39   O     O_3   0.800115 0.869073 0.323819 -0.517229
O40   O     O_2   0.599445 0.645421 0.796210 -0.136219
O41   O     O_2   0.503665 0.468553 0.822891 -0.264491
O42   O     O_3   0.428646 0.483651 0.746037 -0.420068
O43   O     O_2   0.574771 0.667444 0.707581 -0.111634
O44   O     O_2   0.469047 0.494936 0.655109 -0.226771
O45   O     O_3   0.500010 0.000010 0.499990 -0.294724
O46   O     O_3   0.635476 0.659359 0.625867 -0.483342
O47   O     O_R   0.969650 0.150960 0.933380 -0.502929
O48   O     O_R   0.187740 0.180870 0.937580 -0.493364
O49   O     O_R   0.358510 0.327410 0.940870 -0.492869
O50   O     O_R   0.324180 0.507870 0.953930 -0.518995
S1    S     S_3+6 0.171372 0.702475 0.906346 0.063452
S2    S     S_3+6 0.901137 0.416789 0.792136 0.068721
S3    S     S_3+6 0.755309 0.939644 0.704008 0.092457
S4    S     S_3+6 0.124695 0.664903 0.276387 0.028628
S5    S     S_3+6 0.138253 0.953364 0.396424 0.077830
S6    S     S_3+6 0.762829 0.923127 0.370043 0.039205
S7    S     S_3+6 0.486387 0.546373 0.798540 0.079061
S8    S     S_3+6 0.527915 0.617891 0.659750 0.116664

loop_
_geom_bond_atom_site_label_1
_geom_bond_atom_site_label_2
_ccdc_geom_bond_type
C2    C3    T    
C49   C50   A    
C68   S6    S    
H26   O32   S    
C76   C88   A    
C55   S5    S    
C83   O48   A    
O21   S1    D    
Cr4   O48   S    
C13   C14   S    
C73   C79   A    
O33   S5    D    
C5    C56   A    
C82   C90   S    
Cr2   O14   S    
C71   C72   A    
C44   H2    S    
Br1   C6    S    
Cr5   O7    S    
C20   C21   S    
C34   C64   A    
C88   S8    S    
C26   C30   S    
C77   H16   S    
C30   C31   S    
C13   C15   S    
O22   S1    S    
Cr2   O12   S    
C29   C33   S    
C7    H21   S    
H24   O26   S    
C9    C19   T    
C14   C19   S    
C78   S7    S    
C43   C48   S    
Cr3   O16   S    
O32   S4    S    
Cr2   O19   S    
C27   C30   S    
C50   C51   A    
C7    C17   S    
C16   O16   A    
O28   S3    D    
C35   C36   S    
Cr1   O18   S    
C8    C18   T    
Cr2   O45   S    
O43   S8    D    
Cr1   O4    S    
C50   H6    S    
C66   C72   A    
Cr6   O10   S    
Cr3   O23   S    
C45   H33   S    
C37   C47   T    
C9    C16   S    
C65   C86   S    
C6    C10   S    
C38   C40   S    
C62   C63   T    
C40   O23   A    
C44   C46   S    
C25   C27   S    
Br3   C13   S    
C21   S2    S    
C26   C32   S    
C56   S1    S    
Cr5   O50   S    
C67   C78   A    
Cr3   O45   S    
C77   C79   A    
C41   C47   S    
C4    O14   A    
C42   C44   S    
C60   C61   A    
C85   O47   A    
C53   C54   A    
C58   C65   A    
C1    C24   S    
C22   C85   S    
C36   H35   S    
C83   O49   A    
C6    C14   S    
C2    C89   S    
O26   S2    S    
C4    O15   A    
C35   C43   S    
C75   C77   A    
C39   H3    S    
Cr1   O45   S    
C41   C44   S    
Cr2   O13   S    
C39   C41   S    
C90   O10   A    
C57   C61   A    
Cr5   O8    S    
C11   C18   S    
O39   S6    S    
C86   O6    A    
C61   C62   S    
C70   C71   A    
Cr4   O6    S    
C66   C68   A    
C68   C69   A    
O20   S1    D    
C80   C81   T    
C10   C11   S    
O41   S7    D    
Cr3   O34   S    
C79   C80   S    
C16   O1    A    
C11   C15   S    
C57   C58   A    
C10   H12   S    
C54   C55   A    
C20   H23   S    
C52   O34   A    
C69   C70   A    
C8    C83   S    
C27   C29   S    
H28   O39   S    
Cr6   O9    S    
Br5   C57   S    
C20   C29   S    
C46   H36   S    
C25   C26   S    
C14   C17   S    
C22   C32   T    
C43   C46   S    
C74   H10   S    
C87   O8    A    
C12   C23   A    
Cr6   O2    S    
C54   H5    S    
C70   C81   S    
O42   S7    S    
C53   C63   S    
C1    O13   A    
C4    C64   S    
C42   C43   S    
Cr6   O3    S    
H22   O22   S    
C73   H11   S    
C5    C67   A    
C12   C88   A    
C31   H31   S    
H27   O36   S    
O44   S8    D    
C59   C60   A    
C49   C55   A    
C28   C66   S    
O24   S2    D    
C29   C31   S    
Br4   C42   S    
C39   C42   S    
Cr5   O49   S    
O31   S4    D    
C76   H19   S    
C35   S4    S    
C40   O12   A    
C86   O7    A    
C72   H14   S    
C69   H18   S    
C25   H34   S    
Cr4   O5    S    
C30   H32   S    
C84   O2    A    
H29   O42   S    
C58   H4    S    
C28   O18   A    
Cr4   O11   S    
O29   S3    S    
O40   S7    D    
C75   H17   S    
O30   S4    D    
O37   S6    D    
C7    C11   S    
C27   S3    S    
O38   S6    D    
C15   C17   S    
Cr4   O47   S    
C74   C82   A    
C59   C65   A    
H30   O46   S    
C90   O5    A    
O35   S5    D    
C5    C84   S    
C51   H9    S    
C84   O50   A    
C21   C31   S    
C10   C13   S    
Cr3   O15   S    
C23   C34   A    
Cr5   O11   S    
C37   C87   S    
C24   C33   T    
C87   O9    A    
O25   S2    D    
C36   C41   S    
Cr1   O17   S    
C60   H7    S    
C64   C76   A    
C59   H8    S    
C75   C82   A    
C51   C53   A    
C52   O17   A    
C21   C26   S    
Cr6   O11   S    
C73   C74   A    
C15   H1    S    
C28   O19   A    
C38   C48   T    
C3    C12   S    
C20   C25   S    
Br6   C23   S    
C6    C7    S    
O36   S5    S    
H25   O29   S    
C67   H20   S    
C78   C89   A    
C49   C52   S    
C36   C46   S    
Br2   C17   S    
C35   C39   S    
C34   H15   S    
C45   C56   A    
O27   S3    D    
C71   H13   S    
Cr1   O1    S    
C1    O4    A    
O46   S8    S    
C45   C89   A    
C85   O3    A    
