data_mof_unit_11691.cif
_audit_creation_date              2012-12-10T20:42:43-0500
_audit_creation_method            fapswitch 2.2
_symmetry_space_group_name_H-M    P1
_symmetry_Int_Tables_number       1
_space_group_crystal_system       triclinic
_cell_length_a                    8.929757
_cell_length_b                    10.722695
_cell_length_c                    9.908522
_cell_angle_alpha                 89.176865
_cell_angle_beta                  89.545171
_cell_angle_gamma                 91.121346
_cell_volume                      948.439851636

loop_
_atom_site_label
_atom_site_type_symbol
_atom_type_description
_atom_site_fract_x
_atom_site_fract_y
_atom_site_fract_z
_atom_type_partial_charge
C1    C     C_R   0.502190 0.260226 0.500532 0.858285
C2    C     C_R   0.438510 0.402033 0.931596 0.119775
C3    C     C_3   0.280755 0.352750 0.930840 0.303028
C4    C     C_R   0.218796 0.499888 0.500309 0.940994
C5    C     C_3   0.283656 0.351446 0.084730 -0.533769
C6    C     C_R   0.500470 0.739813 0.499289 0.913255
C7    C     C_R   0.781216 0.500241 0.499659 0.940101
C8    C     C_1   0.065389 0.500111 0.500350 -0.169573
C9    C     C_1   0.934641 0.500216 0.499364 -0.185685
C10   C     C_R   0.530182 0.062215 0.620602 0.087916
C11   C     C_R   0.517915 0.128780 0.499824 -0.073228
C12   C     C_R   0.520241 0.938119 0.375628 -0.177278
C13   C     C_R   0.524153 0.066634 0.376251 -0.212647
C14   C     C_3   0.038456 0.384851 0.864038 0.102062
C15   C     C_3   0.920250 0.483804 0.872696 -0.737825
C16   C     C_R   0.512617 0.871899 0.498360 -0.075594
C17   C     C_R   0.525791 0.934881 0.619968 0.066333
C18   C     C_3   0.434238 0.926447 0.747593 0.018659
C19   C     C_3   0.438916 0.068015 0.747189 -0.524214
C20   C     C_R   0.439165 0.401892 0.073417 0.096486
C21   C     C_R   0.580798 0.586948 0.068162 0.192230
C22   C     C_R   0.576297 0.588825 0.925031 -0.144814
H1    H     H_    0.522404 0.116264 0.280248 0.173128
H2    H     H_    0.011317 0.313097 0.943821 0.127051
H3    H     H_    0.032640 0.340214 0.763549 0.146269
H4    H     H_    0.940544 0.557260 0.794226 0.278717
H5    H     H_    0.808704 0.439245 0.857745 0.209708
H6    H     H_    0.923050 0.527080 0.973754 0.261611
H7    H     H_    0.272113 0.258853 0.885062 0.050528
H8    H     H_    0.205867 0.418067 0.132130 0.245366
H9    H     H_    0.279792 0.255684 0.129219 0.164340
H10   H     H_    0.514209 0.891838 0.279556 0.195865
H11   H     H_    0.497905 0.884819 0.832483 0.153944
H12   H     H_    0.328460 0.110836 0.729129 0.213778
H13   H     H_    0.503833 0.107690 0.832284 0.183228
H14   H     H_    0.637768 0.660321 0.868368 0.165876
I1    I     I_    0.210281 0.851701 0.725097 -0.348490
I2    I     I_    0.732107 0.716201 0.154948 -0.380827
N1    N     N_R   0.499010 0.499140 0.142800 -0.102678
N2    N     N_R   0.499010 0.499180 0.857150 -0.094413
O1    O     O_R   0.500020 0.316790 0.614690 -0.630859
O2    O     O_R   0.500000 0.316760 0.385350 -0.627689
O3    O     O_R   0.285350 0.500020 0.614650 -0.554774
O4    O     O_R   0.285340 0.499980 0.385310 -0.618304
O5    O     O_R   0.500000 0.683240 0.614650 -0.610095
O6    O     O_R   0.499980 0.683210 0.385310 -0.601630
O7    O     O_R   0.714660 0.500020 0.614690 -0.641384
O8    O     O_R   0.714650 0.499980 0.385350 -0.588910
O9    O     O_3   0.180945 0.441762 0.879965 -0.540378
Zn1   Zn    Zn3+2 0.500010 0.500020 0.653130 0.982304
Zn2   Zn    Zn3+2 0.499990 0.499980 0.346870 0.984223

loop_
_geom_bond_atom_site_label_1
_geom_bond_atom_site_label_2
_ccdc_geom_bond_type
O1    Zn1   S    
C8    C9    T    
N1    Zn2   S    
O3    Zn1   S    
C4    O3    A    
C22   H14   S    
C10   C19   S    
C15   H5    S    
C21   N1    A    
O2    Zn2   S    
C4    C8    S    
C22   N2    A    
C7    O8    A    
C17   C18   S    
C3    O9    S    
C5    C20   S    
C19   H13   S    
C21   C22   A    
C12   H10   S    
C11   C13   A    
C15   H6    S    
O5    Zn1   S    
N2    Zn1   S    
O4    Zn2   S    
C1    O1    A    
C6    O5    A    
C18   I1    S    
C2    C3    S    
O7    Zn1   S    
C14   H3    S    
C6    O6    A    
C18   H11   S    
C14   O9    S    
C10   C11   A    
C10   C17   A    
C2    C20   A    
C2    N2    A    
C1    O2    A    
C12   C13   A    
C13   H1    S    
C7    C9    S    
C5    H8    S    
C14   H2    S    
C3    H7    S    
C20   N1    A    
C14   C15   S    
C18   C19   S    
C15   H4    S    
C4    O4    A    
C3    C5    S    
C6    C16   S    
O6    Zn2   S    
O8    Zn2   S    
C21   I2    S    
C12   C16   A    
C7    O7    A    
C16   C17   A    
C5    H9    S    
C19   H12   S    
C1    C11   S    
