data_mof_unit_44542.cif
_audit_creation_date              2013-03-05T15:48:13-0500
_audit_creation_method            fapswitch 2.2
_symmetry_space_group_name_H-M    P1
_symmetry_Int_Tables_number       1
_space_group_crystal_system       triclinic
_cell_length_a                    15.724382
_cell_length_b                    15.711212
_cell_length_c                    34.60229
_cell_angle_alpha                 90.094887
_cell_angle_beta                  89.743306
_cell_angle_gamma                 120.103666
_cell_volume                      7395.36600129

loop_
_atom_site_label
_atom_site_type_symbol
_atom_site_description
_atom_site_fract_x
_atom_site_fract_y
_atom_site_fract_z
_atom_type_partial_charge
O1    O     O_R   0.498680 0.159540 0.541860 -0.492351
O2    O     O_R   0.840460 0.339140 0.541860 -0.480625
O3    O     O_R   0.660860 0.501320 0.541860 -0.474064
O4    O     O_R   0.159540 0.498680 0.041860 -0.487376
O5    O     O_R   0.339140 0.840460 0.041860 -0.473551
O6    O     O_R   0.501320 0.660860 0.041860 -0.473104
O7    O     O_R   0.532760 0.358060 0.540030 -0.482376
O8    O     O_R   0.641940 0.174700 0.540030 -0.472490
O9    O     O_R   0.825300 0.467240 0.540030 -0.496441
O10   O     O_R   0.358060 0.532760 0.040030 -0.501591
O11   O     O_R   0.174700 0.641940 0.040030 -0.467808
O12   O     O_R   0.467240 0.825300 0.040030 -0.494521
C1    C     C_R   0.576393 0.442504 0.554370 0.586452
C2    C     C_R   0.558439 0.136536 0.555029 0.584250
C3    C     C_R   0.861718 0.420903 0.555371 0.570076
C4    C     C_R   0.440983 0.578360 0.055098 0.571639
C5    C     C_R   0.136174 0.558488 0.054915 0.580603
C6    C     C_R   0.420711 0.861771 0.055298 0.570713
O13   O     O_R   0.498590 0.161190 0.456930 -0.455820
O14   O     O_R   0.838810 0.337400 0.456930 -0.459307
O15   O     O_R   0.662600 0.501410 0.456930 -0.465101
O16   O     O_R   0.161190 0.498590 0.956930 -0.473771
O17   O     O_R   0.337400 0.838810 0.956930 -0.470180
O18   O     O_R   0.501410 0.662600 0.956930 -0.461950
O19   O     O_R   0.532680 0.359580 0.461300 -0.473647
O20   O     O_R   0.640420 0.173100 0.461300 -0.525136
O21   O     O_R   0.826900 0.467320 0.461300 -0.477674
O22   O     O_R   0.359580 0.532680 0.961300 -0.482867
O23   O     O_R   0.173100 0.640420 0.961300 -0.476632
O24   O     O_R   0.467320 0.826900 0.961300 -0.474981
C7    C     C_R   0.577424 0.442560 0.445546 0.580654
C8    C     C_R   0.557633 0.135105 0.445491 0.565551
C9    C     C_R   0.865176 0.422729 0.445526 0.594575
C10   C     C_R   0.442979 0.576727 0.945721 0.581316
C11   C     C_R   0.134723 0.557371 0.945638 0.582152
C12   C     C_R   0.422775 0.865161 0.945538 0.577071
Cr1   Cr    Cr6+3 0.522350 0.263930 0.500020 1.165135
Cr2   Cr    Cr6+3 0.736070 0.258420 0.500020 1.133140
Cr3   Cr    Cr6+3 0.741580 0.477650 0.500020 1.165385
Cr4   Cr    Cr6+3 0.263930 0.522350 0.000020 1.143547
Cr5   Cr    Cr6+3 0.258420 0.736070 0.000020 1.171121
Cr6   Cr    Cr6+3 0.477650 0.741580 0.000020 1.158657
O25   O     O_3   0.666667 0.333333 0.499990 -0.324703
O26   O     O_3   0.333333 0.666667 0.999990 -0.332492
N1    N     N_R   0.937921 0.424218 0.773419 -0.096867
N2    N     N_R   0.571758 0.496891 0.772589 -0.098430
N3    N     N_R   0.514675 0.087173 0.775510 -0.108860
N4    N     N_R   0.414290 0.938120 0.273374 -0.094321
N5    N     N_R   0.517607 0.573052 0.272358 -0.093655
N6    N     N_R   0.083270 0.506108 0.275077 -0.105082
N7    N     N_R   0.924208 0.415152 0.735463 -0.103363
N8    N     N_R   0.578742 0.494266 0.734301 -0.105449
N9    N     N_R   0.519044 0.101119 0.737495 -0.116043
N10   N     N_R   0.404990 0.924877 0.235391 -0.098302
N11   N     N_R   0.512288 0.581546 0.234397 -0.095001
N12   N     N_R   0.097565 0.510355 0.237074 -0.082371
C13   C     C_R   0.912888 0.452298 0.593031 -0.047831
C14   C     C_R   0.538137 0.465889 0.590144 -0.000191
C15   C     C_R   0.537427 0.082261 0.592275 -0.008239
C16   C     C_R   0.450587 0.911137 0.093277 -0.049870
C17   C     C_R   0.460283 0.545387 0.092477 -0.026702
C18   C     C_R   0.082432 0.538103 0.092267 -0.000943
C19   C     C_R   0.991997 0.436221 0.601803 -0.011022
C20   C     C_R   0.591352 0.561646 0.606493 0.010232
C21   C     C_R   0.438504 0.021337 0.604727 -0.021524
C22   C     C_R   0.441544 0.994864 0.101513 -0.007177
C23   C     C_R   0.554742 0.558832 0.100704 0.016269
C24   C     C_R   0.016732 0.439321 0.103635 0.014291
C25   C     C_R   0.025090 0.445552 0.640522 -0.053540
C26   C     C_R   0.585715 0.573550 0.646884 -0.044398
C27   C     C_R   0.417766 0.999359 0.644566 -0.060933
C28   C     C_R   0.449769 0.027957 0.140247 -0.049379
C29   C     C_R   0.578495 0.547718 0.139230 -0.034267
C30   C     C_R   0.993555 0.416730 0.143314 -0.029654
C31   C     C_R   0.979053 0.471502 0.669655 -0.019666
C32   C     C_R   0.517440 0.492825 0.669226 -0.008071
C33   C     C_R   0.496042 0.038620 0.671263 -0.016865
C34   C     C_R   0.466786 0.976694 0.169911 -0.020735
C35   C     C_R   0.507472 0.523273 0.168701 -0.010043
C36   C     C_R   0.036748 0.493037 0.170919 0.002155
C37   C     C_R   0.907912 0.497200 0.660214 0.221626
C38   C     C_R   0.451299 0.403105 0.651535 0.179557
C39   C     C_R   0.594213 0.089469 0.658331 0.179775
C40   C     C_R   0.484915 0.899737 0.161126 0.223579
C41   C     C_R   0.410957 0.499806 0.159709 0.229599
C42   C     C_R   0.093200 0.591801 0.159111 0.191133
C43   C     C_R   0.873846 0.486496 0.622200 -0.029360
C44   C     C_R   0.460091 0.389581 0.611824 -0.036538
C45   C     C_R   0.615243 0.107721 0.618820 -0.036613
C46   C     C_R   0.475638 0.865968 0.123068 -0.030878
C47   C     C_R   0.387262 0.511553 0.121864 -0.019676
C48   C     C_R   0.112942 0.614914 0.119837 -0.039758
N13   N     N_R   0.090596 0.529501 0.725255 -0.181621
N14   N     N_R   0.440725 0.512615 0.727707 -0.169692
N15   N     N_R   0.430836 0.930755 0.727751 -0.187745
N16   N     N_R   0.529044 0.088069 0.225541 -0.181458
N17   N     N_R   0.560486 0.464449 0.224300 -0.187896
N18   N     N_R   0.927538 0.428822 0.227194 -0.191015
N19   N     N_R   0.104486 0.538098 0.763294 -0.222581
N20   N     N_R   0.434147 0.515884 0.765963 -0.226713
N21   N     N_R   0.426331 0.916788 0.765752 -0.220590
N22   N     N_R   0.537762 0.101598 0.263598 -0.224267
N23   N     N_R   0.566529 0.456476 0.262353 -0.226586
N24   N     N_R   0.913196 0.424252 0.265202 -0.210644
C49   C     C_R   0.027860 0.487223 0.787921 0.354736
C50   C     C_R   0.498837 0.507008 0.789065 0.341483
C51   C     C_R   0.469324 0.994723 0.790130 0.353564
C52   C     C_R   0.482305 0.026077 0.288066 0.342384
C53   C     C_R   0.542973 0.509012 0.286952 0.355563
C54   C     C_R   0.990871 0.464372 0.289649 0.349050
C55   C     C_R   0.999871 0.468545 0.710776 0.339429
C56   C     C_R   0.513112 0.501724 0.711319 0.356961
C57   C     C_R   0.477918 0.023158 0.713012 0.349548
C58   C     C_R   0.463285 0.998983 0.210873 0.336494
C59   C     C_R   0.532221 0.526473 0.209758 0.339336
C60   C     C_R   0.020026 0.472796 0.212514 0.348479
C61   C     C_R   0.016253 0.423826 0.854409 0.181083
C62   C     C_R   0.570436 0.580099 0.853029 0.180041
C63   C     C_R   0.420326 0.003376 0.857522 0.183719
C64   C     C_R   0.421261 0.014050 0.355213 0.176965
C65   C     C_R   0.595630 0.573814 0.353269 0.176169
C66   C     C_R   0.001919 0.418679 0.357191 0.211500
C67   C     C_R   0.031781 0.439340 0.894338 0.170416
C68   C     C_R   0.559365 0.591046 0.892792 0.159610
C69   C     C_R   0.415392 0.978382 0.896745 0.169997
C70   C     C_R   0.438625 0.029914 0.395029 0.170183
C71   C     C_R   0.594573 0.559500 0.393363 0.163892
C72   C     C_R   0.978688 0.415841 0.396581 0.207722
C73   C     C_R   0.086434 0.614020 0.885344 -0.046911
C74   C     C_R   0.389873 0.454222 0.890184 -0.042372
C75   C     C_R   0.526397 0.914054 0.884516 -0.046860
C76   C     C_R   0.613679 0.089134 0.384154 -0.043369
C77   C     C_R   0.473259 0.384927 0.385057 -0.046515
C78   C     C_R   0.911775 0.524445 0.384214 -0.046647
C79   C     C_R   0.067717 0.597664 0.845237 -0.070764
C80   C     C_R   0.402539 0.440406 0.850487 -0.068756
C81   C     C_R   0.532515 0.940703 0.845116 -0.068561
C82   C     C_R   0.594134 0.064532 0.344547 -0.028722
C83   C     C_R   0.472007 0.400065 0.344782 -0.069936
C84   C     C_R   0.937139 0.528930 0.344675 -0.066807
C85   C     C_R   0.040638 0.504049 0.829718 -0.052684
C86   C     C_R   0.489998 0.509643 0.831423 -0.051619
C87   C     C_R   0.473219 0.978353 0.831530 -0.052718
C88   C     C_R   0.500147 0.037541 0.329809 -0.066076
C89   C     C_R   0.539415 0.493019 0.328860 -0.053018
C90   C     C_R   0.974850 0.469374 0.331090 -0.045136
C91   C     C_R   0.077528 0.536273 0.909216 -0.030520
C92   C     C_R   0.465366 0.536574 0.910264 -0.035120
C93   C     C_R   0.460694 0.925114 0.909638 -0.038941
C94   C     C_R   0.536398 0.078126 0.408936 -0.075725
C95   C     C_R   0.542152 0.463084 0.408753 -0.031971
C96   C     C_R   0.924544 0.460347 0.409470 -0.025355
C97   C     C_2   0.037205 0.405643 0.570930 0.363582
H1    H     H_    0.059836 0.352181 0.576944 0.168860
O27   O     O_2   0.051460 0.441638 0.538659 -0.382921
C98   C     C_2   0.645743 0.649393 0.580972 0.339863
H2    H     H_    0.708230 0.716592 0.591257 0.190445
O28   O     O_2   0.618209 0.648612 0.547953 -0.400272
C99   C     C_2   0.356635 0.983266 0.576358 0.350520
H3    H     H_    0.286809 0.977009 0.584115 0.159772
O29   O     O_2   0.366122 0.956877 0.544202 -0.383499
C100  C     C_2   0.418995 0.044812 0.070029 0.366179
H4    H     H_    0.370836 0.074436 0.075378 0.165177
O30   O     O_2   0.455671 0.055012 0.037980 -0.386716
C101  C     C_2   0.630076 0.589105 0.069548 0.365621
H5    H     H_    0.706956 0.639677 0.075701 0.168746
O31   O     O_2   0.607114 0.556316 0.036846 -0.395453
C102  C     C_2   0.975421 0.359315 0.074280 0.368686
H6    H     H_    0.963355 0.286775 0.081220 0.168498
O32   O     O_2   0.952974 0.373496 0.042179 -0.388933
C103  C     C_2   0.791949 0.504613 0.614166 0.322918
H7    H     H_    0.725583 0.447776 0.600683 0.069285
O33   O     O_2   0.798459 0.583055 0.622709 -0.404743
C104  C     C_2   0.387457 0.294377 0.594159 0.322915
H8    H     H_    0.363404 0.225985 0.609680 0.126550
O34   O     O_2   0.350065 0.292105 0.563036 -0.403052
C105  C     C_2   0.719428 0.152559 0.606294 0.304825
H9    H     H_    0.776309 0.217882 0.620492 0.126776
O35   O     O_2   0.742963 0.113798 0.581072 -0.424866
C106  C     C_2   0.484090 0.777686 0.115434 0.317362
H10   H     H_    0.427903 0.717746 0.098754 0.050356
O36   O     O_2   0.553624 0.771653 0.127647 -0.438271
C107  C     C_2   0.287699 0.495996 0.114362 0.315380
H11   H     H_    0.279663 0.552862 0.100182 0.064258
O37   O     O_2   0.214360 0.419848 0.124200 -0.449646
C108  C     C_2   0.165560 0.720372 0.108689 0.297417
H12   H     H_    0.233828 0.772017 0.122717 0.117583
O38   O     O_2   0.130206 0.751028 0.084934 -0.413948
N25   N     N_R   0.004866 0.357078 0.919695 0.123857
O39   O     O_R   0.029394 0.291348 0.911491 -0.226545
O40   O     O_R   0.958623 0.349718 0.951907 -0.201956
N26   N     N_R   0.643191 0.658278 0.915358 0.121235
O41   O     O_R   0.659713 0.630426 0.948514 -0.200688
O42   O     O_R   0.704502 0.746225 0.902684 -0.198716
N27   N     N_R   0.360157 0.002924 0.923177 0.124913
O43   O     O_R   0.398318 0.044606 0.956047 -0.201944
O44   O     O_R   0.270811 0.981340 0.915026 -0.206593
N28   N     N_R   0.357449 0.001756 0.421232 0.125794
O45   O     O_R   0.290472 0.025084 0.414131 -0.205815
O46   O     O_R   0.352735 0.956211 0.453243 -0.208562
N29   N     N_R   0.649968 0.642416 0.418416 0.123875
O47   O     O_R   0.610819 0.650699 0.450389 -0.209972
O48   O     O_R   0.740598 0.707675 0.410258 -0.197550
N30   N     N_R   0.006167 0.363871 0.423305 0.127358
O49   O     O_R   0.047378 0.404504 0.455936 -0.213924
O50   O     O_R   0.988276 0.275285 0.415624 -0.179045
C109  C     C_2   0.105752 0.426541 0.651361 0.276079
H13   H     H_    0.104246 0.393923 0.679150 0.163935
O51   O     O_2   0.176563 0.450652 0.630186 -0.430302
C110  C     C_2   0.648266 0.669509 0.666501 0.287936
H14   H     H_    0.617489 0.693015 0.689487 0.148377
O52   O     O_2   0.735596 0.720169 0.658929 -0.396687
C111  C     C_2   0.315055 0.937954 0.659062 0.266061
H15   H     H_    0.293864 0.954553 0.686706 0.163525
O53   O     O_2   0.254405 0.866008 0.641204 -0.431998
C112  C     C_2   0.438935 0.114228 0.150510 0.269442
H16   H     H_    0.405243 0.115568 0.177765 0.153266
O54   O     O_2   0.471050 0.186284 0.129510 -0.432960
C113  C     C_2   0.677280 0.563406 0.149517 0.273902
H17   H     H_    0.709896 0.595467 0.177186 0.157790
O55   O     O_2   0.721441 0.537046 0.128007 -0.431560
C114  C     C_2   0.926835 0.313942 0.156667 0.279738
H18   H     H_    0.940899 0.288808 0.183807 0.163702
O56   O     O_2   0.853456 0.257774 0.138451 -0.437205
N31   N     N_R   0.866969 0.530434 0.689942 0.131560
O57   O     O_R   0.773231 0.481251 0.697570 -0.250837
O58   O     O_R   0.924266 0.606719 0.710889 -0.231513
N32   N     N_R   0.375713 0.324819 0.674197 0.067891
O59   O     O_R   0.283563 0.290214 0.665784 -0.261472
O60   O     O_R   0.398794 0.288322 0.703366 -0.283548
N33   N     N_R   0.673168 0.119483 0.685484 0.086849
O61   O     O_R   0.680131 0.054060 0.706093 -0.256082
O62   O     O_R   0.733569 0.212504 0.691720 -0.304053
N34   N     N_R   0.508771 0.852804 0.191512 0.128637
O63   O     O_R   0.450606 0.760000 0.199168 -0.225128
O64   O     O_R   0.585472 0.904279 0.213081 -0.250719
N35   N     N_R   0.337714 0.468319 0.189795 0.123944
O65   O     O_R   0.296062 0.519877 0.197922 -0.237381
O66   O     O_R   0.317327 0.391622 0.210738 -0.254017
N36   N     N_R   0.127475 0.669575 0.187196 0.087008
O67   O     O_R   0.064867 0.680789 0.208148 -0.257997
O68   O     O_R   0.221125 0.724576 0.193762 -0.284907
N37   N     N_R   0.976048 0.326301 0.838899 0.125550
O69   O     O_R   0.024437 0.307450 0.812927 -0.254785
O70   O     O_R   0.890961 0.256041 0.850798 -0.176469
N38   N     N_R   0.663453 0.641503 0.834485 0.127792
O71   O     O_R   0.740585 0.637163 0.844912 -0.168851
O72   O     O_R   0.671378 0.702330 0.807346 -0.249096
N39   N     N_R   0.370846 0.053668 0.844087 0.125656
O73   O     O_R   0.388422 0.135889 0.860105 -0.182016
O74   O     O_R   0.307072 0.016811 0.816246 -0.242001
N40   N     N_R   0.323254 0.974295 0.340575 0.126420
O75   O     O_R   0.303223 0.024099 0.315882 -0.246191
O76   O     O_R   0.253717 0.888381 0.352070 -0.178451
N41   N     N_R   0.654328 0.670733 0.337303 0.126371
O77   O     O_R   0.640618 0.742050 0.348533 -0.182759
O78   O     O_R   0.721376 0.687857 0.311428 -0.241400
N42   N     N_R   0.052417 0.369266 0.343680 0.131941
O79   O     O_R   0.136330 0.389788 0.358678 -0.187279
O80   O     O_R   0.014286 0.302968 0.316670 -0.216188
C115  C     C_2   0.120049 0.713682 0.901283 0.364651
H19   H     H_    0.177812 0.778115 0.886733 0.137023
O81   O     O_2   0.080264 0.724545 0.929740 -0.365627
C116  C     C_2   0.296366 0.384141 0.909765 0.366814
H20   H     H_    0.226640 0.362219 0.895878 0.161387
O82   O     O_2   0.296943 0.347359 0.940755 -0.380702
C117  C     C_2   0.583179 0.867938 0.898046 0.366443
H21   H     H_    0.578032 0.805400 0.882584 0.129370
O83   O     O_2   0.639381 0.902529 0.925319 -0.358044
C118  C     C_2   0.715630 0.131734 0.398856 0.357575
H22   H     H_    0.729371 0.105879 0.425876 0.165662
O84   O     O_2   0.784749 0.197336 0.381162 -0.446067
C119  C     C_2   0.405695 0.286013 0.401400 0.367880
H23   H     H_    0.397453 0.220745 0.387121 0.141557
O85   O     O_2   0.355554 0.276744 0.429863 -0.359920
C120  C     C_2   0.865973 0.581789 0.397870 0.364307
H24   H     H_    0.803662 0.577009 0.382530 0.125480
O86   O     O_2   0.900759 0.638332 0.425106 -0.361475
C121  C     C_2   0.071808 0.676103 0.819470 0.287667
H25   H     H_    0.091414 0.679913 0.789250 0.168244
O87   O     O_2   0.049292 0.735419 0.831337 -0.375339
C122  C     C_2   0.327577 0.351804 0.828890 0.300633
H26   H     H_    0.320223 0.353881 0.797874 0.173869
O88   O     O_2   0.275873 0.273396 0.845201 -0.370545
C123  C     C_2   0.601967 0.931939 0.817801 0.295390
H27   H     H_    0.587159 0.922563 0.787077 0.164934
O89   O     O_2   0.678852 0.939150 0.828979 -0.368118
C124  C     C_2   0.668960 0.060797 0.318831 0.356758
H28   H     H_    0.670942 0.074350 0.288104 0.158824
O90   O     O_2   0.726882 0.037618 0.331504 -0.355854
C125  C     C_2   0.397694 0.320925 0.319278 0.289423
H29   H     H_    0.415033 0.313872 0.289571 0.164987
O91   O     O_2   0.314408 0.264568 0.330787 -0.369195
C126  C     C_2   0.927651 0.597539 0.317322 0.292647
H30   H     H_    0.916745 0.581479 0.286711 0.165961
O92   O     O_2   0.936041 0.675251 0.328336 -0.371590

loop_
_geom_bond_atom_site_label_1
_geom_bond_atom_site_label_2
_geom_bond_distance
_ccdc_geom_bond_type
O14   Cr2   2.084800 S    
N21   C51   1.356163 A    
O7    C1    1.250953 A    
N24   C54   1.356430 A    
C103  H7    1.082721 S    
N41   O78   1.301268 A    
N38   O72   1.301206 A    
O20   C8    1.255378 A    
C101  H5    1.084567 S    
N16   N22   1.330235 A    
C28   C34   1.412552 A    
C63   C87   1.405459 A    
N29   O47   1.301416 A    
C24   C30   1.418201 A    
C61   C85   1.407630 A    
C125  H29   1.081974 S    
C77   C95   1.422631 A    
C35   C41   1.406596 A    
C21   C99   1.488463 S    
C76   C118  1.485452 S    
C83   C125  1.496132 S    
C41   C47   1.400654 A    
O23   Cr5   1.959666 S    
C111  H15   1.085140 S    
O21   C9    1.252881 A    
N4    N10   1.327550 A    
O16   C11   1.251782 A    
C103  O33   1.220342 D    
C29   C113  1.490273 S    
N39   O73   1.301234 A    
C37   N31   1.440410 S    
C79   C121  1.497149 S    
C40   N34   1.439968 S    
N40   O76   1.301209 A    
C98   H2    1.080756 S    
C125  O91   1.221055 D    
C17   C47   1.419161 A    
C112  O54   1.220911 D    
C65   C71   1.404497 A    
C35   C59   1.468816 S    
C107  O37   1.221045 D    
C78   C84   1.415291 A    
C126  H30   1.082768 S    
C73   C115  1.484882 S    
C12   C93   1.489875 S    
C75   C117  1.481591 S    
N1    N7    1.327706 A    
C76   C82   1.415978 A    
N37   O69   1.301298 A    
O17   C12   1.251904 A    
N2    N8    1.331196 A    
C78   C96   1.423214 A    
O9    Cr3   1.977248 S    
C44   C104  1.484900 S    
C122  O88   1.220887 D    
C22   C100  1.487897 S    
O10   Cr4   1.977116 S    
C119  O85   1.221127 D    
C72   N30   1.438216 S    
C61   C67   1.403613 A    
N25   O40   1.301237 A    
O2    Cr2   2.079846 S    
C104  H8    1.085583 S    
C80   C86   1.415375 A    
O13   Cr1   2.088134 S    
C71   C95   1.415582 A    
C73   C79   1.416051 A    
C10   C92   1.497842 S    
C98   O28   1.221482 D    
C72   C96   1.416137 A    
C22   C28   1.419567 A    
C19   C25   1.419990 A    
O21   Cr3   1.955222 S    
C116  H20   1.084888 S    
N37   O70   1.301215 A    
C18   C48   1.419914 A    
C42   N36   1.438088 S    
C121  H25   1.082066 S    
C99   O29   1.221163 D    
N22   C52   1.357886 A    
N28   O45   1.301415 A    
C23   C29   1.420472 A    
C20   C26   1.418052 A    
C97   O27   1.220528 D    
C80   C122  1.498057 S    
N13   N19   1.330733 A    
C41   N35   1.440260 S    
O3    C1    1.253143 A    
C37   C43   1.400223 A    
O1    Cr1   2.077293 S    
N3    N9    1.329679 A    
C18   C24   1.421501 A    
O19   Cr1   1.959497 S    
C70   N28   1.439286 S    
C68   N26   1.439688 S    
C102  O32   1.221162 D    
C81   C87   1.413626 A    
C108  H12   1.084414 S    
C16   C22   1.420524 A    
C101  O31   1.221170 D    
C30   C36   1.412860 A    
N35   O65   1.301536 A    
C82   C124  1.496429 S    
C66   C72   1.404459 A    
C3    C13   1.482578 S    
N16   C58   1.355130 A    
N30   O50   1.301365 A    
C34   C58   1.466824 S    
N34   O64   1.301258 A    
O8    Cr2   1.967812 S    
N6    C54   1.354250 A    
C33   C57   1.468047 S    
O13   C8    1.250767 A    
N13   C55   1.355600 A    
N32   O60   1.301200 A    
N32   O59   1.301127 A    
N1    C49   1.353567 A    
C106  O36   1.221182 D    
C65   N41   1.436718 S    
C100  O30   1.220730 D    
C111  O53   1.220909 D    
C14   C20   1.422042 A    
C39   C45   1.401014 A    
C46   C106  1.481428 S    
C25   C109  1.491046 S    
C77   C119  1.484903 S    
C79   C85   1.415665 A    
O12   Cr6   1.970155 S    
C109  H13   1.084942 S    
C36   C60   1.468363 S    
C73   C91   1.422912 A    
C112  H16   1.084958 S    
C19   C97   1.487076 S    
C66   N42   1.437229 S    
C32   C38   1.405577 A    
C113  H17   1.084908 S    
C115  O81   1.221107 D    
C122  H26   1.082231 S    
O16   Cr4   2.094553 S    
C31   C37   1.406366 A    
C11   C91   1.488866 S    
O5    C6    1.243997 A    
N12   C60   1.357518 A    
C105  O35   1.221018 D    
C27   C111  1.490670 S    
C38   N32   1.438330 S    
C33   C39   1.406876 A    
N6    N12   1.329228 A    
C13   C43   1.416968 A    
C15   C45   1.420836 A    
C124  O90   1.221179 D    
Cr1   O25   1.963786 S    
N42   O80   1.301263 A    
C107  H11   1.081749 S    
O22   Cr4   1.954821 S    
O4    Cr4   2.072892 S    
C123  H27   1.083249 S    
C75   C81   1.415478 A    
C34   C40   1.406878 A    
C5    C18   1.485658 S    
C113  O55   1.220891 D    
N34   O63   1.301532 A    
C7    C95   1.489817 S    
N14   N20   1.330236 A    
C17   C23   1.421492 A    
N9    C57   1.357612 A    
N18   C60   1.355363 A    
C99   H3    1.084627 S    
O15   Cr3   2.094826 S    
C69   N27   1.437796 S    
C81   C123  1.498688 S    
C32   C56   1.467527 S    
C43   C103  1.479131 S    
Cr5   O26   1.965979 S    
O15   C7    1.251076 A    
N36   O68   1.301042 A    
N31   O57   1.301532 A    
O7    Cr1   1.970533 S    
N33   O62   1.301119 A    
C62   C68   1.407164 A    
C109  O51   1.220905 D    
C120  H24   1.085417 S    
C114  O56   1.220915 D    
O2    C3    1.244652 A    
C71   N29   1.439449 S    
N17   N23   1.331208 A    
C64   C70   1.403148 A    
C69   C93   1.417410 A    
N7    C55   1.356834 A    
C74   C92   1.424648 A    
O4    C5    1.251174 A    
C61   N37   1.436688 S    
C6    C16   1.478491 S    
C102  H6    1.084522 S    
C28   C112  1.490583 S    
C52   C88   1.466130 S    
C64   C88   1.406989 A    
C110  H14   1.085373 S    
N39   O74   1.301268 A    
N3    C51   1.354379 A    
C45   C105  1.484906 S    
N35   O66   1.301269 A    
C26   C32   1.410209 A    
C76   C94   1.422078 A    
C26   C110  1.488693 S    
C65   C89   1.408412 A    
C118  O84   1.220999 D    
C75   C93   1.422950 A    
C67   N25   1.439125 S    
C4    C17   1.482154 S    
O14   C9    1.252047 A    
C108  O38   1.220937 D    
N41   O77   1.301183 A    
C42   C48   1.399928 A    
N29   O48   1.301332 A    
C63   C69   1.404443 A    
C27   C33   1.412604 A    
C117  O83   1.221047 D    
C106  H10   1.081069 S    
C39   N33   1.438133 S    
N5    C53   1.353688 A    
C100  H4    1.084599 S    
C40   C46   1.399574 A    
O5    Cr5   2.077819 S    
N38   O71   1.301072 A    
O11   C5    1.246612 A    
C50   C86   1.474139 S    
O8    C2    1.248219 A    
C68   C92   1.416826 A    
C74   C116  1.484192 S    
O22   C10   1.254507 A    
C47   C107  1.482471 S    
C118  H22   1.084872 S    
C31   C55   1.467496 S    
O19   C7    1.253250 A    
C74   C80   1.418983 A    
C64   N40   1.435986 S    
C13   C19   1.422030 A    
C120  O86   1.221036 D    
N28   O46   1.301213 A    
C62   C86   1.409013 A    
C9    C96   1.488590 S    
C14   C44   1.423009 A    
Cr3   O25   1.961986 S    
C117  H21   1.084922 S    
C62   N38   1.435235 S    
C77   C83   1.416014 A    
C1    C14   1.497565 S    
C53   C89   1.468171 S    
C16   C46   1.416976 A    
N20   C50   1.357617 A    
C29   C35   1.412610 A    
O23   C11   1.253440 A    
C30   C114  1.490203 S    
C110  O52   1.220222 D    
O3    Cr3   2.073795 S    
O17   Cr5   2.086011 S    
O24   C12   1.255506 A    
N23   C53   1.358144 A    
O20   Cr2   1.960544 S    
N26   O41   1.301366 A    
C49   C85   1.466296 S    
C63   N39   1.437688 S    
N42   O79   1.301199 A    
C67   C91   1.415494 A    
Cr6   O26   1.963593 S    
Cr2   O25   1.965903 S    
C123  O89   1.220933 D    
O10   C4    1.246233 A    
C124  H28   1.081905 S    
C121  O87   1.220994 D    
C126  O92   1.220942 D    
C70   C94   1.416397 A    
C23   C101  1.488886 S    
N4    C52   1.353481 A    
N11   C59   1.356832 A    
N15   C57   1.355264 A    
C38   C44   1.406831 A    
N10   C58   1.356944 A    
N14   C56   1.354867 A    
N36   O67   1.301165 A    
N31   O58   1.301282 A    
N26   O42   1.301133 A    
C20   C98   1.492105 S    
C25   C31   1.412312 A    
C48   C108  1.484142 S    
C21   C27   1.417937 A    
C66   C90   1.406127 A    
N5    N11   1.327754 A    
O9    C3    1.249755 A    
N25   O39   1.301310 A    
N19   C49   1.357867 A    
C104  O34   1.221153 D    
C24   C102  1.488743 S    
C84   C126  1.498665 S    
O18   Cr6   2.087197 S    
N2    C50   1.357099 A    
O6    C4    1.246801 A    
N27   O43   1.300754 A    
C84   C90   1.414481 A    
C36   C42   1.407065 A    
Cr4   O26   1.962100 S    
C8    C94   1.487627 S    
N30   O49   1.300602 A    
C116  O82   1.221192 D    
C105  H9    1.084482 S    
O6    Cr6   2.080219 S    
O11   Cr5   1.968325 S    
O12   C6    1.248535 A    
N33   O61   1.301157 A    
C115  H19   1.085583 S    
N17   C59   1.355863 A    
N8    C56   1.356483 A    
O18   C10   1.254128 A    
O24   Cr6   1.960779 S    
C82   C88   1.414709 A    
O1    C2    1.251533 A    
C2    C15   1.488118 S    
C97   H1    1.084692 S    
C54   C90   1.463584 S    
C51   C87   1.462851 S    
C114  H18   1.085113 S    
N18   N24   1.329308 A    
C15   C21   1.422395 A    
C78   C120  1.483289 S    
N15   N21   1.329196 A    
C83   C89   1.415797 A    
N40   O75   1.301303 A    
N27   O44   1.301400 A    
C119  H23   1.085372 S    
