data_mof_unit_45672.cif
_audit_creation_date              2012-12-10T17:24:11-0500
_audit_creation_method            fapswitch 2.2
_symmetry_space_group_name_H-M    P1
_symmetry_Int_Tables_number       1
_space_group_crystal_system       triclinic
_cell_length_a                    31.928858
_cell_length_b                    18.178299
_cell_length_c                    25.852046
_cell_angle_alpha                 89.651693
_cell_angle_beta                  144.62529
_cell_angle_gamma                 90.53416
_cell_volume                      8686.21787503

loop_
_atom_site_label
_atom_site_type_symbol
_atom_type_description
_atom_site_fract_x
_atom_site_fract_y
_atom_site_fract_z
_atom_type_partial_charge
C1    C     C_R   0.861898 0.858116 0.110628 0.533132
C2    C     C_R   0.318049 0.124612 0.672684 -0.129220
C3    C     C_R   0.740457 0.181965 0.016773 -0.006888
C4    C     C_R   0.251206 0.306843 0.038931 -0.009871
C5    C     C_R   0.745421 0.695325 0.957159 -0.011671
C6    C     C_R   0.759322 0.318447 0.983864 -0.007081
C7    C     C_R   0.240460 0.681967 0.016778 -0.006886
C8    C     C_R   0.192103 0.199214 0.942596 0.018052
C9    C     C_R   0.806598 0.800648 0.057013 0.016169
C10   C     C_R   0.803826 0.196235 0.051156 0.021309
C11   C     C_R   0.195794 0.803874 0.948956 0.021104
C12   C     C_R   0.692102 0.699215 0.942594 0.018041
C13   C     C_R   0.361115 0.923652 0.626899 -0.117090
C14   C     C_R   0.306597 0.300648 0.057013 0.016165
C15   C     C_R   0.303826 0.696235 0.051156 0.021310
C16   C     C_R   0.695794 0.303874 0.948956 0.021104
C17   C     C_R   0.934125 0.877593 0.984927 0.267455
C18   C     C_R   0.092774 0.109510 0.044737 0.263778
C19   C     C_R   0.434151 0.377588 0.984951 0.267454
C20   C     C_R   0.592708 0.609573 0.044666 0.263730
C21   C     C_R   0.894701 0.826121 0.916931 -0.050012
C22   C     C_R   0.113799 0.171710 0.093553 -0.057737
C23   C     C_R   0.394735 0.326109 0.916964 -0.050009
C24   C     C_R   0.642140 0.076327 0.387414 -0.111118
C25   C     C_R   0.613733 0.671766 0.093490 -0.057784
C26   C     C_R   0.892999 0.830275 0.861907 -0.165618
C27   C     C_R   0.097643 0.177405 0.129167 -0.161479
C28   C     C_R   0.393028 0.330266 0.861936 -0.165614
C29   C     C_R   0.597609 0.677433 0.129142 -0.161468
C30   C     C_R   0.930538 0.886115 0.874366 -0.087968
C31   C     C_R   0.061967 0.120011 0.118081 -0.084876
C32   C     C_R   0.430555 0.386114 0.874383 -0.087969
C33   C     C_R   0.561959 0.620021 0.118079 -0.084880
C34   C     C_R   0.966955 0.942880 0.938757 -0.021073
C35   C     C_R   0.180900 0.376529 0.327333 -0.127728
C36   C     C_R   0.035453 0.058022 0.063760 -0.020925
C37   C     C_R   0.466963 0.442885 0.938765 -0.021086
C38   C     C_R   0.535442 0.558037 0.063752 -0.020933
C39   C     C_R   0.967193 0.939943 0.993323 0.002407
C40   C     C_R   0.045490 0.055015 0.020098 0.001266
C41   C     C_R   0.467205 0.439945 0.993334 0.002409
C42   C     C_R   0.545462 0.555048 0.020068 0.001316
C43   C     C_R   0.005435 0.000316 0.951955 0.013468
C44   C     C_R   0.999709 0.999253 0.053311 0.013215
C45   C     C_R   0.505427 0.500333 0.951946 0.013493
C46   C     C_R   0.818068 0.624594 0.672686 -0.129228
C47   C     C_R   0.499712 0.499258 0.053314 0.013217
C48   C     C_R   0.999587 0.999979 0.108701 0.529189
C49   C     C_R   0.001242 0.003529 0.892187 0.559586
C50   C     C_R   0.499588 0.499980 0.108702 0.529211
C51   C     C_R   0.501241 0.503536 0.892185 0.559647
C52   C     C_R   0.000015 0.999892 0.391879 0.499494
C53   C     C_R   0.999997 0.000108 0.608134 0.499373
C54   C     C_R   0.500015 0.499892 0.391879 0.499495
C55   C     C_R   0.499997 0.500108 0.608134 0.499371
C56   C     C_3   0.059363 0.965545 0.542702 -0.123548
C57   C     C_R   0.861118 0.423646 0.626924 -0.117098
C58   C     C_3   0.940670 0.034457 0.457331 -0.123392
C59   C     C_3   0.999925 0.930293 0.517337 -0.103351
C60   C     C_3   0.000109 0.069710 0.482697 -0.103213
C61   C     C_3   0.559363 0.465545 0.542702 -0.123547
C62   C     C_3   0.440670 0.534457 0.457331 -0.123394
C63   C     C_3   0.499925 0.430293 0.517337 -0.103351
C64   C     C_3   0.500109 0.569709 0.482697 -0.103213
C65   C     C_3   0.059443 0.035219 0.576958 -0.124596
C66   C     C_3   0.940591 0.964783 0.423077 -0.124792
C67   C     C_3   0.559443 0.535219 0.576958 -0.124596
C68   C     C_R   0.142140 0.576325 0.387425 -0.111114
C69   C     C_3   0.440591 0.464783 0.423077 -0.124792
C70   C     C_3   0.000003 0.000044 0.550794 0.062926
C71   C     C_3   0.000028 0.999958 0.449238 0.062762
C72   C     C_3   0.500003 0.500044 0.550793 0.062925
C73   C     C_3   0.500028 0.499958 0.449238 0.062762
C74   C     C_R   0.132330 0.262472 0.312066 -0.087805
C75   C     C_R   0.866667 0.738568 0.687879 -0.088811
C76   C     C_R   0.897849 0.298420 0.650818 -0.080281
C77   C     C_R   0.108257 0.699168 0.376934 -0.073983
C78   C     C_R   0.632311 0.762490 0.312064 -0.087811
C79   C     C_R   0.739650 0.870777 0.420031 -0.096058
C80   C     C_R   0.366655 0.238580 0.687878 -0.088809
C81   C     C_R   0.397847 0.798429 0.650783 -0.080277
C82   C     C_R   0.608256 0.199167 0.376925 -0.073984
C83   C     C_R   0.127384 0.322413 0.273441 -0.122971
C84   C     C_R   0.871213 0.679089 0.726534 -0.123161
C85   C     C_R   0.915391 0.372446 0.674802 -0.112082
C86   C     C_R   0.090624 0.624996 0.353227 -0.105524
C87   C     C_R   0.627359 0.822438 0.273440 -0.122970
C88   C     C_R   0.371195 0.179107 0.726533 -0.123166
C89   C     C_R   0.415388 0.872456 0.674764 -0.112082
C90   C     C_R   0.259883 0.129733 0.579997 -0.096164
C91   C     C_R   0.590623 0.124996 0.353215 -0.105520
C92   C     C_R   0.289047 0.901177 0.553815 -0.084504
C93   C     C_R   0.137982 0.141549 0.889174 0.527524
C94   C     C_R   0.712694 0.100723 0.450629 -0.078310
C95   C     C_R   0.239665 0.370762 0.420032 -0.096057
C96   C     C_R   0.759896 0.629720 0.579999 -0.096166
C97   C     C_R   0.789048 0.401175 0.553825 -0.084514
C98   C     C_R   0.212693 0.600722 0.450635 -0.078308
C99   C     C_R   0.745524 0.810431 0.460607 0.013370
C100  C     C_R   0.254218 0.189836 0.539401 0.013598
C101  C     C_R   0.269542 0.826404 0.526057 0.010926
C102  C     C_R   0.732810 0.175017 0.480445 0.012554
C103  C     C_R   0.245532 0.310423 0.460608 0.013367
C104  C     C_R   0.138716 0.858923 0.890203 0.522316
C105  C     C_R   0.754225 0.689829 0.539402 0.013601
C106  C     C_R   0.769543 0.326403 0.526065 0.010926
C107  C     C_R   0.232810 0.675017 0.480448 0.012551
C108  C     C_R   0.190785 0.255928 0.405857 0.011635
C109  C     C_R   0.808822 0.744473 0.594134 0.011297
C110  C     C_R   0.824891 0.273575 0.577034 0.011874
C111  C     C_R   0.178402 0.726782 0.435779 0.013064
C112  C     C_R   0.690776 0.755937 0.405856 0.011633
C113  C     C_R   0.308816 0.244480 0.594133 0.011300
C114  C     C_R   0.324889 0.773578 0.577019 0.011877
C115  C     C_R   0.860985 0.140960 0.109753 0.520851
C116  C     C_R   0.678402 0.226782 0.435775 0.013060
C117  C     C_R   0.804496 0.803790 0.554330 0.013954
C118  C     C_R   0.195420 0.196291 0.445680 0.014119
C119  C     C_R   0.196243 0.803304 0.451936 -0.001308
C120  C     C_R   0.805894 0.197813 0.553982 0.002350
C121  C     C_R   0.304496 0.303789 0.554330 0.013954
C122  C     C_R   0.695419 0.696291 0.445681 0.014121
C123  C     C_R   0.696244 0.303304 0.451936 -0.001307
C124  C     C_R   0.305894 0.697813 0.553978 0.002343
C125  C     C_R   0.753813 0.863821 0.078758 -0.101539
C126  C     C_R   0.361897 0.358117 0.110628 0.533128
C127  C     C_R   0.239411 0.143377 0.910430 -0.105810
C128  C     C_R   0.270511 0.888202 0.971328 -0.097473
C129  C     C_R   0.729447 0.112499 0.029866 -0.097176
C130  C     C_R   0.253821 0.363810 0.078775 -0.101534
C131  C     C_R   0.739421 0.643363 0.910448 -0.105809
C132  C     C_R   0.770512 0.388203 0.971330 -0.097476
C133  C     C_R   0.229452 0.612503 0.029876 -0.097175
C134  C     C_R   0.700652 0.870487 0.062582 -0.152459
C135  C     C_R   0.293240 0.136605 0.927729 -0.157314
C136  C     C_R   0.331404 0.902725 0.002961 -0.137208
C137  C     C_R   0.637981 0.641550 0.889174 0.527551
C138  C     C_R   0.668875 0.098397 0.999016 -0.137658
C139  C     C_R   0.200669 0.370466 0.062616 -0.152446
C140  C     C_R   0.793253 0.636586 0.927754 -0.157316
C141  C     C_R   0.831406 0.402727 0.002965 -0.137211
C142  C     C_R   0.168882 0.598403 0.999033 -0.137657
C143  C     C_R   0.142705 0.322033 0.005090 -0.098211
C144  C     C_R   0.856331 0.677260 0.995849 -0.087659
C145  C     C_R   0.880340 0.347309 0.042771 -0.086169
C146  C     C_R   0.119975 0.653912 0.959206 -0.086495
C147  C     C_R   0.642682 0.822064 0.005044 -0.098197
C148  C     C_R   0.638716 0.358923 0.890203 0.522319
C149  C     C_R   0.356320 0.177277 0.995827 -0.087659
C150  C     C_R   0.380337 0.847306 0.042763 -0.086170
C151  C     C_R   0.619967 0.153906 0.959189 -0.086494
C152  C     C_R   0.136771 0.265630 0.962829 0.108928
C153  C     C_R   0.865001 0.727498 0.044804 0.128789
C154  C     C_R   0.870445 0.277284 0.054346 0.090980
C155  C     C_R   0.129435 0.723691 0.946700 0.090501
C156  C     C_R   0.636751 0.765656 0.962790 0.108976
C157  C     C_R   0.364993 0.227507 0.044790 0.128799
C158  C     C_R   0.370441 0.777281 0.054337 0.090977
C159  C     C_R   0.360986 0.640960 0.109753 0.520849
C160  C     C_R   0.629430 0.223687 0.946689 0.090505
C161  C     C_R   0.192625 0.255797 0.980896 0.018325
C162  C     C_R   0.806541 0.742350 0.020559 0.016305
C163  C     C_R   0.812317 0.263049 0.031251 0.022757
C164  C     C_R   0.187438 0.737438 0.969357 0.021937
C165  C     C_R   0.692617 0.755809 0.980879 0.018304
C166  C     C_R   0.306536 0.242355 0.020551 0.016303
C167  C     C_R   0.312315 0.763048 0.031247 0.022757
C168  C     C_R   0.687436 0.237435 0.969352 0.021937
C169  C     C_R   0.139346 0.139965 0.389375 0.480795
C170  C     C_R   0.680877 0.876552 0.327332 -0.127734
C171  C     C_R   0.860650 0.860037 0.610640 0.480580
C172  C     C_R   0.861404 0.141079 0.611482 0.498126
C173  C     C_R   0.139353 0.859155 0.390116 0.507309
C174  C     C_R   0.639346 0.639965 0.389375 0.480792
C175  C     C_R   0.360650 0.360037 0.610641 0.480580
C176  C     C_R   0.361404 0.641080 0.611481 0.498149
C177  C     C_R   0.639354 0.359155 0.390116 0.507306
C178  C     C_R   0.751201 0.806850 0.038921 -0.009877
C179  C     C_R   0.245416 0.195331 0.957150 -0.011670
C180  C     C_R   0.259320 0.818446 0.983861 -0.007080
H1    H     H_    0.108229 0.064184 0.640913 0.111241
H2    H     H_    0.147670 0.213400 0.109561 0.143420
H3    H     H_    0.368634 0.280135 0.910146 0.139115
H4    H     H_    0.647576 0.713477 0.109466 0.143400
H5    H     H_    0.931038 0.882524 0.833289 0.160499
H6    H     H_    0.055406 0.125425 0.152663 0.155045
H7    H     H_    0.431052 0.382525 0.833302 0.160497
H8    H     H_    0.555419 0.625419 0.152685 0.155053
H9    H     H_    0.108086 0.937199 0.576973 0.115933
H10   H     H_    0.891946 0.062803 0.423057 0.116139
H11   H     H_    0.999847 0.872901 0.532184 0.136974
H12   H     H_    0.891804 0.935818 0.359126 0.112692
H13   H     H_    0.000186 0.127101 0.467850 0.136792
H14   H     H_    0.608086 0.437199 0.576973 0.115933
H15   H     H_    0.391946 0.562803 0.423057 0.116138
H16   H     H_    0.499847 0.372901 0.532184 0.136975
H17   H     H_    0.500186 0.627100 0.467850 0.136791
H18   H     H_    0.321696 0.078356 0.702772 0.109214
H19   H     H_    0.676969 0.923097 0.297254 0.109825
H20   H     H_    0.627947 0.019206 0.366701 0.123890
H21   H     H_    0.374854 0.980937 0.646945 0.123822
H22   H     H_    0.821720 0.578334 0.702775 0.109213
H23   H     H_    0.608228 0.564184 0.640913 0.111243
H24   H     H_    0.176997 0.423068 0.297256 0.109824
H25   H     H_    0.127946 0.519204 0.366715 0.123889
H26   H     H_    0.874856 0.480930 0.646971 0.123822
H27   H     H_    0.090145 0.221285 0.268047 0.136714
H28   H     H_    0.908523 0.780062 0.731817 0.137485
H29   H     H_    0.942794 0.261964 0.691649 0.172060
H30   H     H_    0.065752 0.732582 0.349220 0.181719
H31   H     H_    0.590123 0.721306 0.268045 0.136714
H32   H     H_    0.408511 0.280074 0.731816 0.137482
H33   H     H_    0.442792 0.761977 0.691600 0.172085
H34   H     H_    0.391804 0.435818 0.359125 0.112691
H35   H     H_    0.565751 0.232581 0.349211 0.181721
H36   H     H_    0.081896 0.326807 0.201446 0.121202
H37   H     H_    0.916087 0.675372 0.798504 0.123744
H38   H     H_    0.971523 0.389919 0.731742 0.129029
H39   H     H_    0.036317 0.605587 0.306889 0.135057
H40   H     H_    0.581865 0.826838 0.201444 0.121201
H41   H     H_    0.416065 0.175393 0.798502 0.123737
H42   H     H_    0.471519 0.889931 0.731690 0.129033
H43   H     H_    0.536315 0.105587 0.306873 0.135064
H44   H     H_    0.780089 0.914112 0.459318 0.103466
H45   H     H_    0.116558 0.224457 0.169948 0.123080
H46   H     H_    0.219621 0.086218 0.540734 0.103259
H47   H     H_    0.249330 0.942948 0.521729 0.124878
H48   H     H_    0.751100 0.060661 0.475642 0.119372
H49   H     H_    0.280104 0.414098 0.459319 0.103468
H50   H     H_    0.719635 0.586205 0.540736 0.103256
H51   H     H_    0.749331 0.442949 0.521730 0.124880
H52   H     H_    0.251098 0.560659 0.475645 0.119375
H53   H     H_    0.900257 0.666886 0.013447 0.134933
H54   H     H_    0.101117 0.329437 0.992183 0.129924
H55   H     H_    0.075583 0.643131 0.940890 0.129205
H56   H     H_    0.864838 0.788375 0.811601 0.124372
H57   H     H_    0.924935 0.358297 0.061504 0.129311
H58   H     H_    0.400244 0.166904 0.013421 0.134926
H59   H     H_    0.601085 0.829478 0.992120 0.129928
H60   H     H_    0.575573 0.143123 0.940867 0.129208
H61   H     H_    0.424930 0.858293 0.061494 0.129305
H62   H     H_    0.797265 0.903973 0.123576 0.111122
H63   H     H_    0.193032 0.107296 0.859625 0.120055
H64   H     H_    0.232709 0.932880 0.937467 0.119292
H65   H     H_    0.767193 0.067768 0.063641 0.116332
H66   H     H_    0.297268 0.403967 0.123584 0.111119
H67   H     H_    0.616524 0.724480 0.169927 0.123089
H68   H     H_    0.693042 0.607281 0.859644 0.120047
H69   H     H_    0.732709 0.432880 0.937467 0.119291
H70   H     H_    0.267198 0.567772 0.063650 0.116328
H71   H     H_    0.704014 0.914187 0.094161 0.104197
H72   H     H_    0.287512 0.096857 0.891176 0.105484
H73   H     H_    0.339109 0.956484 0.993203 0.114407
H74   H     H_    0.661319 0.044843 0.009242 0.110655
H75   H     H_    0.204033 0.414163 0.094198 0.104198
H76   H     H_    0.787528 0.596833 0.891208 0.105483
H77   H     H_    0.839110 0.456486 0.993207 0.114405
H78   H     H_    0.364873 0.288362 0.811636 0.124366
H79   H     H_    0.161329 0.544850 0.009264 0.110654
H80   H     H_    0.996354 0.863082 0.104692 0.328285
H81   H     H_    0.158987 0.054224 0.072006 0.340323
H82   H     H_    0.496385 0.363081 0.104719 0.328287
H83   H     H_    0.658954 0.554384 0.071934 0.340316
H84   H     H_    0.868591 0.780152 0.910104 0.139125
I1    I     I_    0.036108 0.208065 0.869923 -0.345849
I2    I     I_    0.974719 0.756482 0.166212 -0.385491
I3    I     I_    0.937382 0.198510 0.085937 -0.430261
I4    I     I_    0.061108 0.802701 0.912984 -0.435663
I5    I     I_    0.536073 0.708114 0.869850 -0.345795
I6    I     I_    0.474713 0.256478 0.166204 -0.385476
I7    I     I_    0.437370 0.698504 0.085917 -0.430257
I8    I     I_    0.561104 0.302695 0.912977 -0.435650
O1    O     O_3   0.999990 1.000000 0.249990 -0.445919
O2    O     O_R   0.585440 0.646160 0.804690 -0.545776
O3    O     O_R   0.585440 0.353840 0.804690 -0.527060
O4    O     O_R   0.414560 0.646160 0.195310 -0.528402
O5    O     O_R   0.085440 0.146150 0.366190 -0.533664
O6    O     O_R   0.914560 0.853850 0.633810 -0.532824
O7    O     O_R   0.914560 0.146150 0.633810 -0.552300
O8    O     O_R   0.085440 0.853850 0.366190 -0.552589
O9    O     O_R   0.585440 0.646150 0.366190 -0.533669
O10   O     O_R   0.414560 0.353850 0.633810 -0.532823
O11   O     O_R   0.414560 0.646150 0.633810 -0.552310
O12   O     O_3   0.000010 0.000000 0.750010 -0.444371
O13   O     O_R   0.585440 0.353850 0.366190 -0.552587
O14   O     O_R   0.853820 0.085430 0.073070 -0.523462
O15   O     O_R   0.146180 0.914570 0.926930 -0.526269
O16   O     O_R   0.146180 0.085430 0.926930 -0.498905
O17   O     O_R   0.853820 0.914570 0.073070 -0.508901
O18   O     O_R   0.353820 0.585430 0.073070 -0.523460
O19   O     O_R   0.646180 0.414570 0.926930 -0.526278
O20   O     O_R   0.646180 0.585430 0.926930 -0.498951
O21   O     O_R   0.353820 0.414570 0.073070 -0.508908
O22   O     O_R   0.146150 0.914540 0.365390 -0.531144
O23   O     O_3   0.499990 0.500000 0.249990 -0.445920
O24   O     O_R   0.853850 0.085460 0.634610 -0.527397
O25   O     O_R   0.853850 0.914540 0.634610 -0.548830
O26   O     O_R   0.146150 0.085460 0.365390 -0.546813
O27   O     O_R   0.646150 0.414540 0.365390 -0.531145
O28   O     O_R   0.353850 0.585460 0.634610 -0.527392
O29   O     O_R   0.353850 0.414540 0.634610 -0.548833
O30   O     O_R   0.646150 0.585460 0.365390 -0.546814
O31   O     O_R   0.939240 0.000000 0.071950 -0.467822
O32   O     O_R   0.060760 1.000000 0.928050 -0.487799
O33   O     O_R   0.439240 0.500000 0.071950 -0.467817
O34   O     O_3   0.500010 0.500000 0.750010 -0.444366
O35   O     O_R   0.560760 0.500000 0.928050 -0.487814
O36   O     O_R   0.000020 0.939290 0.367320 -0.547005
O37   O     O_R   0.999980 0.060710 0.632680 -0.546235
O38   O     O_R   0.999980 0.939290 0.632680 -0.547782
O39   O     O_R   0.000020 0.060710 0.367320 -0.547987
O40   O     O_R   0.500020 0.439290 0.367320 -0.547004
O41   O     O_R   0.499980 0.560710 0.632680 -0.546237
O42   O     O_R   0.499980 0.439290 0.632680 -0.547783
O43   O     O_R   0.500020 0.560710 0.367320 -0.547986
O44   O     O_R   0.060680 1.000000 0.193390 -0.550967
O45   O     O_R   0.914560 0.853840 0.195310 -0.533498
O46   O     O_R   0.939320 1.000000 0.806610 -0.539581
O47   O     O_R   0.560680 0.500000 0.193390 -0.550980
O48   O     O_R   0.439320 0.500000 0.806610 -0.539590
O49   O     O_3   0.943328 0.861979 0.045443 -0.667266
O50   O     O_3   0.129643 0.099051 0.036674 -0.650578
O51   O     O_3   0.443359 0.361975 0.045472 -0.667274
O52   O     O_3   0.629531 0.599159 0.036533 -0.650618
O53   O     O_R   0.085440 0.146160 0.804690 -0.545787
O54   O     O_R   0.085440 0.853840 0.804690 -0.527062
O55   O     O_R   0.914560 0.146160 0.195310 -0.528397
O56   O     O_R   0.414560 0.353840 0.195310 -0.533492
Zn1   Zn    Zn3+2 0.000000 0.086750 0.293940 0.939357
Zn2   Zn    Zn3+2 0.086780 1.000000 0.880710 0.993598
Zn3   Zn    Zn3+2 0.413220 0.500000 0.119290 1.003798
Zn4   Zn    Zn3+2 0.586780 0.500000 0.880710 0.993570
Zn5   Zn    Zn3+2 0.086730 0.000000 0.292800 0.947244
Zn6   Zn    Zn3+2 0.913270 0.000000 0.707200 0.956040
Zn7   Zn    Zn3+2 0.586730 0.500000 0.292800 0.947241
Zn8   Zn    Zn3+2 0.413270 0.500000 0.707200 0.956056
Zn9   Zn    Zn3+2 0.000000 0.913250 0.706060 0.941370
Zn10  Zn    Zn3+2 0.000000 0.086750 0.706060 0.935231
Zn11  Zn    Zn3+2 0.000000 0.913250 0.293940 0.938125
Zn12  Zn    Zn3+2 0.500000 0.586750 0.293940 0.939352
Zn13  Zn    Zn3+2 0.500000 0.413250 0.706060 0.941370
Zn14  Zn    Zn3+2 0.500000 0.586750 0.706060 0.935240
Zn15  Zn    Zn3+2 0.500000 0.413250 0.293940 0.938132
Zn16  Zn    Zn3+2 0.913220 1.000000 0.119290 1.003796

loop_
_geom_bond_atom_site_label_1
_geom_bond_atom_site_label_2
_ccdc_geom_bond_type
C21   C26   A    
O48   Zn8   S    
C142  C146  A    
C59   H11   S    
C74   C83   A    
O12   Zn2   S    
C79   H44   S    
O47   Zn7   S    
O2    Zn14  S    
C144  H53   S    
C79   C99   A    
C176  O11   A    
C7    C133  A    
C31   C36   A    
C59   C66   S    
H80   O49   S    
C58   C60   S    
C29   C33   A    
O41   Zn14  S    
C17   C39   A    
C2    C90   A    
C18   C40   A    
C62   C64   S    
C131  C140  A    
O34   Zn13  S    
C40   C43   A    
C1    O45   A    
C132  H69   S    
C174  O30   A    
C128  C180  A    
C53   O37   A    
C135  H72   S    
C141  C145  A    
C7    C15   A    
C167  C180  A    
C107  C124  A    
C90   H46   S    
C158  C167  A    
C25   C29   A    
C160  I8    S    
C69   H34   S    
C27   C31   A    
C140  C144  A    
C28   C32   A    
C5    C12   A    
C6    C132  A    
O45   Zn11  S    
C58   C70   S    
O40   Zn15  S    
C4    C130  A    
C156  I5    S    
C148  O19   A    
C17   C21   A    
C158  I7    S    
C42   C45   A    
O36   Zn11  S    
C19   C23   A    
C64   C67   S    
C57   C97   A    
O1    Zn5   S    
C1    O17   A    
C98   H52   S    
C60   C65   S    
C22   C27   A    
C128  H64   S    
C36   C44   A    
C37   C45   A    
C103  C121  A    
C50   O33   A    
C26   H56   S    
C174  O9    A    
C3    C129  A    
O8    Zn11  S    
C49   O32   A    
C120  C172  S    
C8    C93   S    
C93   O16   A    
C20   C42   A    
C138  C151  A    
C33   C38   A    
C14   C126  S    
C56   C59   S    
O31   Zn16  S    
C153  I2    S    
C80   C88   A    
C177  O13   A    
C121  C175  S    
C57   C85   A    
C160  C168  A    
C4    C14   A    
C68   C98   A    
C67   H23   S    
C131  H68   S    
C6    C16   A    
C82   H35   S    
C46   C96   A    
C6    C163  A    
C94   C102  A    
C4    C161  A    
C76   C85   A    
C44   C48   S    
C78   C87   A    
C129  H65   S    
C116  C123  A    
O1    Zn16  S    
O23   Zn15  S    
C83   H36   S    
C151  H60   S    
C133  C142  A    
C79   C170  A    
C169  O5    A    
O30   Zn7   S    
C75   C84   A    
O27   Zn7   S    
C65   C70   S    
C111  C119  A    
C67   C72   S    
O54   Zn9   S    
O20   Zn4   S    
H83   O52   S    
C139  C143  A    
C150  H61   S    
C81   H33   S    
C63   C69   S    
C92   H47   S    
C66   H12   S    
C81   C114  A    
C58   H10   S    
O9    Zn12  S    
C64   C73   S    
C14   C166  A    
O12   Zn6   S    
C17   O49   S    
C152  C161  A    
C80   H32   S    
C173  O8    A    
O21   Zn3   S    
C15   C167  A    
C170  H19   S    
C95   C103  A    
C60   H13   S    
C47   C50   S    
C74   H27   S    
O44   Zn5   S    
C30   C34   A    
C34   C39   A    
C30   H5    S    
O32   Zn2   S    
C136  H73   S    
C46   C84   A    
C127  H63   S    
C154  I3    S    
C55   O42   A    
C12   C165  A    
O55   Zn1   S    
C27   H45   S    
C118  C169  S    
C122  C174  S    
C57   H26   S    
O1    Zn11  S    
C137  O20   A    
C85   H38   S    
C23   H3    S    
C99   C117  A    
C61   C67   S    
C5    C131  A    
C52   O36   A    
C41   C47   A    
C125  H62   S    
C32   C37   A    
C24   H20   S    
C77   H30   S    
C145  C154  A    
C26   C30   A    
C28   H78   S    
O42   Zn13  S    
C132  C141  A    
C105  C109  A    
C146  H55   S    
C32   H7    S    
O12   Zn9   S    
C18   C22   A    
C107  C111  A    
C34   C43   A    
C39   C44   A    
C124  C176  S    
C147  H59   S    
C127  C179  A    
C159  O18   A    
C22   H2    S    
C105  C122  A    
C48   O44   A    
C33   H8    S    
C142  H79   S    
C37   C41   A    
C54   O40   A    
C172  O7    A    
O34   Zn14  S    
C113  C121  A    
C80   C113  A    
C125  C178  A    
C141  H77   S    
O38   Zn9   S    
C125  C134  A    
C96   C105  A    
C10   C163  A    
O7    Zn10  S    
C123  C177  S    
C48   O31   A    
C109  C117  A    
C134  C147  A    
C175  O29   A    
C159  O4    A    
C62   H15   S    
C143  H54   S    
O17   Zn16  S    
C127  C135  A    
O23   Zn12  S    
C128  C136  A    
O16   Zn2   S    
C35   H24   S    
C20   C25   A    
C130  C139  A    
O5    Zn1   S    
C137  O2    A    
C77   C111  A    
C146  C155  A    
O33   Zn3   S    
C69   C73   S    
C11   C104  S    
C175  O10   A    
O23   Zn3   S    
C169  O26   A    
C155  I4    S    
C25   H4    S    
C94   H48   S    
O18   Zn3   S    
C81   C89   A    
C64   H17   S    
C101  C114  A    
C134  H71   S    
C53   C70   S    
C130  H66   S    
C87   H40   S    
C1    C9    S    
O43   Zn12  S    
O25   Zn6   S    
C35   C83   A    
O15   Zn2   S    
C60   C71   S    
C61   C73   S    
C98   C107  A    
C62   C69   S    
O37   Zn10  S    
O11   Zn14  S    
C139  H75   S    
C15   C159  S    
O34   Zn4   S    
C54   C73   S    
C75   H28   S    
C117  C171  S    
C21   H84   S    
C136  C150  A    
C66   C71   S    
O28   Zn8   S    
C56   C71   S    
C149  H58   S    
C53   O38   A    
C147  C156  A    
C171  O6    A    
C92   C101  A    
C97   C106  A    
H82   O51   S    
O4    Zn12  S    
C13   C92   A    
C100  C118  A    
C91   H43   S    
O56   Zn15  S    
C102  C120  A    
C172  O24   A    
C150  C158  A    
C176  O28   A    
O46   Zn6   S    
C95   H49   S    
H81   O50   S    
O3    Zn13  S    
C35   C95   A    
C152  I1    S    
C7    C164  A    
C153  C162  A    
C5    C162  A    
C82   C116  A    
C52   C71   S    
C119  C173  S    
C50   O47   A    
C8    C179  A    
C156  C165  A    
C51   O48   A    
O29   Zn8   S    
C86   H39   S    
O13   Zn15  S    
C84   H37   S    
C82   C91   A    
C59   C70   S    
C74   C108  A    
O39   Zn1   S    
C46   H22   S    
C63   C72   S    
C76   C110  A    
C126  O56   A    
C177  O27   A    
C88   H41   S    
C78   C112  A    
C11   C180  A    
C138  H74   S    
C149  C157  A    
C78   H31   S    
C9    C178  A    
C19   C41   A    
C76   H29   S    
C68   C86   A    
C171  O25   A    
C65   H1    S    
C38   C42   A    
C8    C161  A    
C55   O41   A    
C45   C51   S    
C115  O14   A    
C157  I6    S    
C56   C65   S    
C144  C153  A    
O53   Zn10  S    
C115  O55   A    
C58   C66   S    
C129  C138  A    
C145  H57   S    
C106  C123  A    
C2    C88   A    
C103  C108  A    
C140  H76   S    
C96   H50   S    
C18   O50   S    
C55   C72   S    
C126  O21   A    
C114  C124  A    
O1    Zn1   S    
C165  C178  A    
C29   H67   S    
C90   C100  A    
C20   O52   S    
C3    C168  A    
O19   Zn4   S    
C75   C109  A    
O12   Zn10  S    
C101  C119  A    
O6    Zn9   S    
C108  C118  A    
C154  C163  A    
C36   C40   A    
O35   Zn4   S    
C110  C120  A    
C89   H42   S    
C43   C49   S    
C135  C149  A    
C87   C170  A    
O23   Zn7   S    
C63   H16   S    
C112  C122  A    
C24   C94   A    
C61   C63   S    
C49   O46   A    
C148  O3    A    
C62   C72   S    
C38   C47   A    
C51   O35   A    
C77   C86   A    
O24   Zn6   S    
C23   C28   A    
O14   Zn16  S    
C24   C91   A    
C106  C110  A    
C56   H9    S    
C143  C152  A    
C13   C89   A    
C2    H18   S    
C100  C113  A    
O34   Zn8   S    
C157  C166  A    
C93   O53   A    
C19   O51   S    
O22   Zn5   S    
C155  C164  A    
C173  O22   A    
C52   O39   A    
C16   C148  S    
C151  C160  A    
C3    C10   A    
C97   H51   S    
C16   C168  A    
O10   Zn13  S    
C99   C112  A    
C133  H70   S    
C31   H6    S    
C11   C164  A    
C13   H21   S    
C54   O43   A    
C9    C162  A    
C102  C116  A    
C104  O15   A    
O26   Zn5   S    
C68   H25   S    
C12   C137  S    
C166  C179  A    
C104  O54   A    
C61   H14   S    
C10   C115  S    
