data_mof_unit_7344.cif
_audit_creation_date              2012-12-11T14:08:16-0500
_audit_creation_method            fapswitch 2.2
_symmetry_space_group_name_H-M    P1
_symmetry_Int_Tables_number       1
_space_group_crystal_system       triclinic
_cell_length_a                    28.248434
_cell_length_b                    7.167053
_cell_length_c                    17.354893
_cell_angle_alpha                 89.999526
_cell_angle_beta                  102.018607
_cell_angle_gamma                 90.001098
_cell_volume                      3436.61850858

loop_
_atom_site_label
_atom_site_type_symbol
_atom_type_description
_atom_site_fract_x
_atom_site_fract_y
_atom_site_fract_z
_atom_type_partial_charge
O1    O     O_R   0.000700 0.436510 0.857920 -0.532237
O2    O     O_R   0.999300 0.563490 0.142080 -0.532334
O3    O     O_R   0.999300 0.936510 0.642080 -0.532333
O4    O     O_R   0.000700 0.063490 0.357920 -0.532239
O5    O     O_R   0.930080 0.766380 0.721890 -0.545422
O6    O     O_R   0.069920 0.233620 0.278110 -0.545690
O7    O     O_R   0.069920 0.266380 0.778110 -0.545693
O8    O     O_R   0.930080 0.733620 0.221890 -0.545421
C1    C     C_R   0.910649 0.597263 0.706888 0.725882
C2    C     C_R   0.089438 0.402655 0.292868 0.726207
C3    C     C_R   0.089438 0.097349 0.792878 0.726210
C4    C     C_R   0.910647 0.902734 0.206897 0.725868
O9    O     O_R   0.996180 0.766230 0.862310 -0.532029
O10   O     O_R   0.003820 0.233770 0.137690 -0.532226
O11   O     O_R   0.003820 0.266230 0.637690 -0.532229
O12   O     O_R   0.996180 0.733770 0.362310 -0.532030
O13   O     O_R   0.065870 0.936460 0.783500 -0.536292
O14   O     O_R   0.934130 0.063540 0.216500 -0.536169
O15   O     O_R   0.934130 0.436460 0.716500 -0.536175
O16   O     O_R   0.065870 0.563540 0.283500 -0.536294
C5    C     C_R   0.998227 0.595834 0.894163 0.708510
C6    C     C_R   0.001788 0.404156 0.105838 0.708566
C7    C     C_R   0.001787 0.095845 0.605838 0.708567
C8    C     C_R   0.998227 0.904166 0.394163 0.708511
O17   O     O_3   0.022790 0.603020 0.723980 -0.374830
O18   O     O_3   0.977210 0.396980 0.276020 -0.374316
O19   O     O_3   0.977210 0.103020 0.776020 -0.374312
O20   O     O_3   0.022790 0.896980 0.223980 -0.374829
V1    V     V_3+5 0.995770 0.877900 0.754830 1.462969
V2    V     V_3+5 0.004230 0.122100 0.245170 1.462041
V3    V     V_3+5 0.004230 0.377900 0.745170 1.462031
V4    V     V_3+5 0.995770 0.622100 0.254830 1.462971
C9    C     C_2   0.006440 0.079475 0.522391 -0.266693
C10   C     C_2   0.993595 0.920579 0.477611 -0.266203
C11   C     C_2   0.993595 0.579422 0.977611 -0.266214
C12   C     C_2   0.006438 0.420524 0.022391 -0.266695
C13   C     C_R   0.682728 0.922012 0.021990 0.574759
C14   C     C_R   0.316911 0.074151 0.980337 0.574864
C15   C     C_R   0.316922 0.425830 0.480214 0.574834
C16   C     C_R   0.682746 0.577755 0.521857 0.574766
O21   O     O_2   0.711967 0.892262 0.970925 -0.507283
O22   O     O_2   0.286993 0.081952 0.031487 -0.506093
O23   O     O_2   0.287006 0.418011 0.531369 -0.506114
O24   O     O_2   0.711990 0.607388 0.470789 -0.507284
N1    N     N_R   0.702918 0.931400 0.100850 -0.556906
N2    N     N_R   0.297362 0.084478 0.901237 -0.556662
N3    N     N_R   0.297369 0.415560 0.401115 -0.556658
N4    N     N_R   0.702930 0.568506 0.600722 -0.556905
C17   C     C_R   0.674800 0.957433 0.155191 0.602671
C18   C     C_R   0.326268 0.084052 0.847122 0.599868
C19   C     C_R   0.326272 0.415984 0.346995 0.599916
C20   C     C_R   0.674807 0.542565 0.655063 0.602591
C21   C     C_R   0.777329 0.774124 0.172005 -0.074072
C22   C     C_R   0.221910 0.240986 0.833795 -0.076222
C23   C     C_R   0.221912 0.259091 0.333675 -0.076222
C24   C     C_R   0.777327 0.725804 0.671926 -0.074064
C25   C     C_R   0.827721 0.768961 0.197123 -0.241525
C26   C     C_R   0.171606 0.241412 0.807697 -0.239850
C27   C     C_R   0.171605 0.258646 0.307612 -0.239874
C28   C     C_R   0.827716 0.730987 0.697076 -0.241535
C29   C     C_R   0.834192 0.064806 0.130711 0.112940
C30   C     C_R   0.167113 0.931714 0.863860 0.112535
C31   C     C_R   0.167120 0.568285 0.363825 0.112513
C32   C     C_R   0.834211 0.435194 0.630641 0.112922
C33   C     C_R   0.783521 0.067279 0.106232 -0.084377
C34   C     C_R   0.217775 0.933804 0.889053 -0.081817
C35   C     C_R   0.217784 0.566211 0.388987 -0.081771
C36   C     C_R   0.783543 0.432712 0.606125 -0.084365
C37   C     C_R   0.754942 0.923593 0.126610 0.332446
C38   C     C_R   0.245332 0.087067 0.874495 0.333237
C39   C     C_R   0.245339 0.412985 0.374386 0.333205
C40   C     C_R   0.754953 0.576360 0.626497 0.332383
C41   C     C_R   0.602457 0.969565 0.050312 -0.049916
C42   C     C_R   0.397991 0.054449 0.952426 -0.049464
C43   C     C_R   0.398000 0.445516 0.452296 -0.049454
C44   C     C_R   0.602469 0.530315 0.550177 -0.049923
C45   C     C_R   0.631914 0.942876 0.994362 -0.074968
C46   C     C_R   0.367796 0.056473 0.008175 -0.074447
C47   C     C_R   0.367807 0.443466 0.508048 -0.074433
C48   C     C_R   0.631931 0.556886 0.494226 -0.074969
C49   C     C_R   0.609409 0.938252 0.913383 -0.052882
C50   C     C_R   0.389599 0.037930 0.089089 -0.054364
C51   C     C_R   0.389613 0.461911 0.588964 -0.054361
C52   C     C_R   0.609432 0.561383 0.413243 -0.052908
C53   C     C_R   0.624303 0.975286 0.131176 -0.027179
C54   C     C_R   0.376824 0.070577 0.871553 -0.027386
C55   C     C_R   0.376830 0.429411 0.371424 -0.027374
C56   C     C_R   0.624312 0.524685 0.631044 -0.027184
C57   C     C_R   0.857028 0.913773 0.177945 -0.062828
C58   C     C_R   0.143211 0.087912 0.821533 -0.062888
C59   C     C_R   0.143214 0.412106 0.321493 -0.062885
C60   C     C_R   0.857034 0.586210 0.677904 -0.062812
H1    H     H_    0.765789 0.182123 0.071003 0.132082
H2    H     H_    0.236297 0.815242 0.920495 0.130540
H3    H     H_    0.236309 0.684751 0.420441 0.130560
H4    H     H_    0.765821 0.317880 0.570875 0.132131
C61   C     C_R   0.478753 0.026230 0.919917 0.043904
C62   C     C_R   0.522106 0.012166 0.083027 0.043690
C63   C     C_R   0.522117 0.487768 0.582893 0.043699
C64   C     C_R   0.478762 0.473657 0.419782 0.043904
C65   C     C_R   0.470698 0.023943 0.058431 0.032723
C66   C     C_R   0.529555 0.994293 0.944413 0.031992
C67   C     C_R   0.529568 0.505538 0.444277 0.031990
C68   C     C_R   0.470709 0.475973 0.558299 0.032733
C69   C     C_R   0.449304 0.035073 0.977073 0.066873
C70   C     C_R   0.551217 0.991877 0.025788 0.066761
C71   C     C_R   0.551228 0.508010 0.525653 0.066754
C72   C     C_R   0.449313 0.464860 0.476941 0.066861
C73   C     C_R   0.456205 0.051212 0.839782 -0.189487
C74   C     C_R   0.545677 0.021451 0.163322 -0.189933
C75   C     C_R   0.545687 0.478542 0.663190 -0.189929
C76   C     C_R   0.456211 0.448669 0.339649 -0.189492
C77   C     C_R   0.406413 0.071717 0.816309 -0.125491
C78   C     C_R   0.595541 0.002912 0.186648 -0.124454
C79   C     C_R   0.595549 0.497106 0.686517 -0.124417
C80   C     C_R   0.406417 0.428218 0.316179 -0.125520
O25   O     O_2   0.306073 0.093106 0.769559 -0.503536
O26   O     O_2   0.695761 0.969191 0.232375 -0.503748
O27   O     O_2   0.695763 0.530919 0.732252 -0.503729
O28   O     O_2   0.306072 0.406962 0.269433 -0.503547
C81   C     C_R   0.559443 0.962302 0.889865 -0.221595
C82   C     C_R   0.439792 0.021941 0.112782 -0.222927
C83   C     C_R   0.439804 0.477908 0.612654 -0.222885
C84   C     C_R   0.559462 0.537396 0.389727 -0.221614
H5    H     H_    0.154918 0.362740 0.776015 0.148684
H6    H     H_    0.843780 0.651767 0.232549 0.149069
H7    H     H_    0.843766 0.848163 0.732526 0.149066
H8    H     H_    0.154913 0.137337 0.275924 0.148693
H9    H     H_    0.242725 0.360968 0.822390 0.148343
H10   H     H_    0.755640 0.661523 0.187866 0.150150
H11   H     H_    0.755629 0.838366 0.687791 0.150145
H12   H     H_    0.242726 0.139140 0.322241 0.148399
H13   H     H_    0.391153 0.088287 0.754022 0.168887
H14   H     H_    0.611533 0.011196 0.248982 0.170957
H15   H     H_    0.611538 0.488870 0.748854 0.171006
H16   H     H_    0.391155 0.411640 0.253895 0.168865
H17   H     H_    0.476055 0.059373 0.793228 0.121058
H18   H     H_    0.526842 0.047855 0.210136 0.121151
H19   H     H_    0.526854 0.452177 0.710009 0.121138
H20   H     H_    0.476058 0.440469 0.293093 0.121061
H21   H     H_    0.544682 0.951000 0.827560 0.117798
H22   H     H_    0.453628 0.002119 0.174959 0.117412
H23   H     H_    0.453640 0.497654 0.674834 0.117382
H24   H     H_    0.544708 0.548606 0.327416 0.117806
C85   C     C_1   0.029393 0.237982 0.492956 0.379993
N5    N     N_1   0.047771 0.364685 0.469932 -0.358875
C86   C     C_1   0.970675 0.762047 0.507059 0.380777
N6    N     N_1   0.952331 0.635297 0.530098 -0.363587
C87   C     C_1   0.970678 0.737956 0.007059 0.380785
N7    N     N_1   0.952335 0.864705 0.030099 -0.363558
C88   C     C_1   0.029387 0.262013 0.992954 0.379997
N8    N     N_1   0.047762 0.135307 0.969928 -0.358874
C89   C     C_3   0.862262 0.222235 0.103467 -0.709359
H25   H     H_    0.838654 0.313150 0.059745 0.199282
H26   H     H_    0.878673 0.311906 0.154152 0.212006
H27   H     H_    0.890802 0.165439 0.074698 0.219785
C90   C     C_3   0.140282 0.763568 0.885228 -0.708093
H28   H     H_    0.164717 0.665971 0.924510 0.197378
H29   H     H_    0.111907 0.808104 0.917030 0.217459
H30   H     H_    0.123856 0.684396 0.831328 0.211076
C91   C     C_3   0.140292 0.736398 0.385223 -0.708107
H31   H     H_    0.164732 0.833976 0.424504 0.197400
H32   H     H_    0.123859 0.815587 0.331331 0.211090
H33   H     H_    0.111924 0.691827 0.417034 0.217470
C92   C     C_3   0.862293 0.277784 0.603413 -0.709355
H34   H     H_    0.838695 0.186871 0.559676 0.199265
H35   H     H_    0.890843 0.334595 0.574671 0.219809
H36   H     H_    0.878691 0.188105 0.654103 0.212006
C93   C     C_1   0.635897 0.911740 0.851253 0.407028
N9    N     N_1   0.656848 0.891143 0.801231 -0.290247
C94   C     C_1   0.362136 0.030144 0.150738 0.409873
N10   N     N_1   0.340421 0.023464 0.200354 -0.287363
C95   C     C_1   0.362152 0.469524 0.650619 0.409776
N11   N     N_1   0.340435 0.476059 0.700234 -0.287229
C96   C     C_1   0.635927 0.587613 0.351105 0.407199
N12   N     N_1   0.656880 0.607964 0.301071 -0.290422

loop_
_geom_bond_atom_site_label_1
_geom_bond_atom_site_label_2
_ccdc_geom_bond_type
O17   V3    S    
C94   N10   T    
O1    C5    A    
C92   H34   S    
C62   C74   A    
C23   C27   A    
O19   V1    S    
C18   O25   S    
O13   V1    S    
C93   N9    T    
C76   H20   S    
O3    C7    A    
C86   N6    T    
C76   C80   A    
C48   C52   A    
O4    V2    S    
C21   C37   A    
C79   H15   S    
C85   N5    T    
C75   H19   S    
C68   C83   A    
C95   N11   T    
O7    C3    A    
C36   H4    S    
C25   C57   A    
C54   C77   A    
C32   C36   A    
O2    V4    S    
C53   C78   A    
O10   V2    S    
C14   O22   S    
N4    C20   A    
O16   V4    S    
O4    C8    A    
O1    V3    S    
C73   H17   S    
O3    V1    S    
C1    O15   A    
C90   H28   S    
C11   C12   D    
C2    O16   A    
C24   C40   A    
O2    C6    A    
C88   N8    T    
C16   C48   A    
C52   C84   A    
O14   V2    S    
C75   C79   A    
C49   C93   S    
C89   H26   S    
C66   C81   A    
C44   C56   A    
C61   C66   A    
C73   C77   A    
C34   H2    S    
C61   C69   A    
O11   C7    A    
C63   C68   A    
O15   V3    S    
C43   C72   A    
C90   H29   S    
C77   H13   S    
C35   H3    S    
C31   C59   A    
N4    C40   S    
C67   C84   A    
C1    C60   S    
C91   H32   S    
C29   C57   A    
C19   O28   S    
O5    V1    S    
C28   C60   A    
C65   C69   A    
C31   C35   A    
C64   C72   A    
O7    V3    S    
C30   C34   A    
N1    C37   S    
O8    V4    S    
C81   H21   S    
C4    C57   S    
C20   C56   A    
C19   C55   A    
C25   H6    S    
C21   C25   A    
O18   V4    S    
N3    C19   A    
C14   C46   A    
C7    C9    S    
C27   H8    S    
C13   C45   A    
C64   C67   A    
C8    C10   S    
C24   C28   A    
C49   C81   A    
C36   C40   A    
C15   C47   A    
N2    C38   S    
O5    C1    A    
C32   C92   S    
C17   C53   A    
C61   C73   A    
C10   C86   S    
C46   C50   A    
C17   O26   S    
C22   C38   A    
N1    C17   A    
O8    C4    A    
C63   C75   A    
C83   H23   S    
C9    C10   D    
C78   H14   S    
C30   C90   S    
O9    C5    A    
C27   C59   A    
C42   C54   A    
C89   H27   S    
C26   C58   A    
C41   C53   A    
C55   C80   A    
C9    C85   S    
C5    C11   S    
C74   H18   S    
C43   C55   A    
O6    V2    S    
C2    C59   S    
C64   C76   A    
C44   C71   A    
C51   C95   S    
O12   V4    S    
N3    C39   S    
C13   N1    A    
C52   C96   S    
C68   C72   A    
C91   H33   S    
C63   C71   A    
C15   N3    A    
C22   C26   A    
O9    V1    S    
C16   N4    A    
C22   H9    S    
C74   C78   A    
C50   C94   S    
C3    O13   A    
C41   C45   A    
C28   H7    S    
C44   C48   A    
C29   C89   S    
O6    C2    A    
C15   O23   S    
C12   C88   S    
O11   V3    S    
C80   H16   S    
C90   H30   S    
C92   H36   S    
C62   C65   A    
C6    C12   S    
N2    C18   A    
C65   C82   A    
C62   C70   A    
O10   C6    A    
C56   C79   A    
O20   V2    S    
C96   N12   T    
C31   C91   S    
C87   N7    T    
C42   C69   A    
C47   C51   A    
C3    C58   S    
C41   C70   A    
C34   C38   A    
C91   H31   S    
C33   C37   A    
C30   C58   A    
C33   H1    S    
C66   C70   A    
C35   C39   A    
C13   O21   S    
C45   C49   A    
O12   C8    A    
C14   N2    A    
C24   H11   S    
C18   C54   A    
C20   O27   S    
C29   C33   A    
C16   O24   S    
C26   H5    S    
C92   H35   S    
C23   H12   S    
C42   C46   A    
C4    O14   A    
C82   H22   S    
C84   H24   S    
C67   C71   A    
C21   H10   S    
C11   C87   S    
C32   C60   A    
C51   C83   A    
C89   H25   S    
C43   C47   A    
C50   C82   A    
C23   C39   A    
