data_mof_unit_21961.cif
_audit_creation_date              2012-12-11T15:47:09-0500
_audit_creation_method            fapswitch 2.2
_symmetry_space_group_name_H-M    P1
_symmetry_Int_Tables_number       1
_space_group_crystal_system       triclinic
_cell_length_a                    20.067878
_cell_length_b                    7.279898
_cell_length_c                    13.667412
_cell_angle_alpha                 90.000896
_cell_angle_beta                  102.46452
_cell_angle_gamma                 89.999537
_cell_volume                      1949.638443

loop_
_atom_site_label
_atom_site_type_symbol
_atom_type_description
_atom_site_fract_x
_atom_site_fract_y
_atom_site_fract_z
_atom_type_partial_charge
O1    O     O_R   0.449560 0.506810 0.599700 -0.533004
O2    O     O_R   0.550440 0.006810 0.400300 -0.532998
O3    O     O_R   0.587960 0.180060 0.595760 -0.546720
O4    O     O_R   0.412040 0.680060 0.404240 -0.546726
C1    C     C_R   0.614519 0.346181 0.619065 0.709815
C2    C     C_R   0.385478 0.846181 0.380941 0.709809
O5    O     O_R   0.452380 0.177430 0.611700 -0.526375
O6    O     O_R   0.547620 0.677430 0.388300 -0.526367
O7    O     O_R   0.413900 0.001890 0.416350 -0.537375
O8    O     O_R   0.586100 0.501890 0.583650 -0.537360
C3    C     C_R   0.436866 0.346189 0.638054 0.700684
C4    C     C_R   0.563133 0.846186 0.361945 0.700699
O9    O     O_3   0.487530 0.337490 0.435890 -0.380562
O10   O     O_3   0.512470 0.837490 0.564110 -0.380579
V1    V     V_3+5 0.502310 0.064660 0.511890 1.457124
V2    V     V_3+5 0.497690 0.564660 0.488110 1.457134
C5    C     C_R   0.606068 0.913413 0.109856 0.201228
C6    C     C_R   0.393931 0.413432 0.890140 0.201230
H1    H     H_    0.513320 0.902721 0.164603 0.149534
H2    H     H_    0.486678 0.402726 0.835395 0.149532
H3    H     H_    0.694662 0.982013 0.990033 0.151648
H4    H     H_    0.305339 0.482093 0.009954 0.151665
C7    C     C_R   0.601625 0.857039 0.282878 -0.068992
C8    C     C_R   0.398374 0.357050 0.717118 -0.068983
C9    C     C_R   0.926031 0.771922 0.302094 -0.197533
C10   C     C_R   0.073966 0.271943 0.697904 -0.197537
C11   C     C_R   0.888893 0.695538 0.367862 0.156577
C12   C     C_R   0.111103 0.195548 0.632134 0.156573
C13   C     C_R   0.816605 0.703743 0.342609 0.098577
C14   C     C_R   0.183392 0.203752 0.657384 0.098577
C15   C     C_R   0.782931 0.807071 0.256851 0.035876
C16   C     C_R   0.217067 0.307082 0.743143 0.035878
C17   C     C_R   0.821935 0.865756 0.187107 0.047146
C18   C     C_R   0.178065 0.365761 0.812890 0.047145
C19   C     C_R   0.711288 0.843376 0.233841 0.081249
C20   C     C_R   0.288710 0.343392 0.766152 0.081248
C21   C     C_R   0.678049 0.896034 0.134969 0.084087
C22   C     C_R   0.321950 0.396058 0.865025 0.084090
C23   C     C_R   0.717593 0.936592 0.065017 -0.164790
C24   C     C_R   0.282407 0.436633 0.934975 -0.164805
C25   C     C_R   0.788313 0.929432 0.091971 -0.172952
C26   C     C_R   0.211688 0.429452 0.908026 -0.172959
C27   C     C_R   0.672487 0.842773 0.308034 -0.157077
C28   C     C_R   0.327511 0.342784 0.691960 -0.157080
C29   C     C_R   0.568395 0.889617 0.183770 -0.139641
C30   C     C_R   0.431604 0.389627 0.816226 -0.139654
C31   C     C_R   0.893637 0.849522 0.211472 -0.112994
C32   C     C_R   0.106362 0.349522 0.788527 -0.112993
H5    H     H_    0.697072 0.838922 0.386557 0.146295
H6    H     H_    0.302926 0.338931 0.613436 0.146297
H7    H     H_    0.980976 0.759897 0.316414 0.143517
H8    H     H_    0.019021 0.259940 0.683585 0.143508
H9    H     H_    0.816459 0.970301 0.036309 0.115281
H10   H     H_    0.183543 0.470324 0.963690 0.115289
C33   C     C_R   0.207133 0.017631 0.249444 0.131965
C34   C     C_R   0.792859 0.517632 0.750561 0.131929
C35   C     C_R   0.277318 0.025685 0.296253 0.142394
C36   C     C_R   0.722675 0.525686 0.703755 0.142311
C37   C     C_R   0.316338 0.860164 0.311227 -0.071125
C38   C     C_R   0.683653 0.360165 0.688794 -0.071110
C39   C     C_R   0.288369 0.704833 0.257408 -0.185521
C40   C     C_R   0.711610 0.204845 0.742649 -0.185486
H11   H     H_    0.319027 0.584499 0.258829 0.144599
H12   H     H_    0.680936 0.084520 0.741277 0.144569
C41   C     C_R   0.223072 0.706548 0.195791 -0.159616
C42   C     C_R   0.776914 0.206563 0.804252 -0.159593
H13   H     H_    0.205555 0.585282 0.151827 0.146681
H14   H     H_    0.794427 0.085308 0.848236 0.146638
C43   C     C_R   0.181019 0.861563 0.191325 -0.089590
C44   C     C_R   0.818975 0.361565 0.808687 -0.089566
O11   O     O_R   0.913920 0.203370 0.916260 -0.540713
O12   O     O_R   0.086080 0.703370 0.083740 -0.540720
O13   O     O_R   0.047620 0.535540 0.888290 -0.535708
O14   O     O_R   0.952380 0.035540 0.111710 -0.535708
C45   C     C_R   0.065316 0.367707 0.864492 0.700041
C46   C     C_R   0.934684 0.867708 0.135508 0.700044
O15   O     O_R   0.912040 0.532780 0.904220 -0.524887
O16   O     O_R   0.087960 0.032780 0.095780 -0.524888
O17   O     O_R   0.949550 0.708160 0.099720 -0.534300
O18   O     O_R   0.050450 0.208160 0.900280 -0.534299
C47   C     C_R   0.886824 0.364996 0.880011 0.708113
C48   C     C_R   0.113174 0.864996 0.119992 0.708113
O19   O     O_3   0.012480 0.375300 0.064060 -0.366593
O20   O     O_3   0.987520 0.875300 0.935940 -0.366591
V3    V     V_3+5 0.997690 0.648180 0.988110 1.495603
V4    V     V_3+5 0.002310 0.148180 0.011890 1.495609
C49   C     C_3   0.311208 0.212864 0.313102 -0.339014
C50   C     C_3   0.360412 0.240020 0.242149 -0.665536
H15   H     H_    0.393281 0.118494 0.239323 0.223085
H16   H     H_    0.330729 0.266386 0.164886 0.213027
H17   H     H_    0.394668 0.358353 0.266719 0.229508
H18   H     H_    0.273505 0.324447 0.296389 0.190911
H19   H     H_    0.336024 0.235709 0.392771 0.205636
C51   C     C_3   0.688780 0.712859 0.686892 -0.338813
C52   C     C_3   0.639524 0.739968 0.757794 -0.665498
H20   H     H_    0.606691 0.618422 0.760632 0.223051
H21   H     H_    0.669176 0.766397 0.835060 0.212967
H22   H     H_    0.605249 0.858243 0.733203 0.229547
H23   H     H_    0.726483 0.824480 0.703680 0.190872
H24   H     H_    0.663998 0.735703 0.607197 0.205612
I1    I     I_    0.549794 0.976167 0.963059 -0.420620
I2    I     I_    0.450205 0.476181 0.036938 -0.420592
I3    I     I_    0.762424 0.506774 0.415350 -0.461379
I4    I     I_    0.237572 0.006778 0.584640 -0.461380
C53   C     C_3   0.925101 0.599450 0.463601 -0.326357
C54   C     C_3   0.002673 0.580456 0.479555 -0.769613
H25   H     H_    0.016242 0.490774 0.421017 0.251182
H26   H     H_    0.027481 0.715456 0.479084 0.237816
H27   H     H_    0.023040 0.518761 0.553901 0.238297
H28   H     H_    0.913551 0.675666 0.528158 0.226073
H29   H     H_    0.904765 0.458354 0.464575 0.215380
C55   C     C_3   0.074894 0.099453 0.536395 -0.326334
C56   C     C_3   0.997321 0.080462 0.520438 -0.769608
H30   H     H_    0.983750 0.990786 0.578975 0.251180
H31   H     H_    0.972513 0.215465 0.520908 0.237811
H32   H     H_    0.976954 0.018769 0.446093 0.238298
H33   H     H_    0.086444 0.175662 0.471836 0.226074
H34   H     H_    0.095230 0.958352 0.535425 0.215376
I5    I     I_    0.140660 0.230184 0.283490 -0.450411
I6    I     I_    0.859324 0.730190 0.716518 -0.450399

loop_
_geom_bond_atom_site_label_1
_geom_bond_atom_site_label_2
_ccdc_geom_bond_type
C42   H14   S    
C49   C50   S    
C7    C29   A    
C11   C13   A    
O13   C45   A    
C52   H20   S    
O1    C3    A    
C46   O17   A    
C53   H28   S    
O2    C4    A    
C2    O7    A    
O12   V3    S    
C52   H22   S    
C23   C25   A    
C33   I5    S    
C12   C55   S    
O5    C3    A    
C4    C7    S    
O14   C46   A    
C16   C20   A    
C19   C21   A    
C5    C29   A    
C31   C46   S    
C55   H33   S    
C35   C37   A    
C54   H25   S    
C11   C53   S    
C36   C38   A    
C3    C8    S    
C7    C27   A    
C13   I3    S    
C38   C40   A    
C6    I2    S    
C39   H11   S    
C44   C47   S    
C5    I1    S    
C40   H12   S    
C43   C48   S    
C41   H13   S    
C18   C26   A    
O18   V4    S    
C15   C17   A    
C51   H24   S    
C14   C16   A    
C19   C27   A    
C45   O18   A    
C9    C31   A    
C10   C32   A    
C56   H32   S    
O16   V4    S    
C24   C26   A    
C53   H29   S    
O15   V3    S    
O6    V2    S    
C22   C24   A    
C49   H18   S    
C34   I6    S    
C32   C45   S    
C6    C30   A    
C55   C56   S    
C37   C39   A    
C40   C42   A    
O20   V3    S    
O4    C2    A    
C27   H5    S    
O5    V1    S    
C6    C22   A    
C35   C49   S    
C16   C18   A    
O4    V2    S    
C9    H7    S    
C10   H8    S    
O11   V4    S    
O16   C48   A    
H3    C23   S    
C50   H17   S    
O15   C47   A    
O6    C4    A    
H4    C24   S    
C52   H21   S    
O1    V2    S    
C5    C21   A    
O14   V4    S    
O2    V1    S    
C25   H9    S    
C33   C43   A    
C8    C28   A    
C50   H16   S    
C34   C44   A    
C33   C35   A    
C17   C31   A    
C15   C19   A    
C20   C28   A    
C18   C32   A    
O17   V3    S    
O3    V1    S    
C56   H30   S    
O13   V3    S    
C28   H6    S    
C1    C38   S    
C2    C37   S    
O3    C1    A    
H1    C29   S    
C9    C11   A    
C53   C54   S    
C10   C12   A    
C8    C30   A    
C20   C22   A    
O7    V1    S    
C17   C25   A    
C1    O8    A    
C13   C15   A    
O8    V2    S    
C26   H10   S    
C55   H34   S    
C42   C44   A    
C54   H26   S    
C51   H23   S    
C41   C43   A    
C49   H19   S    
C12   C14   A    
C34   C36   A    
C36   C51   S    
C51   C52   S    
O12   C48   A    
C39   C41   A    
O19   V4    S    
C50   H15   S    
C21   C23   A    
O9    V2    S    
C14   I4    S    
O10   V1    S    
O11   C47   A    
H2    C30   S    
C56   H31   S    
C54   H27   S    
