data_mof_unit_49145.cif
_audit_creation_date              2012-10-26T18:44:12-0400
_audit_creation_method            fapswitch 2.2
_symmetry_space_group_name_H-M    P1
_symmetry_Int_Tables_number       1
_space_group_crystal_system       triclinic
_cell_length_a                    19.380943
_cell_length_b                    9.084649
_cell_length_c                    7.777649
_cell_angle_alpha                 90.000026
_cell_angle_beta                  89.723241
_cell_angle_gamma                 90.00002
_cell_volume                      1369.38740734

loop_
_atom_site_label
_atom_site_type_symbol
_atom_type_description
_atom_site_fract_x
_atom_site_fract_y
_atom_site_fract_z
_atom_type_partial_charge
C1    C     C_R   0.500000 0.219996 0.500000 0.531759
C2    C     C_R   0.256448 0.596625 0.387162 0.138948
C3    C     C_R   0.180601 0.415516 0.613518 0.101426
C4    C     C_R   0.819398 0.415517 0.386481 0.101425
C5    C     C_R   0.816010 0.599450 0.615667 0.060978
C6    C     C_R   0.183990 0.599451 0.384334 0.060978
C7    C     C_R   0.145866 0.509559 0.498876 0.024280
C8    C     C_R   0.854134 0.509560 0.501124 0.024281
C9    C     C_R   0.291217 0.501858 0.501631 0.000709
C10   C     C_R   0.708783 0.501858 0.498369 0.000710
C11   C     C_R   0.930150 0.510444 0.502093 0.365380
C12   C     C_R   0.500000 0.779999 0.500000 0.542651
C13   C     C_R   0.069850 0.510444 0.497906 0.365380
C14   C     C_3   0.306832 0.170866 0.644244 -0.298476
C15   C     C_3   0.693168 0.170867 0.355755 -0.298476
C16   C     C_3   0.686679 0.830973 0.647322 -0.282831
C17   C     C_3   0.313322 0.830974 0.352682 -0.282831
C18   C     C_R   0.367173 0.498646 0.500585 0.561173
C19   C     C_R   0.632827 0.498646 0.499415 0.561173
C20   C     C_1   0.500000 0.065371 0.500000 -0.076415
C21   C     C_1   0.500000 0.934619 0.500000 -0.076718
C22   C     C_R   0.253006 0.409630 0.613707 0.091173
C23   C     C_R   0.746994 0.409630 0.386292 0.091172
C24   C     C_R   0.743552 0.596624 0.612838 0.138947
Cu1   Cu    Cu3+1 0.500000 0.500000 0.669080 1.012255
Cu2   Cu    Cu3+1 0.500000 0.500000 0.330920 1.012255
H1    H     H_    0.322376 0.351101 0.806293 0.283122
H2    H     H_    0.733776 0.897397 0.621957 0.144020
H3    H     H_    0.652538 0.892867 0.736704 0.147893
H4    H     H_    0.658448 0.813677 0.524983 0.143480
H5    H     H_    0.274323 0.703233 0.154775 0.280971
H6    H     H_    0.266224 0.897399 0.378048 0.144019
H7    H     H_    0.347463 0.892869 0.263300 0.147893
H8    H     H_    0.341552 0.813676 0.475021 0.143480
H9    H     H_    0.157731 0.355468 0.858243 0.252237
H10   H     H_    0.152879 0.217316 0.712143 0.255830
H11   H     H_    0.847121 0.217318 0.287856 0.255830
H12   H     H_    0.261849 0.117073 0.582528 0.145798
H13   H     H_    0.842269 0.355470 0.141757 0.252237
H14   H     H_    0.884961 0.631474 0.808347 0.251057
H15   H     H_    0.875759 0.776795 0.671207 0.263619
H16   H     H_    0.115039 0.631476 0.191653 0.251057
H17   H     H_    0.124241 0.776796 0.328796 0.263619
H18   H     H_    0.327815 0.094816 0.742749 0.148190
H19   H     H_    0.347344 0.191515 0.545775 0.143533
H20   H     H_    0.677624 0.351102 0.193707 0.283123
H21   H     H_    0.738150 0.117074 0.417470 0.145799
H22   H     H_    0.672185 0.094817 0.257250 0.148191
H23   H     H_    0.652656 0.191516 0.454224 0.143533
H24   H     H_    0.725677 0.703230 0.845227 0.280971
N1    N     N_1   0.500000 0.500000 0.076820 -0.081352
N2    N     N_2   0.294819 0.691422 0.276125 -0.474803
N3    N     N_3   0.141800 0.328370 0.733935 -0.583128
N4    N     N_3   0.858199 0.328372 0.266064 -0.583129
N5    N     N_3   0.849671 0.693580 0.737522 -0.632774
N6    N     N_3   0.150329 0.693582 0.262480 -0.632774
N7    N     N_1   0.500000 0.500000 0.923180 -0.081352
N8    N     N_R   0.034311 0.639014 0.499385 -0.239817
N9    N     N_R   0.965704 0.381834 0.501019 -0.181238
N10   N     N_R   0.965689 0.639014 0.500617 -0.239817
N11   N     N_R   0.034296 0.381834 0.498978 -0.181239
N12   N     N_2   0.285938 0.307198 0.725253 -0.521509
N13   N     N_2   0.714062 0.307199 0.274746 -0.521510
N14   N     N_2   0.705181 0.691420 0.723877 -0.474803
O1    O     O_R   0.500000 0.288390 0.642760 -0.501150
O2    O     O_R   0.500000 0.711610 0.357240 -0.491181
O3    O     O_R   0.500000 0.711610 0.642760 -0.491181
O4    O     O_R   0.500000 0.288390 0.357240 -0.501150
O5    O     O_R   0.400140 0.500000 0.642830 -0.517672
O6    O     O_R   0.599860 0.500000 0.357170 -0.517672
O7    O     O_R   0.599860 0.500000 0.642830 -0.470779
O8    O     O_R   0.400140 0.500000 0.357170 -0.470779

loop_
_geom_bond_atom_site_label_1
_geom_bond_atom_site_label_2
_ccdc_geom_bond_type
C16   H2    S    
C5    C8    A    
C1    O1    A    
C6    C7    A    
Cu1   O7    S    
H1    N12   S    
C10   C23   A    
H9    N3    S    
H24   N14   S    
N8    N10   A    
H20   N13   S    
Cu1   O5    S    
C19   O7    A    
H17   N6    S    
Cu1   O3    S    
C2    N2    S    
C15   H21   S    
H5    N2    S    
C4    C8    A    
H14   N5    S    
Cu2   O4    S    
C18   O5    A    
C23   N13   S    
Cu1   Cu2   S    
Cu1   O1    S    
C24   N14   S    
C13   N8    A    
Cu2   N1    S    
C19   O6    A    
C17   H7    S    
C3    N3    S    
C2    C6    A    
C5    C24   A    
Cu1   N7    S    
C15   H22   S    
C8    C11   S    
N1    N7    T    
H11   N4    S    
C17   N2    S    
C10   C19   S    
C14   H19   S    
C3    C7    A    
C15   H23   S    
C18   O8    A    
Cu2   O6    S    
C12   O3    A    
C11   N9    A    
C9    C22   A    
N9    N11   A    
H13   N4    S    
C22   N12   S    
C17   H8    S    
C16   H4    S    
C14   H12   S    
C14   N12   S    
C9    C18   S    
C7    C13   S    
C1    O4    A    
C13   N11   A    
C20   C21   T    
C14   H18   S    
Cu2   O8    S    
C17   H6    S    
C4    C23   A    
C15   N13   S    
H15   N5    S    
C1    C20   S    
H10   N3    S    
C16   N14   S    
H16   N6    S    
C16   H3    S    
C4    N4    S    
C2    C9    A    
C12   O2    A    
C12   C21   S    
C5    N5    S    
C10   C24   A    
C11   N10   A    
C6    N6    S    
C3    C22   A    
Cu2   O2    S    
