data_mof_unit_56836.cif
_audit_creation_date              2012-12-10T16:32:40-0500
_audit_creation_method            fapswitch 2.2
_symmetry_space_group_name_H-M    P1
_symmetry_Int_Tables_number       1
_space_group_crystal_system       triclinic
_cell_length_a                    16.996936
_cell_length_b                    17.051897
_cell_length_c                    17.032718
_cell_angle_alpha                 65.114979
_cell_angle_beta                  65.367266
_cell_angle_gamma                 65.219543
_cell_volume                      3888.80578784

loop_
_atom_site_label
_atom_site_type_symbol
_atom_type_description
_atom_site_fract_x
_atom_site_fract_y
_atom_site_fract_z
_atom_type_partial_charge
C1    C     C_R   0.596571 0.005900 0.607860 -0.059060
C2    C     C_R   0.821663 0.561466 0.039702 0.933624
C3    C     C_3   0.817623 0.693897 0.260022 -0.796665
C4    C     C_3   0.908683 0.492456 0.760441 0.130344
C5    C     C_3   0.896099 0.399421 0.818292 -0.723050
C6    C     C_R   0.433454 0.971862 0.178075 0.953356
C7    C     C_R   0.561830 0.039289 0.820842 0.899690
C8    C     C_R   0.566717 0.822122 0.028165 0.947862
C9    C     C_R   0.437735 0.178562 0.961984 0.915793
C10   C     C_R   0.025432 0.567941 0.822756 0.954160
C11   C     C_R   0.963235 0.437357 0.178326 0.918873
C12   C     C_R   0.824622 0.018986 0.570656 0.980958
C13   C     C_R   0.178606 0.960842 0.438302 0.912449
C14   C     C_R   0.552990 0.979547 0.563138 0.116952
C15   C     C_R   0.414822 0.938753 0.420755 -0.013388
C16   C     C_R   0.464184 0.942987 0.475724 0.107439
C17   C     C_R   0.028747 0.549352 0.530918 0.126073
C18   C     C_R   0.983226 0.462804 0.450043 0.121277
C19   C     C_R   0.543145 0.526965 0.043923 0.108551
C20   C     C_R   0.462655 0.445385 0.991156 0.135655
C21   C     C_R   0.600009 0.956800 0.480006 -0.129849
C22   C     C_R   0.416087 0.980633 0.548810 -0.107292
C23   C     C_R   0.022853 0.459390 0.571505 -0.116421
C24   C     C_R   0.023584 0.533862 0.398062 -0.066799
C25   C     C_R   0.450683 0.559724 0.047370 -0.127599
C26   C     C_R   0.041114 0.595282 0.583591 -0.058910
C27   C     C_R   0.544166 0.396616 0.016766 -0.102158
C28   C     C_R   0.560530 0.917372 0.452236 -0.110625
C29   C     C_R   0.463244 0.973644 0.603646 -0.083935
C30   C     C_R   0.426247 0.536340 0.992699 -0.130136
C31   C     C_R   0.592669 0.446739 0.016860 -0.111153
C32   C     C_R   0.971248 0.435063 0.543872 -0.147979
C33   C     C_R   0.017916 0.590871 0.441958 -0.132498
C34   C     C_R   0.546209 0.055769 0.672332 0.485582
C35   C     C_R   0.448096 0.960680 0.324740 0.424605
C36   C     C_R   0.072047 0.673026 0.541060 0.473457
C37   C     C_R   0.966375 0.412439 0.406039 -0.008615
C38   C     C_R   0.979647 0.317821 0.441009 0.414702
C39   C     C_R   0.671091 0.539219 0.078602 0.454879
C40   C     C_R   0.316762 0.436840 0.987356 0.385383
C41   C     C_R   0.329702 0.920783 0.462052 0.448973
C42   C     C_R   0.692025 0.977920 0.589804 0.437463
C43   C     C_R   0.457062 0.325735 0.939446 0.471296
C44   C     C_R   0.553503 0.676767 0.036856 0.404699
C45   C     C_R   0.943840 0.457285 0.323762 0.424745
C46   C     C_R   0.020211 0.562592 0.680054 0.382649
C47   C     C_R   0.593633 0.059934 0.722165 -0.225376
C48   C     C_R   0.587966 0.580896 0.056092 -0.040223
C49   C     C_R   0.400215 0.956946 0.275216 -0.162728
C50   C     C_R   0.059649 0.724721 0.594549 -0.209180
C51   C     C_R   0.963405 0.273141 0.397645 -0.159146
C52   C     C_R   0.723951 0.593624 0.061482 -0.158293
C53   C     C_R   0.271725 0.395180 0.969179 -0.160169
C54   C     C_R   0.276797 0.937993 0.407011 -0.177250
C55   C     C_R   0.730896 0.022120 0.611474 -0.151679
C56   C     C_R   0.404894 0.275550 0.945056 -0.195025
C57   C     C_R   0.601193 0.725615 0.041257 -0.171031
C58   C     C_R   0.945523 0.405653 0.275296 -0.180098
C59   C     C_R   0.412328 0.402884 0.971182 -0.017932
C60   C     C_R   0.034026 0.605053 0.727190 -0.158672
C61   C     C_R   0.681710 0.060426 0.680808 -0.413993
C62   C     C_R   0.315997 0.945314 0.317127 -0.408917
C63   C     C_R   0.051240 0.686357 0.684539 -0.412683
C64   C     C_R   0.945272 0.317711 0.316449 -0.404420
C65   C     C_R   0.685587 0.683851 0.052219 -0.416391
C66   C     C_R   0.315523 0.314629 0.950467 -0.407078
C67   C     C_2   0.424352 0.942722 0.702781 0.489443
C68   C     C_2   0.619571 0.847495 0.404566 0.495034
C69   C     C_2   0.988974 0.689376 0.396038 0.512651
C70   C     C_R   0.972773 0.177555 0.432974 0.945615
C71   C     C_2   0.902046 0.390331 0.612711 0.512173
C72   C     C_2   0.689782 0.426889 0.967274 0.498454
C73   C     C_2   0.386124 0.610364 0.921895 0.523093
C74   C     C_2   0.321954 0.040283 0.560883 0.487702
C75   C     C_2   0.682439 0.983627 0.415971 0.492791
C76   C     C_2   0.572352 0.297416 0.057514 0.487822
C77   C     C_2   0.378081 0.599293 0.118579 0.519330
C78   C     C_2   0.097302 0.529128 0.313323 0.439015
C79   C     C_2   0.091913 0.385467 0.614312 0.534891
C80   C     C_3   0.425941 0.183758 0.684386 0.070210
C81   C     C_R   0.039651 0.821786 0.561666 0.916726
C82   C     C_3   0.325862 0.224137 0.690258 -0.746564
C83   C     C_3   0.517571 0.070708 0.265127 0.126267
C84   C     C_3   0.609518 0.087998 0.217578 -0.711122
C85   C     C_3   0.204279 0.685957 0.430101 0.060638
C86   C     C_3   0.246429 0.716405 0.328223 -0.717331
C87   C     C_3   0.093330 0.239217 0.508299 0.152746
C88   C     C_3   0.110092 0.178770 0.599252 -0.754711
C89   C     C_3   0.658407 0.417498 0.203410 0.041647
C90   C     C_3   0.694001 0.315040 0.238782 -0.758295
C91   C     C_3   0.218187 0.511926 0.093764 0.173706
C92   C     C_R   0.177088 0.432368 0.974589 0.949694
C93   C     C_3   0.145188 0.603132 0.095793 -0.738355
C94   C     C_3   0.305123 0.800000 0.584673 0.075776
C95   C     C_3   0.270452 0.768544 0.687429 -0.748548
C96   C     C_3   0.730075 0.824997 0.641660 0.064248
C97   C     C_3   0.796717 0.737651 0.622223 -0.743193
C98   C     C_3   0.577606 0.313980 0.813886 0.071635
C99   C     C_3   0.680484 0.287932 0.778977 -0.750387
C100  C     C_3   0.471108 0.756978 0.935171 0.153511
C101  C     C_3   0.375633 0.816493 0.930080 -0.723963
C102  C     C_3   0.834651 0.592127 0.301281 0.110601
H1    H     H_    0.714567 0.079314 0.709912 0.222809
H2    H     H_    0.909693 0.349620 0.679150 0.030314
H3    H     H_    0.731017 0.358258 0.967032 0.020212
H4    H     H_    0.341297 0.673821 0.934516 0.037602
H5    H     H_    0.278974 0.046404 0.627329 0.025997
H6    H     H_    0.736096 0.941392 0.375368 0.051369
H7    H     H_    0.641843 0.261148 0.058754 0.016798
H8    H     H_    0.309507 0.631310 0.113797 0.011565
H9    H     H_    0.125361 0.585401 0.273032 0.034823
H10   H     H_    0.080515 0.320556 0.655107 0.020911
H11   H     H_    0.464633 0.221379 0.618108 0.143721
H12   H     H_    0.277381 0.949521 0.277632 0.226406
H13   H     H_    0.435405 0.193002 0.740435 0.133455
H14   H     H_    0.314001 0.217410 0.634279 0.256981
H15   H     H_    0.285255 0.188490 0.755972 0.242191
H16   H     H_    0.303606 0.296923 0.685019 0.242836
H17   H     H_    0.488719 0.087271 0.330050 0.147903
H18   H     H_    0.471658 0.115892 0.222038 0.192688
H19   H     H_    0.632559 0.088544 0.146055 0.252345
H20   H     H_    0.605091 0.153716 0.220178 0.216852
H21   H     H_    0.660533 0.033804 0.250978 0.222212
H22   H     H_    0.239101 0.612744 0.456656 0.164282
H23   H     H_    0.052486 0.722848 0.722829 0.229264
H24   H     H_    0.215480 0.725926 0.459976 0.113127
H25   H     H_    0.235500 0.678742 0.295872 0.261129
H26   H     H_    0.214941 0.790021 0.300453 0.241868
H27   H     H_    0.320324 0.703325 0.312376 0.233672
H28   H     H_    0.120577 0.297199 0.483073 0.145813
H29   H     H_    0.129506 0.199529 0.458923 0.179677
H30   H     H_    0.119068 0.107415 0.608308 0.260906
H31   H     H_    0.170837 0.184533 0.603176 0.207727
H32   H     H_    0.051788 0.199300 0.655965 0.222216
H33   H     H_    0.584253 0.435986 0.214587 0.172093
H34   H     H_    0.938826 0.281402 0.281290 0.223417
H35   H     H_    0.670148 0.447770 0.242697 0.141875
H36   H     H_    0.767710 0.294224 0.230064 0.255971
H37   H     H_    0.658100 0.291382 0.311797 0.228429
H38   H     H_    0.682524 0.283022 0.201162 0.240142
H39   H     H_    0.261769 0.496488 0.135276 0.146803
H40   H     H_    0.184746 0.457679 0.123325 0.172393
H41   H     H_    0.128275 0.638988 0.030704 0.262294
H42   H     H_    0.081561 0.593711 0.149111 0.255764
H43   H     H_    0.168989 0.647675 0.107323 0.171133
H44   H     H_    0.377713 0.760430 0.563599 0.165607
H45   H     H_    0.724267 0.723346 0.047672 0.228992
H46   H     H_    0.264845 0.785885 0.557325 0.116767
H47   H     H_    0.309678 0.781080 0.717024 0.255732
H48   H     H_    0.197671 0.805794 0.710439 0.242016
H49   H     H_    0.278097 0.694977 0.711534 0.230997
H50   H     H_    0.660568 0.821412 0.659285 0.172256
H51   H     H_    0.738682 0.828683 0.701395 0.136028
H52   H     H_    0.782453 0.679344 0.682192 0.179948
H53   H     H_    0.789788 0.730768 0.563608 0.276498
H54   H     H_    0.866700 0.737285 0.608114 0.270834
H55   H     H_    0.550306 0.387268 0.779630 0.162226
H56   H     H_    0.278514 0.279331 0.945122 0.227034
H57   H     H_    0.554530 0.273159 0.795891 0.119701
H58   H     H_    0.709748 0.214929 0.811457 0.242789
H59   H     H_    0.702677 0.300814 0.704582 0.241495
H60   H     H_    0.705814 0.328568 0.794504 0.249648
H61   H     H_    0.493234 0.701742 0.905425 0.120740
H62   H     H_    0.519126 0.798178 0.894627 0.182574
H63   H     H_    0.364877 0.885787 0.929025 0.258380
H64   H     H_    0.364911 0.819744 0.868811 0.203369
H65   H     H_    0.323832 0.788475 0.989706 0.214901
H66   H     H_    0.798010 0.577532 0.375032 0.162118
H67   H     H_    0.352790 0.948502 0.733202 0.022151
H68   H     H_    0.807064 0.569464 0.268191 0.131654
H69   H     H_    0.841682 0.719301 0.293609 0.237450
H70   H     H_    0.854205 0.710310 0.186533 0.249048
H71   H     H_    0.744024 0.728032 0.269003 0.244889
H72   H     H_    0.879181 0.519011 0.703696 0.121369
H73   H     H_    0.872734 0.539622 0.802487 0.175442
H74   H     H_    0.893178 0.386259 0.888950 0.261387
H75   H     H_    0.833527 0.395200 0.816596 0.204619
H76   H     H_    0.953693 0.345110 0.792618 0.211687
H77   H     H_    0.692042 0.836426 0.377142 0.023742
H78   H     H_    0.003523 0.713910 0.322937 0.025329
O1    O     O_R   0.982940 0.138950 0.510160 -0.575050
O2    O     O_R   0.982940 0.510160 0.138950 -0.599111
O3    O     O_R   0.861050 0.017060 0.489840 -0.569905
O4    O     O_R   0.138950 0.982940 0.510160 -0.588283
O5    O     O_R   0.867700 0.025880 0.612340 -0.650363
O6    O     O_R   0.132300 0.974120 0.387660 -0.650793
O7    O     O_R   0.025880 0.612340 0.867700 -0.644567
O8    O     O_R   0.974120 0.387660 0.132300 -0.641343
O9    O     O_R   0.612340 0.867700 0.025880 -0.639706
O10   O     O_R   0.387660 0.132300 0.974120 -0.649016
O11   O     O_R   0.387660 0.974120 0.132300 -0.639785
O12   O     O_R   0.017060 0.861050 0.489840 -0.553041
O13   O     O_R   0.612340 0.025880 0.867700 -0.638869
O14   O     O_R   0.132300 0.387660 0.974120 -0.638756
O15   O     O_R   0.867700 0.612340 0.025880 -0.655080
O16   O     O_R   0.974120 0.132300 0.387660 -0.642292
O17   O     O_R   0.025880 0.867700 0.612340 -0.655688
O18   O     O_2   0.473611 0.905921 0.751532 -0.621547
O19   O     O_2   0.588276 0.797638 0.399549 -0.581869
O20   O     O_2   0.943676 0.743726 0.438838 -0.555718
O21   O     O_2   0.835148 0.399366 0.595696 -0.581373
O22   O     O_2   0.723329 0.488791 0.921558 -0.611208
O23   O     O_R   0.138950 0.510160 0.982940 -0.591511
O24   O     O_2   0.402397 0.600497 0.849127 -0.577170
O25   O     O_2   0.293431 0.087217 0.495504 -0.611399
O26   O     O_2   0.689290 0.056345 0.404800 -0.580925
O27   O     O_2   0.516596 0.255789 0.095214 -0.596467
O28   O     O_2   0.393905 0.594360 0.184442 -0.583618
O29   O     O_2   0.132573 0.459551 0.291724 -0.625647
O30   O     O_2   0.162434 0.396667 0.603928 -0.580612
O31   O     O_3   0.452773 0.091037 0.692237 -0.599375
O32   O     O_3   0.530212 0.979140 0.279499 -0.605923
O33   O     O_3   0.111109 0.700332 0.448507 -0.590237
O34   O     O_R   0.861050 0.489840 0.017060 -0.577364
O35   O     O_3   0.999212 0.269804 0.522234 -0.614397
O36   O     O_3   0.704727 0.446190 0.110687 -0.603960
O37   O     O_3   0.270535 0.519822 0.003038 -0.626815
O38   O     O_3   0.295516 0.893345 0.555322 -0.611075
O39   O     O_3   0.746192 0.899978 0.564816 -0.594287
O40   O     O_3   0.550658 0.296567 0.908499 -0.598306
O41   O     O_3   0.467768 0.721584 0.027152 -0.602806
O42   O     O_3   0.928639 0.549903 0.287059 -0.617553
O43   O     O_3   0.002324 0.480836 0.727470 -0.603476
O44   O     O_R   0.510160 0.982940 0.138950 -0.574383
O45   O     O_R   0.489840 0.017060 0.861050 -0.586009
O46   O     O_R   0.489840 0.861050 0.017060 -0.585058
O47   O     O_R   0.510160 0.138950 0.982940 -0.570402
O48   O     O_R   0.017060 0.489840 0.861050 -0.573639
Zn1   Zn    Zn3+2 0.004880 0.004880 0.583590 0.972307
Zn2   Zn    Zn3+2 0.995120 0.995120 0.416410 1.026881
Zn3   Zn    Zn3+2 0.004880 0.583590 0.004880 0.940127
Zn4   Zn    Zn3+2 0.995120 0.416410 0.995120 0.983167
Zn5   Zn    Zn3+2 0.583590 0.004880 0.004880 0.992158
Zn6   Zn    Zn3+2 0.416410 0.995120 0.995120 0.973717

loop_
_geom_bond_atom_site_label_1
_geom_bond_atom_site_label_2
_ccdc_geom_bond_type
C102  H68   S    
C79   O30   D    
C87   C88   S    
C64   H34   S    
C16   C28   A    
C89   H33   S    
C22   C29   A    
C98   O40   S    
C40   O37   S    
C43   O40   S    
O48   Zn4   S    
C38   O35   S    
C71   H2    S    
C67   O18   D    
C19   C31   A    
C90   H37   S    
C20   C30   A    
C85   C86   S    
C67   H67   S    
O11   Zn6   S    
O12   Zn2   S    
C17   C23   A    
C18   C32   A    
C79   H10   S    
C68   O19   D    
C18   C24   A    
O45   Zn6   S    
C87   H28   S    
C61   H1    S    
C18   C37   S    
O4    Zn1   S    
C62   H12   S    
C92   O14   A    
C69   H78   S    
C81   O17   A    
C8    C57   S    
C75   O26   D    
C3    H70   S    
C12   O3    A    
C87   H29   S    
C15   C16   S    
C96   H50   S    
C45   O42   S    
C94   O38   S    
C85   H22   S    
C2    O15   A    
C97   H54   S    
C83   H17   S    
C101  H65   S    
C74   H5    S    
C99   H59   S    
C9    O10   A    
C94   H44   S    
C3    H71   S    
C96   H51   S    
O1    Zn1   S    
C76   H7    S    
C4    H73   S    
C6    O11   A    
C35   C49   A    
C69   O20   D    
C16   C22   A    
C98   H55   S    
C93   H43   S    
C78   H9    S    
O10   Zn6   S    
C51   C70   S    
C7    O13   A    
C11   C58   S    
O9    Zn5   S    
C8    O9    A    
C83   O32   S    
C93   H41   S    
C76   O27   D    
C43   C59   A    
C91   H40   S    
O7    Zn3   S    
C39   C52   A    
O34   Zn4   S    
C75   H6    S    
C40   C59   A    
C4    H72   S    
C99   H58   S    
C10   O48   A    
C50   C63   A    
C85   H24   S    
C94   C95   S    
C11   O2    A    
C17   C33   A    
C15   C35   A    
C90   H36   S    
C1    C34   A    
C41   O38   S    
C32   C71   S    
C6    O44   A    
C58   C64   A    
O47   Zn5   S    
C73   O24   D    
C45   C58   A    
C86   H26   S    
C11   O8    A    
O14   Zn4   S    
C13   O6    A    
C15   C41   A    
C80   C82   S    
C42   O39   S    
C77   O28   D    
C9    C56   S    
C30   C73   S    
C8    O46   A    
C19   C48   S    
C38   C51   A    
C7    O45   A    
C94   H46   S    
C84   H19   S    
C27   C31   A    
C46   O43   S    
C5    H76   S    
C84   H21   S    
C7    C47   S    
C83   H18   S    
C91   O37   S    
C10   C60   S    
C35   O32   S    
C9    O47   A    
C81   O12   A    
C47   C61   A    
C37   C38   A    
C85   O33   S    
C36   O33   S    
C91   C93   S    
C99   H60   S    
O17   Zn1   S    
C43   C56   A    
C70   O1    A    
C83   C84   S    
O3    Zn2   S    
C80   H13   S    
C44   C57   A    
C13   O4    A    
C96   C97   S    
C53   C92   S    
C10   O7    A    
O15   Zn3   S    
C100  H62   S    
C95   H48   S    
C97   H52   S    
C80   H11   S    
C20   C59   S    
C101  H63   S    
C53   C66   A    
C93   H42   S    
C78   O29   D    
C5    H75   S    
C63   H23   S    
C92   O23   A    
C2    C52   S    
C80   O31   S    
C95   H47   S    
C14   C21   A    
C39   O36   S    
C3    C102  S    
C24   C78   S    
C31   C72   S    
C21   C28   A    
O16   Zn2   S    
C2    O34   A    
C89   H35   S    
C60   C63   A    
O44   Zn5   S    
C5    H74   S    
C25   C77   S    
C65   H45   S    
C82   H16   S    
C14   C29   A    
C37   C45   A    
C27   C76   S    
C4    O43   S    
C66   H56   S    
C36   C50   A    
C102  O42   S    
C72   O22   D    
C13   C54   S    
C26   C36   A    
C25   C30   A    
C71   O21   D    
C102  H66   S    
C49   C62   A    
C44   O41   S    
C46   C60   A    
C86   H25   S    
C51   C64   A    
C57   C65   A    
C4    C5    S    
C28   C68   S    
C88   H31   S    
C90   H38   S    
C86   H27   S    
C1    C14   S    
C20   C27   A    
C33   C69   S    
C96   O39   S    
O5    Zn1   S    
C21   C75   S    
C68   H77   S    
C24   C33   A    
O46   Zn6   S    
C87   O35   S    
O2    Zn3   S    
C23   C32   A    
O13   Zn5   S    
O6    Zn2   S    
C101  H64   S    
C82   H14   S    
C29   C67   S    
O23   Zn3   S    
C3    H69   S    
C73   H4    S    
C89   O36   S    
C100  O41   S    
C42   C55   A    
C56   C66   A    
C12   O5    A    
C55   C61   A    
C100  C101  S    
C98   C99   S    
C17   C26   S    
C100  H61   S    
C97   H53   S    
C6    C49   S    
C77   H8    S    
C19   C25   A    
C41   C54   A    
C12   C55   S    
C34   O31   S    
C26   C46   A    
C88   H32   S    
C1    C42   A    
C95   H49   S    
C98   H57   S    
C22   C74   S    
C70   O16   A    
C40   C53   A    
C88   H30   S    
C72   H3    S    
C54   C62   A    
C34   C47   A    
C82   H15   S    
C23   C79   S    
C89   C90   S    
O8    Zn4   S    
C84   H20   S    
C52   C65   A    
C44   C48   A    
C50   C81   S    
C39   C48   A    
C91   H39   S    
C74   O25   D    
