data_mof_unit_8272.cif
_audit_creation_date              2012-12-10T19:00:12-0500
_audit_creation_method            fapswitch 2.2
_symmetry_space_group_name_H-M    P1
_symmetry_Int_Tables_number       1
_space_group_crystal_system       triclinic
_cell_length_a                    9.555506
_cell_length_b                    10.825196
_cell_length_c                    13.383945
_cell_angle_alpha                 90.144372
_cell_angle_beta                  73.590702
_cell_angle_gamma                 89.925294
_cell_volume                      1328.04039678

loop_
_atom_site_label
_atom_site_type_symbol
_atom_type_description
_atom_site_fract_x
_atom_site_fract_y
_atom_site_fract_z
_atom_type_partial_charge
C1    C     C_R   0.500539 0.737627 0.498671 0.807998
C2    C     C_R   0.447534 0.421978 0.972788 0.009472
C3    C     C_R   0.492360 0.419870 0.862375 0.048262
C4    C     C_R   0.554324 0.442930 0.026507 0.071575
C5    C     C_R   0.702405 0.456714 0.969036 0.122025
C6    C     C_R   0.746278 0.426643 0.863560 -0.351613
C7    C     C_R   0.642124 0.397370 0.811806 0.410394
C8    C     C_R   0.518106 0.456568 0.134956 -0.225855
C9    C     C_R   0.765947 0.512090 0.126274 -0.162932
C10   C     C_R   0.385157 0.440079 0.808101 -0.088756
C11   C     C_R   0.383682 0.936510 0.480019 0.053286
C12   C     C_R   0.424450 0.480701 0.697912 0.820511
C13   C     C_R   0.504989 0.870741 0.489550 -0.085848
C14   C     C_R   0.633813 0.935442 0.485920 -0.203467
C15   C     C_R   0.633507 0.064039 0.486833 -0.136133
C16   C     C_R   0.504921 0.129179 0.490103 -0.131632
C17   C     C_R   0.384011 0.063906 0.479527 0.049304
C18   C     C_3   0.227358 0.069811 0.543265 0.243175
C19   C     C_3   0.227414 0.929094 0.543039 -0.513782
C20   C     C_R   0.949153 0.415656 0.441583 0.273751
C21   C     C_R   0.899906 0.575275 0.564751 -0.084497
C22   C     C_R   0.048679 0.575210 0.564817 -0.105590
C23   C     C_R   0.500620 0.262354 0.498799 0.827187
C24   C     C_R   0.096930 0.416340 0.441275 0.320889
C25   C     C_3   0.147103 0.406975 0.325919 -0.566714
C26   C     C_3   0.989076 0.404464 0.326002 -0.077992
C27   C     C_R   0.577640 0.499152 0.299754 0.806105
C28   C     C_R   0.805828 0.494973 0.018694 -0.165651
C29   C     C_R   0.622038 0.490110 0.185382 -0.040226
C30   C     C_R   0.237138 0.426098 0.862168 -0.215630
C31   C     C_R   0.195426 0.402049 0.968395 -0.134058
C32   C     C_R   0.297713 0.405617 0.024171 -0.145309
Cu1   Cu    Cu3+1 0.359330 0.500020 0.500010 0.956906
Cu2   Cu    Cu3+1 0.640670 0.499980 0.499990 0.981545
H1    H     H_    0.847500 0.542058 0.162820 0.143311
H2    H     H_    0.731704 0.111688 0.490068 0.204071
H3    H     H_    0.211646 0.111966 0.621538 0.138642
H4    H     H_    0.214203 0.888728 0.621483 0.170854
H5    H     H_    0.157462 0.886906 0.498436 0.210942
H6    H     H_    0.823914 0.638015 0.615684 0.149273
H7    H     H_    0.084198 0.637940 0.615754 0.146447
H8    H     H_    0.201177 0.493423 0.290585 0.188669
H9    H     H_    0.207917 0.319840 0.299173 0.224474
H10   H     H_    0.958192 0.487375 0.288520 0.154282
H11   H     H_    0.861544 0.421257 0.822488 0.138832
H12   H     H_    0.916912 0.513181 0.973700 0.127377
H13   H     H_    0.409710 0.440491 0.181993 0.141179
H14   H     H_    0.153313 0.433279 0.822338 0.151098
H15   H     H_    0.255934 0.393162 0.106889 0.146149
H16   H     H_    0.082411 0.385062 0.009185 0.160874
H17   H     H_    0.732521 0.887421 0.487882 0.171018
N1    N     N_R   0.852320 0.499070 0.499340 -0.203089
N2    N     N_R   0.148230 0.499110 0.499340 -0.193275
O1    O     O_R   0.381190 0.680360 0.500000 -0.575523
O2    O     O_R   0.618780 0.680320 0.499990 -0.594229
O3    O     O_R   0.323230 0.500000 0.650990 -0.599938
O4    O     O_R   0.560820 0.499960 0.650980 -0.537357
O5    O     O_R   0.381220 0.319680 0.500010 -0.570499
O6    O     O_R   0.618810 0.319640 0.500000 -0.543061
O7    O     O_R   0.439180 0.500040 0.349020 -0.588391
O8    O     O_R   0.676770 0.500000 0.349010 -0.580543
O9    O     O_3   0.134928 0.121628 0.489057 -0.707731
H18   H     H_    0.161518 0.087006 0.417302 0.344578
I1    I     I_    0.924408 0.231862 0.274797 -0.409745
O10   O     O_3   0.682775 0.334265 0.718030 -0.701859
H19   H     H_    0.790347 0.323996 0.695298 0.326469

loop_
_geom_bond_atom_site_label_1
_geom_bond_atom_site_label_2
_ccdc_geom_bond_type
C25   H8    S    
C23   O5    A    
C2    C4    A    
C1    O1    A    
C6    C7    A    
C19   H4    S    
C27   C29   S    
C5    C28   A    
C10   C30   A    
Cu2   N1    S    
C14   H17   S    
Cu1   O5    S    
C9    C29   A    
C30   C31   A    
C4    C8    A    
C11   C19   S    
C16   C23   S    
C25   H9    S    
Cu1   O3    S    
C2    C3    A    
C1    O2    A    
C8    H13   S    
C26   H10   S    
Cu2   O2    S    
C20   N1    A    
C3    C10   A    
C12   O3    A    
C13   C14   A    
C23   O6    A    
Cu1   O7    S    
C11   C13   A    
C28   H12   S    
O9    H18   S    
C21   H6    S    
C19   H5    S    
Cu2   O4    S    
C12   O4    A    
C10   C12   S    
C2    C32   A    
C30   H14   S    
C6    H11   S    
C18   H3    S    
Cu1   Cu2   S    
C22   N2    A    
C3    C7    A    
C27   O7    A    
C21   N1    A    
Cu1   N2    S    
C5    C6    A    
C32   H15   S    
C22   H7    S    
C1    C13   S    
C8    C29   A    
C31   H16   S    
C15   C16   A    
C20   C24   A    
C15   H2    S    
C4    C5    A    
C24   C25   S    
C24   N2    A    
C17   C18   S    
O10   H19   S    
Cu1   O1    S    
C9    H1    S    
C26   I1    S    
C14   C15   A    
C18   C19   S    
C27   O8    A    
C25   C26   S    
C21   C22   A    
Cu2   O6    S    
C7    O10   S    
Cu2   O8    S    
C18   O9    S    
C31   C32   A    
C9    C28   A    
C16   C17   A    
C20   C26   S    
C11   C17   A    
