data_mof_unit_40714.cif
_audit_creation_date              2012-12-10T17:30:20-0500
_audit_creation_method            fapswitch 2.2
_symmetry_space_group_name_H-M    P1
_symmetry_Int_Tables_number       1
_space_group_crystal_system       triclinic
_cell_length_a                    12.067818
_cell_length_b                    12.805206
_cell_length_c                    14.850268
_cell_angle_alpha                 91.799403
_cell_angle_beta                  87.548248
_cell_angle_gamma                 94.229631
_cell_volume                      2285.56129005

loop_
_atom_site_label
_atom_site_type_symbol
_atom_type_description
_atom_site_fract_x
_atom_site_fract_y
_atom_site_fract_z
_atom_type_partial_charge
C1    C     C_R   0.522620 0.700303 0.499602 0.871862
C2    C     C_R   0.370885 0.138524 0.547834 -0.199019
C3    C     C_R   0.451391 0.868636 0.535518 -0.284904
C4    C     C_R   0.548700 0.131356 0.464608 -0.280382
C5    C     C_R   0.454275 0.974877 0.524026 0.182223
C6    C     C_R   0.545845 0.025120 0.476134 0.178354
C7    C     C_R   0.948775 0.398325 0.417119 -0.273123
C8    C     C_R   0.051149 0.600727 0.583800 -0.269158
C9    C     C_R   0.834089 0.406212 0.427332 0.000543
C10   C     C_R   0.165221 0.588083 0.577846 -0.005089
C11   C     C_R   0.861261 0.549739 0.531556 0.060294
C12   C     C_R   0.477394 0.299693 0.500428 0.871250
C13   C     C_R   0.139956 0.460046 0.459637 0.055439
C14   C     C_R   0.978124 0.540262 0.527590 0.066239
C15   C     C_R   0.022662 0.465929 0.466914 0.058095
C16   C     C_R   0.501497 0.501518 0.672558 0.877988
C17   C     C_R   0.498477 0.498441 0.327448 0.877460
C18   C     C_R   0.493215 0.403659 0.184794 -0.183619
C19   C     C_R   0.506210 0.596290 0.815239 -0.215528
C20   C     C_R   0.495082 0.498156 0.232460 -0.055569
C21   C     C_R   0.504763 0.501807 0.767564 -0.074802
C22   C     C_R   0.495197 0.592858 0.190758 -0.214515
C23   C     C_R   0.514624 0.694312 0.959063 -0.049989
C24   C     C_R   0.504429 0.407101 0.809295 -0.227838
C25   C     C_R   0.498342 0.595698 0.097164 0.084314
C26   C     C_R   0.500805 0.404258 0.902898 0.083586
C27   C     C_R   0.496713 0.499351 0.046924 0.008797
C28   C     C_R   0.502320 0.500604 0.953134 0.011185
C29   C     C_R   0.489989 0.401839 0.091107 0.096341
C30   C     C_R   0.509092 0.598116 0.908949 0.095750
C31   C     C_R   0.506228 0.692680 0.053649 -0.093198
C32   C     C_R   0.492697 0.307275 0.946418 -0.094615
C33   C     C_R   0.511317 0.792795 0.107298 0.085049
C34   C     C_R   0.484249 0.305643 0.041002 -0.048365
C35   C     C_R   0.412928 0.836117 0.138803 -0.190127
C36   C     C_R   0.417865 0.927640 0.192877 -0.077536
C37   C     C_R   0.520835 0.976187 0.215743 -0.090498
C38   C     C_R   0.619064 0.933587 0.184194 -0.173509
C39   C     C_R   0.614505 0.842094 0.130083 -0.128747
C40   C     C_R   0.487526 0.207169 0.892771 0.089331
C41   C     C_R   0.384385 0.158813 0.868762 -0.127485
C42   C     C_R   0.379845 0.067323 0.814646 -0.175094
C43   C     C_R   0.478049 0.023800 0.784311 -0.084863
C44   C     C_R   0.580964 0.071423 0.808386 -0.076582
C45   C     C_R   0.463098 0.188036 0.502300 -0.038372
C46   C     C_R   0.585880 0.162933 0.862474 -0.200499
C47   C     C_2   0.532016 0.797437 0.914813 0.354758
C48   C     C_2   0.466575 0.202537 0.085264 0.358314
C49   C     C_2   0.190335 0.393635 0.388270 0.428525
C50   C     C_2   0.813339 0.636596 0.584183 0.412245
C51   C     C_R   0.536970 0.811955 0.497800 -0.040172
C52   C     C_R   0.633654 0.968634 0.441418 -0.222112
C53   C     C_R   0.366478 0.031363 0.558759 -0.212782
C54   C     C_R   0.629232 0.861469 0.452328 -0.145702
H1    H     H_    0.496357 0.332815 0.222155 0.162648
H2    H     H_    0.695266 0.817049 0.422655 0.178748
H3    H     H_    0.704172 0.006882 0.404826 0.139840
H4    H     H_    0.295975 0.993116 0.595369 0.140350
H5    H     H_    0.220396 0.634315 0.621597 0.136551
H6    H     H_    0.778109 0.353326 0.389569 0.135182
H7    H     H_    0.332798 0.798445 0.122158 0.147087
H8    H     H_    0.341892 0.960718 0.217383 0.163029
H9    H     H_    0.524505 0.046810 0.257843 0.148121
H10   H     H_    0.698703 0.971173 0.202092 0.135903
H11   H     H_    0.690999 0.809018 0.106707 0.146589
H12   H     H_    0.503083 0.667116 0.777854 0.168456
H13   H     H_    0.307935 0.192613 0.891189 0.146560
H14   H     H_    0.300255 0.030463 0.795803 0.135212
H15   H     H_    0.474403 0.953178 0.742208 0.149536
H16   H     H_    0.656918 0.037638 0.784816 0.166200
H17   H     H_    0.665983 0.199877 0.880072 0.141885
H18   H     H_    0.486481 0.863059 0.939925 0.089619
H19   H     H_    0.511821 0.136752 0.060103 0.087086
H20   H     H_    0.246672 0.336106 0.404412 0.095195
H21   H     H_    0.743182 0.622236 0.630599 0.114669
H22   H     H_    0.978216 0.337524 0.371974 0.178650
H23   H     H_    0.021112 0.655925 0.634030 0.183287
H24   H     H_    0.496411 0.663844 0.232556 0.150662
H25   H     H_    0.503447 0.336114 0.767506 0.153569
H26   H     H_    0.619050 0.170423 0.428176 0.145932
H27   H     H_    0.381025 0.829562 0.571927 0.151342
H28   H     H_    0.304867 0.182944 0.577532 0.157135
N1    N     N_R   0.207800 0.519350 0.516680 -0.136800
N2    N     N_R   0.792200 0.480650 0.483320 -0.138322
O1    O     O_R   0.421700 0.658830 0.504450 -0.621180
O2    O     O_2   0.396754 0.188598 0.146483 -0.578417
O3    O     O_2   0.169040 0.403381 0.309463 -0.558125
O4    O     O_2   0.851482 0.726748 0.574643 -0.583712
O5    O     O_R   0.578300 0.341170 0.495550 -0.623015
O6    O     O_R   0.609310 0.646410 0.493750 -0.625279
O7    O     O_R   0.390690 0.353590 0.506250 -0.657023
O8    O     O_R   0.406180 0.506230 0.637500 -0.620393
O9    O     O_R   0.593820 0.493770 0.362500 -0.622085
O10   O     O_R   0.593800 0.493820 0.626800 -0.642729
O11   O     O_R   0.406200 0.506180 0.373200 -0.598634
O12   O     O_2   0.601934 0.811592 0.853697 -0.587201
Zn1   Zn    Zn3+2 0.374730 0.508290 0.507150 0.946863
Zn2   Zn    Zn3+2 0.625270 0.491710 0.492850 0.942857

loop_
_geom_bond_atom_site_label_1
_geom_bond_atom_site_label_2
_ccdc_geom_bond_type
C25   C31   A    
C26   C32   A    
C16   C21   S    
C27   C29   A    
C41   C42   A    
C49   O3    D    
C12   O7    A    
C35   C36   A    
C41   H13   S    
C40   C46   A    
C33   C39   A    
C5    C53   A    
C36   C37   A    
C19   C21   A    
C24   C26   A    
C4    H26   S    
C38   C39   A    
C11   C14   A    
O10   Zn2   S    
C10   N1    A    
C17   C20   S    
C19   H12   S    
C44   C46   A    
C22   C25   A    
C3    H27   S    
C47   O12   D    
C31   C33   S    
C44   H16   S    
C17   O11   A    
C50   O4    D    
C7    C15   A    
C43   H15   S    
C42   H14   S    
C39   H11   S    
C36   H8    S    
C37   H9    S    
C52   C54   A    
O8    Zn1   S    
C38   H10   S    
C4    C45   A    
C2    C45   A    
C1    O1    A    
C54   H2    S    
C23   C47   S    
C23   C30   A    
C12   O5    A    
C22   H24   S    
C4    C6    A    
C3    C51   A    
C29   C34   A    
C32   C34   A    
C43   C44   A    
C37   C38   A    
C24   H25   S    
C35   H7    S    
C18   C29   A    
O7    Zn1   S    
C1    C51   S    
C46   H17   S    
C18   H1    S    
C13   C49   S    
C40   C41   A    
C20   C22   A    
C16   O8    A    
C13   C15   A    
C8    H23   S    
C48   O2    D    
C2    H28   S    
C17   O9    A    
C42   C43   A    
C1    O6    A    
C7    C9    A    
C8    C14   A    
C14   C15   A    
C16   O10   A    
C48   H19   S    
C12   C45   S    
C3    C5    A    
C2    C53   A    
C53   H4    S    
O11   Zn1   S    
C7    H22   S    
C11   N2    A    
C25   C27   A    
C13   N1    A    
C26   C28   A    
O5    Zn2   S    
C51   C54   A    
N2    Zn2   S    
C9    H6    S    
C28   C30   A    
C10   H5    S    
C11   C50   S    
C50   H21   S    
C5    C6    A    
C33   C35   A    
C18   C20   A    
C32   C40   S    
C47   H18   S    
O1    Zn1   S    
C52   H3    S    
C9    N2    A    
C34   C48   S    
C8    C10   A    
N1    Zn1   S    
C21   C24   A    
C27   C28   A    
C49   H20   S    
C6    C52   A    
C19   C30   A    
O9    Zn2   S    
O6    Zn2   S    
C23   C31   A    
