data_mof_unit_31709.cif
_audit_creation_date              2012-12-10T18:13:54-0500
_audit_creation_method            fapswitch 2.2
_symmetry_space_group_name_H-M    P1
_symmetry_Int_Tables_number       1
_space_group_crystal_system       triclinic
_cell_length_a                    10.745237
_cell_length_b                    9.409456
_cell_length_c                    23.505402
_cell_angle_alpha                 89.575146
_cell_angle_beta                  89.87404
_cell_angle_gamma                 90.027264
_cell_volume                      2376.48542968

loop_
_atom_site_label
_atom_site_type_symbol
_atom_type_description
_atom_site_fract_x
_atom_site_fract_y
_atom_site_fract_z
_atom_type_partial_charge
C1    C     C_R   0.259823 0.499768 0.499283 0.781952
C2    C     C_R   0.298162 0.619010 0.972055 -0.157163
C3    C     C_R   0.299365 0.615734 0.031279 -0.145728
C4    C     C_R   0.399545 0.554064 0.060774 -0.010047
C5    C     C_R   0.500374 0.495739 0.030248 -0.020339
C6    C     C_R   0.602361 0.434361 0.059621 -0.090977
C7    C     C_R   0.705254 0.382055 0.027581 -0.026308
C8    C     C_R   0.699714 0.382348 0.968059 -0.195436
C9    C     C_R   0.401724 0.550725 0.120297 0.547835
C10   C     C_R   0.594983 0.425294 0.119688 0.560229
C11   C     C_R   0.594286 0.567781 0.236844 -0.126286
C12   C     C_R   0.504735 0.500676 0.391142 0.842699
C13   C     C_R   0.599182 0.575028 0.296354 -0.046162
C14   C     C_R   0.506852 0.501715 0.328717 -0.111515
C15   C     C_R   0.415210 0.422205 0.300688 -0.245618
C16   C     C_R   0.411990 0.417067 0.241521 -0.072152
C17   C     C_R   0.501206 0.490361 0.209427 0.309459
C18   C     C_R   0.431125 0.390894 0.762068 0.146706
C19   C     C_R   0.431516 0.389500 0.702231 0.136523
C20   C     C_R   0.493179 0.498712 0.671664 -0.085839
C21   C     C_R   0.550512 0.609772 0.701306 -0.286155
C22   C     C_R   0.549691 0.611077 0.760509 -0.127772
C23   C     C_R   0.740108 0.499856 0.499102 0.842402
C24   C     C_R   0.490981 0.502021 0.791042 0.299093
C25   C     C_3   0.072994 0.548274 0.557538 -0.418402
C26   C     C_3   0.072584 0.346606 0.487361 -0.422496
C27   C     C_3   0.928585 0.543406 0.558538 -0.040683
C28   C     C_3   0.929142 0.346265 0.485972 -0.036224
C29   C     C_3   0.072619 0.600440 0.451943 -0.415708
C30   C     C_3   0.122205 0.498800 0.498988 0.121782
C31   C     C_3   0.878314 0.499163 0.498732 0.131237
C32   C     C_3   0.929251 0.603467 0.452631 -0.357511
C33   C     C_3   0.628320 0.083739 0.499502 -0.200930
C34   C     C_3   0.628374 0.916455 0.500130 -0.194947
C35   C     C_3   0.438993 0.082926 0.552825 -0.181752
C36   C     C_3   0.437680 0.915338 0.552556 -0.194491
C37   C     C_3   0.432795 0.084435 0.451423 -0.192260
C38   C     C_3   0.433802 0.917043 0.451158 -0.180221
C39   C     C_R   0.497512 0.499491 0.609062 0.845511
C40   C     C_R   0.593545 0.443503 0.879424 0.543406
C41   C     C_R   0.397241 0.562114 0.881315 0.530260
C42   C     C_R   0.397125 0.560721 0.941013 -0.013574
C43   C     C_R   0.498564 0.499028 0.970132 -0.010488
C44   C     C_R   0.597778 0.440456 0.939109 -0.035617
Cu1   Cu    Cu3+1 0.499860 0.642410 0.500030 0.930295
Cu2   Cu    Cu3+1 0.499860 0.357590 0.500030 0.915031
H1    H     H_    0.219282 0.667045 0.950715 0.194429
H2    H     H_    0.597763 0.694723 0.678590 0.167549
H3    H     H_    0.595599 0.696536 0.782843 0.156569
H4    H     H_    0.107853 0.657305 0.566408 0.171750
H5    H     H_    0.111992 0.306647 0.446644 0.167666
H6    H     H_    0.110049 0.477882 0.591814 0.147339
H7    H     H_    0.104373 0.272339 0.521477 0.154284
H8    H     H_    0.899388 0.460116 0.589814 0.131778
H9    H     H_    0.896170 0.273055 0.520377 0.131576
H10   H     H_    0.108258 0.710165 0.458558 0.170592
H11   H     H_    0.106080 0.564969 0.409504 0.165372
H12   H     H_    0.896725 0.713665 0.460534 0.179435
H13   H     H_    0.893370 0.575014 0.409984 0.190090
H14   H     H_    0.682721 0.122608 0.536484 0.139513
H15   H     H_    0.681071 0.878015 0.537907 0.154865
H16   H     H_    0.221247 0.661439 0.053867 0.200702
H17   H     H_    0.677006 0.122133 0.460538 0.174262
H18   H     H_    0.679107 0.877764 0.462003 0.186885
H19   H     H_    0.489200 0.118200 0.591469 0.161959
H20   H     H_    0.484953 0.876927 0.591744 0.151013
H21   H     H_    0.335046 0.123314 0.451139 0.135355
H22   H     H_    0.336553 0.876628 0.450101 0.133399
H23   H     H_    0.476171 0.122853 0.411217 0.162100
H24   H     H_    0.478959 0.881104 0.411201 0.179736
H25   H     H_    0.342186 0.123830 0.556345 0.149971
H26   H     H_    0.340038 0.876338 0.554981 0.139038
H27   H     H_    0.778090 0.341116 0.944187 0.207244
H28   H     H_    0.662661 0.623598 0.211098 0.189155
H29   H     H_    0.345104 0.364727 0.324823 0.143394
H30   H     H_    0.340284 0.355936 0.220571 0.156330
N1    N     N_R   0.494107 0.503101 0.851980 -0.465655
N2    N     N_R   0.498275 0.487141 0.148366 -0.467184
N3    N     N_3   0.500250 0.143650 0.501250 -0.120023
N4    N     N_3   0.500250 0.856350 0.501250 -0.117968
O1    O     O_R   0.317570 0.620260 0.500030 -0.602423
O2    O     O_R   0.317570 0.379740 0.500030 -0.597545
O3    O     O_R   0.499840 0.620290 0.417900 -0.550340
O4    O     O_R   0.499840 0.379710 0.417900 -0.593222
O5    O     O_R   0.682190 0.620260 0.500010 -0.562196
O6    O     O_R   0.682190 0.379740 0.500010 -0.594079
O7    O     O_R   0.499920 0.620230 0.582140 -0.596768
O8    O     O_R   0.499920 0.379770 0.582140 -0.566243
O9    O     O_2   0.687697 0.387036 0.848961 -0.534630
O10   O     O_2   0.301339 0.621291 0.852747 -0.537600
O11   O     O_2   0.308461 0.611414 0.150021 -0.523053
O12   O     O_2   0.680971 0.352022 0.149514 -0.490947
N5    N     N_3   0.366122 0.279964 0.672522 -0.600478
H31   H     H_    0.401760 0.181676 0.685593 0.230576
H32   H     H_    0.272362 0.284176 0.684373 0.231442
N6    N     N_3   0.875972 0.678979 0.577727 -0.602637
H33   H     H_    0.915174 0.763512 0.554812 0.217632
H34   H     H_    0.900271 0.693197 0.620376 0.224501
N7    N     N_3   0.882385 0.291423 0.431620 -0.588771
H35   H     H_    0.928375 0.340294 0.397470 0.239013
H36   H     H_    0.903457 0.183040 0.429602 0.209520
C45   C     C_2   0.824182 0.334796 0.053216 0.925697
O13   O     O_2   0.878289 0.410641 0.087209 -0.535674
O14   O     O_R   0.878091 0.207154 0.035712 -0.752708
H37   H     H_    0.960364 0.187440 0.055278 0.343307
C46   C     C_2   0.705448 0.654045 0.321634 0.798657
O15   O     O_2   0.695416 0.713324 0.367400 -0.632700
O16   O     O_R   0.817746 0.664018 0.291614 -0.742025
H38   H     H_    0.883038 0.721104 0.312558 0.331111
N8    N     N_3   0.370042 0.278705 0.792882 -0.596708
H39   H     H_    0.435236 0.229708 0.819499 0.238147
H40   H     H_    0.300667 0.323363 0.818333 0.247003

loop_
_geom_bond_atom_site_label_1
_geom_bond_atom_site_label_2
_ccdc_geom_bond_type
C15   H29   S    
C38   H24   S    
N5    H31   S    
C37   H23   S    
C41   C42   A    
C19   C20   A    
C39   O7    A    
C9    O11   S    
C10   N2    A    
C27   H8    S    
C7    C8    A    
Cu1   Cu2   S    
C37   N3    S    
C37   C38   S    
C38   N4    S    
C18   C24   A    
Cu1   O7    S    
C29   C32   S    
C41   N1    A    
C5    C6    A    
C36   H20   S    
C46   O15   D    
C35   H19   S    
C1    O1    A    
C15   C16   A    
O16   H38   S    
C12   O4    A    
C18   C19   A    
C25   H4    S    
C17   N2    S    
C34   N4    S    
Cu2   O2    S    
C35   C36   S    
C16   C17   A    
C23   O6    A    
N6    H34   S    
C32   H12   S    
C40   O9    S    
C19   N5    S    
C21   H2    S    
C41   O10   S    
C5    C43   A    
C10   O12   S    
N5    H32   S    
C21   C22   A    
C27   N6    S    
Cu1   O3    S    
C39   O8    A    
C8    H27   S    
O14   H37   S    
C28   H9    S    
Cu2   O8    S    
C29   H11   S    
C27   C31   S    
C8    C44   A    
C36   N4    S    
C20   C39   S    
C33   N3    S    
C1    O2    A    
C7    C45   S    
C34   H15   S    
N8    H39   S    
C12   O3    A    
C23   C31   S    
Cu1   O5    S    
C43   C44   A    
C29   C30   S    
C31   C32   S    
C14   C15   A    
C40   C44   A    
C33   H17   S    
N6    H33   S    
C34   H18   S    
C33   C34   S    
C45   O14   S    
C22   H3    S    
Cu2   O4    S    
C28   N7    S    
N7    H36   S    
C38   H22   S    
C26   C30   S    
C33   H14   S    
C22   C24   A    
C42   C43   A    
C3    C4    A    
C26   H7    S    
C3    H16   S    
C25   C30   S    
C11   C17   A    
C16   H30   S    
C28   C31   S    
Cu1   O1    S    
C18   N8    S    
C12   C14   S    
C13   C46   S    
C11   H28   S    
C6    C10   A    
C6    C7    A    
C29   H10   S    
C2    H1    S    
C25   C27   S    
C26   C28   S    
N7    H35   S    
C2    C3    A    
C25   H6    S    
C26   H5    S    
C11   C13   A    
Cu2   N3    S    
C46   O16   S    
C2    C42   A    
C37   H21   S    
C35   N3    S    
C1    C30   S    
Cu1   N4    S    
C9    N2    A    
C45   O13   D    
N8    H40   S    
C35   H25   S    
C24   N1    S    
C4    C5    A    
C20   C21   A    
C23   O5    A    
C40   N1    A    
C32   H13   S    
C4    C9    A    
C13   C14   A    
C36   H26   S    
Cu2   O6    S    
