data_mof_unit_64192.cif
_audit_creation_date              2012-12-10T20:24:00-0500
_audit_creation_method            fapswitch 2.2
_symmetry_space_group_name_H-M    P1
_symmetry_Int_Tables_number       1
_space_group_crystal_system       triclinic
_cell_length_a                    16.931859
_cell_length_b                    18.458362
_cell_length_c                    18.846147
_cell_angle_alpha                 90.569716
_cell_angle_beta                  89.322068
_cell_angle_gamma                 94.720417
_cell_volume                      5869.4418782

loop_
_atom_site_label
_atom_site_type_symbol
_atom_type_description
_atom_site_fract_x
_atom_site_fract_y
_atom_site_fract_z
_atom_type_partial_charge
C1    C     C_R   0.501527 0.499750 0.364977 0.866344
C2    C     C_R   0.585194 0.463269 0.266197 -0.192414
C3    C     C_R   0.520406 0.502797 0.709560 -0.018700
C4    C     C_R   0.520693 0.500174 0.289998 -0.032866
C5    C     C_R   0.595712 0.569894 0.959716 -0.302490
C6    C     C_R   0.593496 0.442627 0.038274 -0.301892
C7    C     C_R   0.598280 0.574670 0.033413 0.487175
C8    C     C_R   0.595750 0.438146 0.964532 0.483597
C9    C     C_R   0.590205 0.509905 0.072928 -0.137465
C10   C     C_R   0.589910 0.502067 0.925174 -0.137242
C11   C     C_R   0.448893 0.722567 0.543430 0.078845
C12   C     C_R   0.501296 0.500451 0.634989 0.854512
C13   C     C_R   0.550966 0.277474 0.456390 0.083765
C14   C     C_R   0.447899 0.798497 0.544207 -0.260983
C15   C     C_R   0.552017 0.201547 0.455583 -0.259606
C16   C     C_R   0.653164 0.509589 0.500818 0.917366
C17   C     C_R   0.346796 0.490434 0.499745 0.919976
C18   C     C_R   0.500044 0.841356 0.499914 0.110652
C19   C     C_R   0.500050 0.158662 0.500008 0.113041
C20   C     C_R   0.552186 0.805402 0.455669 -0.259493
C21   C     C_R   0.448050 0.194574 0.544431 -0.259710
C22   C     C_R   0.551153 0.729328 0.456528 0.038952
C23   C     C_R   0.500731 0.456886 0.828031 -0.057971
C24   C     C_R   0.449041 0.270644 0.543617 0.043984
C25   C     C_R   0.571162 0.967276 0.492010 -0.169253
C26   C     C_R   0.428945 0.032755 0.507853 -0.171552
C27   C     C_R   0.571162 0.043333 0.492043 -0.158959
C28   C     C_R   0.428942 0.956700 0.507804 -0.162132
C29   C     C_R   0.500054 0.077322 0.499975 0.119919
C30   C     C_R   0.500051 0.922704 0.499895 0.119986
C31   C     C_R   0.738568 0.516014 0.507047 -0.184448
C32   C     C_R   0.261080 0.484337 0.497869 -0.176034
C33   C     C_R   0.777114 0.458721 0.535687 0.606195
C34   C     C_R   0.502785 0.544464 0.172102 -0.061287
C35   C     C_R   0.221109 0.542212 0.472363 0.598094
C36   C     C_R   0.858766 0.464377 0.539631 -0.235683
C37   C     C_R   0.139363 0.537867 0.474524 -0.238387
C38   C     C_R   0.902805 0.526984 0.514249 0.239159
C39   C     C_R   0.096609 0.475939 0.502830 0.243005
C40   C     C_R   0.864170 0.585481 0.489597 -0.173507
C41   C     C_R   0.136302 0.416937 0.524694 -0.175301
C42   C     C_R   0.782164 0.580123 0.485763 -0.294027
C43   C     C_R   0.218466 0.421010 0.522448 -0.300327
C44   C     C_R   0.477919 0.456922 0.757427 -0.200508
C45   C     C_R   0.568528 0.499817 0.850109 0.186272
C46   C     C_R   0.479926 0.541390 0.243165 -0.192133
C47   C     C_R   0.569040 0.509536 0.148474 0.188276
C48   C     C_R   0.611017 0.545501 0.801737 -0.132874
C49   C     C_R   0.609856 0.468565 0.195817 -0.133443
C50   C     C_R   0.586507 0.547516 0.731819 -0.169081
F1    F     F_    0.260721 0.602784 0.445016 -0.651724
F2    F     F_    0.736201 0.397504 0.560267 -0.638634
H1    H     H_    0.408877 0.689981 0.577782 0.133969
H2    H     H_    0.372828 0.056623 0.512855 0.137903
H3    H     H_    0.627279 0.075576 0.487066 0.144493
H4    H     H_    0.372817 0.924470 0.512766 0.142995
H5    H     H_    0.109675 0.583194 0.454637 0.182517
H6    H     H_    0.887492 0.419325 0.561311 0.184665
H7    H     H_    0.897900 0.634114 0.470888 0.165545
H8    H     H_    0.103498 0.368677 0.545310 0.164337
H9    H     H_    0.753063 0.625198 0.464533 0.189587
H10   H     H_    0.248608 0.375622 0.541634 0.184521
H11   H     H_    0.426820 0.422210 0.740358 0.139915
H12   H     H_    0.590814 0.310093 0.421911 0.126376
H13   H     H_    0.430034 0.570023 0.261378 0.163552
H14   H     H_    0.465178 0.423939 0.865556 0.175209
H15   H     H_    0.468392 0.573415 0.135428 0.178259
H16   H     H_    0.662834 0.579586 0.818203 0.153944
H17   H     H_    0.660438 0.440578 0.178174 0.153122
H18   H     H_    0.620429 0.582333 0.694556 0.151073
H19   H     H_    0.617811 0.432128 0.302586 0.144733
H20   H     H_    0.594356 0.619288 0.929296 0.201987
H21   H     H_    0.590399 0.392951 0.068721 0.202206
H22   H     H_    0.533300 0.744175 0.104839 0.393364
H23   H     H_    0.407394 0.823400 0.580004 0.142583
H24   H     H_    0.524073 0.261089 0.893294 0.393350
H25   H     H_    0.592408 0.176662 0.419662 0.142413
H26   H     H_    0.592724 0.835644 0.419864 0.147194
H27   H     H_    0.407655 0.164297 0.580331 0.141796
H28   H     H_    0.591188 0.702017 0.422245 0.133755
H29   H     H_    0.409122 0.297929 0.578038 0.120234
H30   H     H_    0.627284 0.943415 0.487022 0.139197
N1    N     N_2   0.985942 0.531679 0.509707 -0.171866
N2    N     N_2   0.013635 0.471274 0.509845 -0.171371
N3    N     N_R   0.499990 0.689440 0.499980 -0.097327
N4    N     N_R   0.500010 0.310560 0.500020 -0.093892
O1    O     O_R   0.500000 0.560840 0.398180 -0.599973
O2    O     O_2   0.664634 0.711231 0.027133 -0.272478
O3    O     O_3   0.522404 0.696767 0.080296 -0.574660
O4    O     O_2   0.641279 0.360314 0.851449 -0.270719
O5    O     O_2   0.657168 0.309204 0.969439 -0.271328
O6    O     O_3   0.515144 0.306709 0.919187 -0.577494
O7    O     O_R   0.500000 0.439160 0.601820 -0.595022
O8    O     O_R   0.500030 0.439210 0.398180 -0.629102
O9    O     O_R   0.499970 0.560790 0.601820 -0.632722
O10   O     O_R   0.616110 0.567600 0.499360 -0.640957
O11   O     O_R   0.383890 0.432400 0.500640 -0.639630
O12   O     O_R   0.616150 0.445970 0.499350 -0.560340
O13   O     O_R   0.383850 0.554030 0.500650 -0.559998
O14   O     O_2   0.646849 0.658202 0.145509 -0.289461
S1    S     S_3+6 0.610986 0.662180 0.073192 0.020658
S2    S     S_3+6 0.605214 0.351977 0.924495 0.026306
Zn1   Zn    Zn3+2 0.499980 0.581210 0.500000 0.981209
Zn2   Zn    Zn3+2 0.500020 0.418790 0.500000 0.986388

loop_
_geom_bond_atom_site_label_1
_geom_bond_atom_site_label_2
_ccdc_geom_bond_type
C1    O1    A    
O13   Zn1   S    
C23   C45   A    
C31   C42   A    
C38   N1    S    
C27   C29   A    
C14   C18   A    
N4    Zn2   S    
C6    C9    A    
O2    S1    D    
C28   H4    S    
C39   C41   A    
C4    C46   A    
C16   C31   S    
C15   C19   A    
H22   O3    S    
C19   C21   A    
C39   N2    S    
C5    H20   S    
C36   H6    S    
C11   C14   A    
C27   H3    S    
C33   C36   A    
C24   N4    A    
C22   N3    A    
O4    S2    D    
C3    C12   S    
C1    O8    A    
C13   N4    A    
C31   C33   A    
C12   O9    A    
C34   C46   A    
C11   H1    S    
O6    S2    S    
O3    S1    S    
C40   C42   A    
O8    Zn2   S    
C40   H7    S    
C49   H17   S    
C41   C43   A    
C26   H2    S    
O7    Zn2   S    
C3    C50   A    
O9    Zn1   S    
C44   H11   S    
C3    C44   A    
C16   O10   A    
C32   C35   A    
C46   H13   S    
C47   C49   A    
C5    C7    A    
C6    C8    A    
C23   C44   A    
C33   F2    S    
C2    C4    A    
C24   H29   S    
C2    C49   A    
N1    N2    D    
C21   H27   S    
C10   C45   S    
C48   H16   S    
C48   C50   A    
C17   O13   A    
C42   H9    S    
H24   O6    S    
O1    Zn1   S    
C20   C22   A    
C9    C47   S    
C13   C15   A    
C35   F1    S    
C25   H30   S    
C12   O7    A    
C21   C24   A    
O5    S2    D    
C2    H19   S    
C19   C29   S    
C23   H14   S    
C6    H21   S    
C45   C48   A    
C25   C30   A    
C7    C9    A    
C35   C37   A    
C41   H8    S    
N3    Zn1   S    
C34   H15   S    
C25   C27   A    
C26   C28   A    
C20   H26   S    
C1    C4    S    
C14   H23   S    
C28   C30   A    
C50   H18   S    
C22   H28   S    
C5    C10   A    
C37   C39   A    
C38   C40   A    
C16   O12   A    
C15   H25   S    
C13   H12   S    
C8    S2    S    
C11   N3    A    
O12   Zn2   S    
C36   C38   A    
O14   S1    D    
C32   C43   A    
C18   C20   A    
O11   Zn2   S    
C18   C30   S    
C26   C29   A    
C8    C10   A    
C7    S1    S    
O10   Zn1   S    
C17   C32   S    
C34   C47   A    
C17   O11   A    
C37   H5    S    
C43   H10   S    
