data_mof_unit_34471.cif
_audit_creation_date              2012-12-10T21:07:42-0500
_audit_creation_method            fapswitch 2.2
_symmetry_space_group_name_H-M    P1
_symmetry_Int_Tables_number       1
_space_group_crystal_system       triclinic
_cell_length_a                    8.591432
_cell_length_b                    17.511482
_cell_length_c                    16.824391
_cell_angle_alpha                 90.820654
_cell_angle_beta                  99.230894
_cell_angle_gamma                 91.170489
_cell_volume                      2497.50991223

loop_
_atom_site_label
_atom_site_type_symbol
_atom_type_description
_atom_site_fract_x
_atom_site_fract_y
_atom_site_fract_z
_atom_type_partial_charge
C1    C     C_R   0.503036 0.353407 0.499797 0.926972
C2    C     C_R   0.498452 0.646658 0.500190 0.922206
C3    C     C_1   0.557130 0.966664 0.494132 -0.034523
C4    C     C_1   0.560506 0.034476 0.493439 -0.035091
C5    C     C_R   0.407306 0.441498 0.822300 -0.061681
C6    C     C_R   0.583015 0.561500 0.176802 -0.066913
C7    C     C_R   0.413292 0.444900 0.738253 -0.013088
C8    C     C_R   0.579405 0.557522 0.261026 -0.041471
C9    C     C_R   0.578775 0.555384 0.758423 0.144950
C10   C     C_R   0.425758 0.443118 0.242018 0.145022
C11   C     C_R   0.573231 0.554866 0.841551 -0.330226
C12   C     C_R   0.430948 0.443724 0.158847 -0.329865
C13   C     C_R   0.490587 0.497627 0.875100 0.058515
C14   C     C_R   0.506579 0.503092 0.124645 0.062209
C15   C     C_1   0.494892 0.499108 0.963189 -0.055029
C16   C     C_1   0.501310 0.501747 0.036489 -0.056814
C17   C     C_R   0.200569 0.499909 0.478849 1.002210
C18   C     C_R   0.799429 0.500034 0.521151 1.006325
C19   C     C_2   0.035301 0.499955 0.467488 -0.360575
C20   C     C_2   0.964691 0.499899 0.532516 -0.354144
C21   C     C_R   0.624463 0.846921 0.559851 -0.158062
C22   C     C_R   0.450548 0.149727 0.433453 -0.158753
C23   C     C_R   0.604669 0.768310 0.562649 -0.271133
C24   C     C_R   0.434458 0.228072 0.436154 -0.277826
C25   C     C_R   0.505228 0.729313 0.500410 -0.126025
C26   C     C_R   0.519770 0.271298 0.499735 -0.123816
C27   C     C_R   0.423548 0.769208 0.435097 0.470417
C28   C     C_R   0.624170 0.236476 0.561326 0.488868
C29   C     C_R   0.441950 0.848466 0.433684 -0.254376
C30   C     C_R   0.643196 0.157182 0.556120 -0.280808
C31   C     C_R   0.543913 0.886353 0.495147 0.093684
C32   C     C_R   0.554387 0.114848 0.493358 0.099976
H1    H     H_    0.972272 0.500093 0.405999 0.196778
H2    H     H_    0.027717 0.499748 0.594007 0.197585
H3    H     H_    0.701904 0.876903 0.607979 0.149242
H4    H     H_    0.381143 0.116268 0.385182 0.148335
H5    H     H_    0.670106 0.737854 0.612150 0.193529
H6    H     H_    0.353463 0.254859 0.389397 0.189564
H7    H     H_    0.375628 0.880353 0.385370 0.143799
H8    H     H_    0.725836 0.127814 0.599870 0.137826
H9    H     H_    0.347421 0.403417 0.697138 0.168923
H10   H     H_    0.639344 0.601213 0.301494 0.174115
H11   H     H_    0.636310 0.599028 0.880627 0.144628
H12   H     H_    0.371941 0.398242 0.120151 0.143127
N1    N     N_R   0.500040 0.500030 0.707230 -0.118028
N2    N     N_R   0.499960 0.499970 0.292770 -0.118777
O1    O     O_R   0.500000 0.389130 0.566570 -0.606968
O2    O     O_R   0.500000 0.610870 0.433430 -0.623384
O3    O     O_R   0.499990 0.389100 0.433480 -0.610196
O4    O     O_R   0.500010 0.610900 0.566520 -0.614016
O5    O     O_R   0.271750 0.500010 0.550980 -0.640803
O6    O     O_R   0.728250 0.499990 0.449020 -0.639373
O7    O     O_R   0.271740 0.499980 0.417890 -0.555685
O8    O     O_R   0.728260 0.500020 0.582110 -0.549150
Zn1   Zn    Zn3+2 0.500010 0.500020 0.588860 1.002522
Zn2   Zn    Zn3+2 0.499990 0.499980 0.411140 0.994286
O9    O     O_3   0.313926 0.731357 0.377812 -0.642585
C33   C     C_3   0.362021 0.732998 0.301138 0.101717
H13   H     H_    0.377247 0.673092 0.282139 0.182003
H14   H     H_    0.476481 0.764069 0.299625 0.136644
C34   C     C_3   0.232685 0.767716 0.240205 -0.336771
H15   H     H_    0.119586 0.735812 0.240589 0.263544
H16   H     H_    0.216711 0.828209 0.257362 0.214714
C35   C     C_3   0.274037 0.764347 0.155324 -0.922161
H17   H     H_    0.385397 0.797042 0.153119 0.271563
H18   H     H_    0.177977 0.789746 0.112434 0.268545
H19   H     H_    0.288018 0.704134 0.136444 0.266401
O10   O     O_3   0.715385 0.282941 0.619719 -0.640757
C36   C     C_3   0.732500 0.253010 0.698451 0.103680
H20   H     H_    0.802560 0.296134 0.739093 0.199776
H21   H     H_    0.803794 0.200678 0.704166 0.129358
C37   C     C_3   0.573565 0.240334 0.727970 -0.380281
H22   H     H_    0.500299 0.291348 0.714824 0.252107
H23   H     H_    0.509111 0.190360 0.695945 0.214651
C38   C     C_3   0.596740 0.226053 0.818302 -0.897648
H24   H     H_    0.671458 0.175553 0.833014 0.256410
H25   H     H_    0.480456 0.214991 0.837214 0.286561
H26   H     H_    0.653389 0.276870 0.852300 0.261298
C39   C     C_2   0.313613 0.380070 0.853594 0.368012
H27   H     H_    0.310290 0.376431 0.917613 0.079898
O11   O     O_2   0.238446 0.332667 0.808182 -0.592779
C40   C     C_2   0.665920 0.626347 0.144574 0.365737
H28   H     H_    0.670368 0.629493 0.080627 0.082285
O12   O     O_2   0.730236 0.677344 0.189086 -0.593053
C41   C     C_2   0.669038 0.618836 0.729967 0.424593
H29   H     H_    0.655385 0.676425 0.752159 0.015374
O13   O     O_2   0.768333 0.607501 0.687342 -0.561457
C42   C     C_2   0.338347 0.378773 0.270803 0.426673
H30   H     H_    0.352612 0.321474 0.247978 0.015663
O14   O     O_2   0.240645 0.389080 0.314619 -0.558728

loop_
_geom_bond_atom_site_label_1
_geom_bond_atom_site_label_2
_ccdc_geom_bond_type
C9    N1    A    
C6    C40   S    
C27   C29   A    
C42   O14   D    
C19   C20   D    
C17   O5    A    
C18   O6    A    
C41   H29   S    
C21   C31   A    
C10   C42   S    
C22   C32   A    
C7    N1    A    
C22   C24   A    
O1    Zn1   S    
C28   O10   S    
C24   C26   A    
C33   H14   S    
C15   C16   T    
C34   H16   S    
C36   H21   S    
C2    O4    A    
C9    C41   S    
O10   C36   S    
C10   N2    A    
C24   H6    S    
C11   H11   S    
C5    C39   S    
O5    Zn1   S    
C20   H2    S    
C33   C34   S    
C23   C25   A    
C34   H15   S    
C37   C38   S    
C41   O13   D    
C21   C23   A    
C35   H19   S    
C37   H23   S    
C27   O9    S    
C5    C7    A    
C1    O1    A    
C6    C8    A    
C2    O2    A    
C33   H13   S    
C23   H5    S    
C35   H18   S    
C34   C35   S    
C38   H24   S    
C6    C14   A    
C38   H25   S    
C29   H7    S    
C30   H8    S    
C3    C31   S    
C9    C11   A    
C4    C32   S    
C10   C12   A    
C12   C14   A    
C40   O12   D    
C13   C15   S    
C19   H1    S    
C1    C26   S    
C14   C16   S    
C3    C4    T    
C17   O7    A    
C36   C37   S    
C39   O11   D    
O7    Zn2   S    
O2    Zn2   S    
O8    Zn1   S    
C5    C13   A    
C8    H10   S    
C37   H22   S    
C21   H3    S    
C25   C27   A    
O3    Zn2   S    
C22   H4    S    
C26   C28   A    
O4    Zn1   S    
C35   H17   S    
C28   C30   A    
C29   C31   A    
C30   C32   A    
C11   C13   A    
O9    C33   S    
C17   C19   S    
C2    C25   S    
C18   C20   S    
C7    H9    S    
C36   H20   S    
C38   H26   S    
C8    N2    A    
C18   O8    A    
C39   H27   S    
C42   H30   S    
N1    Zn1   S    
C12   H12   S    
C40   H28   S    
N2    Zn2   S    
C1    O3    A    
O6    Zn2   S    
