data_mof_unit_55765.cif
_audit_creation_date              2013-03-05T16:11:32-0500
_audit_creation_method            fapswitch 2.2
_symmetry_space_group_name_H-M    P1
_symmetry_Int_Tables_number       1
_space_group_crystal_system       triclinic
_cell_length_a                    10.727544
_cell_length_b                    9.86882
_cell_length_c                    15.756594
_cell_angle_alpha                 90.01308
_cell_angle_beta                  90.63692
_cell_angle_gamma                 89.998635
_cell_volume                      1668.01914674

loop_
_atom_site_label
_atom_site_type_symbol
_atom_site_description
_atom_site_fract_x
_atom_site_fract_y
_atom_site_fract_z
_atom_type_partial_charge
O1    O     O_R   0.316750 0.614620 0.499990 -0.629100
O2    O     O_R   0.316750 0.385380 0.499990 -0.627996
C1    C     C_R   0.259915 0.500001 0.499015 0.862370
O3    O     O_R   0.499990 0.614720 0.377140 -0.622339
O4    O     O_R   0.499990 0.385280 0.377140 -0.622476
C2    C     C_R   0.499905 0.499982 0.338351 0.880693
Zn1   Zn    Zn3+2 0.499980 0.653120 0.500000 1.016743
Zn2   Zn    Zn3+2 0.499980 0.346880 0.500000 1.019825
O5    O     O_R   0.683220 0.614710 0.500000 -0.603055
O6    O     O_R   0.683220 0.385290 0.500000 -0.602920
O7    O     O_R   0.499980 0.614620 0.622860 -0.577283
O8    O     O_R   0.499980 0.385380 0.622860 -0.570430
C3    C     C_R   0.740035 0.500000 0.498480 0.902794
C4    C     C_R   0.499710 0.500021 0.661667 0.924230
C5    C     C_3   0.433770 0.623426 0.048841 -0.447133
C6    C     C_3   0.446276 0.367424 0.049229 -0.427263
C7    C     C_3   0.432640 0.375343 0.951085 0.062638
C8    C     C_3   0.444302 0.629399 0.950854 0.054652
H1    H     H_    0.346984 0.628705 0.925053 0.141463
H2    H     H_    0.332336 0.397134 0.937638 0.136976
H3    H     H_    0.333837 0.614280 0.066443 0.181830
H4    H     H_    0.352509 0.352549 0.077426 0.179699
C9    C     C_1   0.502291 0.499996 0.750410 0.033434
C10   C     C_3   0.506409 0.499316 0.083095 0.128232
C11   C     C_3   0.511888 0.498634 0.917385 -0.132756
C12   C     C_3   0.651161 0.488628 0.953668 0.471069
C13   C     C_3   0.642993 0.507596 0.052756 -0.442707
C14   C     C_1   0.506229 0.499461 0.825652 0.116788
C15   C     C_1   0.503705 0.499676 0.174433 -0.018015
C16   C     C_1   0.501642 0.499895 0.249613 -0.160113
C17   C     C_R   0.063849 0.376478 0.493913 -0.165789
C18   C     C_R   0.063850 0.623551 0.494549 -0.167103
H5    H     H_    0.112220 0.280093 0.493547 0.173479
H6    H     H_    0.112217 0.719944 0.494701 0.173566
C19   C     C_R   0.936173 0.376538 0.492978 -0.126248
C20   C     C_R   0.936180 0.623498 0.493613 -0.126134
H7    H     H_    0.887961 0.280248 0.491255 0.200108
H8    H     H_    0.887980 0.719807 0.492402 0.200472
C21   C     C_R   0.872519 0.500009 0.494893 -0.037878
C22   C     C_R   0.127438 0.500007 0.496016 -0.027974
C23   C     C_R   0.567002 0.071998 0.559730 0.276332
C24   C     C_R   0.566975 0.928018 0.559736 0.274232
N1    N     N_R   0.499970 0.857200 0.499980 -0.152068
N2    N     N_R   0.499970 0.142800 0.499980 -0.151838
C25   C     C_R   0.432668 0.928173 0.440774 -0.138784
C26   C     C_R   0.432663 0.071791 0.440777 -0.138489
H9    H     H_    0.378653 0.873949 0.393375 0.162622
H10   H     H_    0.378643 0.125986 0.393380 0.162417
H11   H     H_    0.504945 0.280811 0.070395 0.247611
H12   H     H_    0.468381 0.718017 0.079408 0.230819
N3    N     N_R   0.459568 0.245686 0.908228 0.273057
O9    O     O_R   0.414763 0.224975 0.832256 -0.305118
O10   O     O_R   0.506506 0.142761 0.949185 -0.244327
N4    N     N_R   0.502211 0.756141 0.921987 0.270635
O11   O     O_R   0.451506 0.822304 0.859092 -0.256844
O12   O     O_R   0.591591 0.813788 0.965370 -0.281475
H13   H     H_    0.679796 0.608885 0.071555 0.220583
H14   H     H_    0.702293 0.434591 0.088442 0.214726
N5    N     N_R   0.735506 0.593835 0.919852 0.241203
O13   O     O_R   0.841812 0.615129 0.958299 -0.327900
O14   O     O_R   0.723050 0.638756 0.842579 -0.273770
N6    N     N_R   0.705516 0.355808 0.931036 0.233269
O15   O     O_R   0.741256 0.268589 0.988331 -0.326278
O16   O     O_R   0.727610 0.328366 0.851800 -0.257030
N7    N     N_R   0.637786 0.142860 0.622860 0.245456
O17   O     O_R   0.596068 0.149044 0.699926 -0.227736
O18   O     O_R   0.755032 0.167260 0.609724 -0.354355
N8    N     N_R   0.637673 0.857144 0.622880 0.246267
O19   O     O_R   0.755322 0.834252 0.610318 -0.352324
O20   O     O_R   0.594940 0.849231 0.699618 -0.237245

loop_
_geom_bond_atom_site_label_1
_geom_bond_atom_site_label_2
_geom_bond_distance
_ccdc_geom_bond_type
C4    C9    1.398270 S    
O4    Zn2   1.972685 S    
C19   C21   1.397271 A    
C6    H4    1.113873 S    
C17   H5    1.083580 S    
N4    O12   1.302140 A    
N6    O15   1.302125 A    
Zn1   N1    2.014029 S    
C5    C8    1.550454 S    
C23   C24   1.420914 A    
N4    O11   1.301013 A    
N6    O16   1.301800 A    
N7    O18   1.299463 A    
C10   C13   1.548427 S    
Zn2   O8    1.972702 S    
C7    C11   1.579723 S    
C23   N2    1.369992 A    
C7    N3    1.476705 S    
C20   H8    1.082060 S    
O2    C1    1.285024 A    
C12   N6    1.479751 S    
N5    O13   1.302405 A    
C6    C10   1.545046 S    
O1    Zn1   2.001999 S    
C9    C14   1.185841 T    
C6    H11   1.110589 S    
C11   C14   1.446027 S    
Zn1   O7    1.972873 S    
N1    C25   1.366540 A    
C12   C13   1.575839 S    
C15   C16   1.185041 T    
C8    C11   1.573940 S    
O3    Zn1   1.972516 S    
C18   C20   1.369503 A    
O3    C2    1.286619 A    
C5    C10   1.545837 S    
C19   H7    1.082102 S    
O8    C4    1.285927 A    
C1    C22   1.421417 S    
N7    O17   1.300224 A    
C26   H10   1.081729 S    
C25   H9    1.081722 S    
C24   N8    1.427520 S    
O4    C2    1.286549 A    
O7    C4    1.285815 A    
C17   C19   1.369567 A    
N5    O14   1.301327 A    
C3    C21   1.422980 S    
C24   N1    1.369790 A    
C8    N4    1.470999 S    
N3    O10   1.301847 A    
N3    O9    1.301100 A    
C5    H3    1.113982 S    
C18   C22   1.397145 A    
C17   C22   1.397175 A    
Zn2   O6    2.001940 S    
C8    H1    1.116150 S    
C13   H13   1.113601 S    
C5    H12   1.112254 S    
Zn1   O5    2.001922 S    
N8    O20   1.300228 A    
O5    C3    1.286031 A    
C10   C15   1.439783 S    
C6    C7    1.553679 S    
C12   N5    1.480411 S    
C23   N7    1.427594 S    
C2    C16   1.398540 S    
C11   C12   1.596823 S    
C25   C26   1.417338 A    
C7    H2    1.115297 S    
O6    C3    1.286064 A    
C20   C21   1.397264 A    
O2    Zn2   2.001981 S    
Zn2   N2    2.014029 S    
N2    C26   1.366520 A    
N8    O19   1.299457 A    
O1    C1    1.285029 A    
C13   H14   1.110019 S    
C18   H6    1.083581 S    
