data_mof_unit_38770.cif
_audit_creation_date              2012-12-11T20:00:10-0500
_audit_creation_method            fapswitch 2.2
_symmetry_space_group_name_H-M    P1
_symmetry_Int_Tables_number       1
_space_group_crystal_system       triclinic
_cell_length_a                    8.540789
_cell_length_b                    16.600746
_cell_length_c                    27.055621
_cell_angle_alpha                 71.411427
_cell_angle_beta                  96.775025
_cell_angle_gamma                 96.591467
_cell_volume                      3598.37139039

loop_
_atom_site_label
_atom_site_type_symbol
_atom_type_description
_atom_site_fract_x
_atom_site_fract_y
_atom_site_fract_z
_atom_type_partial_charge
Ba1   Ba    Ba6+2 0.337820 0.939830 0.518500 1.714040
Ba2   Ba    Ba6+2 0.851970 0.060110 0.481480 1.702758
Br1   Br    Br    0.490523 0.720347 0.331718 -0.482907
Br2   Br    Br    0.528522 0.165573 0.092077 -0.463470
Br3   Br    Br    0.127066 0.716295 0.778812 -0.501290
Br4   Br    Br    0.800140 0.746208 0.035569 -0.537943
Br5   Br    Br    0.745769 0.852576 0.355072 -0.630222
Br6   Br    Br    0.524536 0.842347 0.426637 -0.528794
Br7   Br    Br    0.534624 0.126939 0.715112 -0.431660
Br8   Br    Br    0.250264 0.030867 0.296127 -0.698330
Br9   Br    Br    0.767801 0.483562 0.626180 -0.605816
Br10  Br    Br    0.247593 0.961354 0.701508 -0.499924
Br11  Br    Br    0.957298 0.497581 0.729751 -0.415856
Br12  Br    Br    0.483472 0.448325 0.703069 -0.418604
Br13  Br    Br    0.742332 0.573478 0.336985 -0.497561
Br14  Br    Br    0.223206 0.592991 0.264965 -0.486498
C1    C     C_3   0.965237 0.524397 0.654785 0.419090
C2    C     C_R   0.482674 0.402047 0.195093 0.576291
C3    C     C_2   0.306752 0.281259 0.282328 -0.080335
C4    C     C_3   0.480563 0.632603 0.640740 0.329811
C5    C     C_3   0.298163 0.253443 0.340813 -0.092714
C6    C     C_1   0.496374 0.151743 0.347009 0.120406
C7    C     C_2   0.534852 0.196240 0.298684 -0.039221
C8    C     C_2   0.432868 0.263439 0.262816 0.225472
C9    C     C_R   0.559389 0.413178 0.108866 -0.118515
C10   C     C_R   0.544992 0.322921 0.122861 -0.083639
C11   C     C_R   0.563563 0.285849 0.083600 0.314138
C12   C     C_3   0.009304 0.620124 0.625733 0.279876
C13   C     C_R   0.522064 0.452222 0.144674 -0.025483
C14   C     C_2   0.398048 0.180296 0.371259 -0.236144
C15   C     C_2   0.839845 0.846778 0.640113 -0.342066
C16   C     C_3   0.400024 0.558854 0.684428 0.214841
C17   C     C_R   0.692078 0.477991 0.971824 0.053286
C18   C     C_R   0.665499 0.607408 0.994916 -0.010117
C19   C     C_R   0.689468 0.568574 0.957106 0.021741
C20   C     C_R   0.752842 0.444049 0.936270 0.020716
C21   C     C_R   0.767057 0.494592 0.884370 -0.019110
C22   C     C_R   0.749505 0.582284 0.868099 -0.043615
C23   C     C_3   0.097964 0.036540 0.654699 0.566152
C24   C     C_R   0.719647 0.620824 0.905071 -0.089966
C25   C     C_R   0.720345 0.711084 0.890042 -0.054691
C26   C     C_R   0.747745 0.759878 0.836958 0.654321
C27   C     C_R   0.774054 0.632581 0.816284 0.639281
C28   C     C_3   0.544614 0.886836 0.355851 0.679099
C29   C     C_2   0.955396 0.768045 0.730627 0.284846
C30   C     C_3   0.988044 0.817780 0.674218 0.012789
C31   C     C_1   0.722268 0.864963 0.661216 0.026004
C32   C     C_2   0.692834 0.825185 0.710783 -0.150718
C33   C     C_2   0.813282 0.771072 0.748183 0.176637
C34   C     C_3   0.972583 0.050078 0.686373 -0.210549
C35   C     C_R   0.639619 0.426272 0.021623 -0.021661
C36   C     C_R   0.607083 0.465013 0.058478 0.050405
C37   C     C_R   0.615265 0.555379 0.044627 0.044901
C38   C     C_R   0.602950 0.337375 0.033932 -0.115385
C39   C     C_R   0.517943 0.541061 0.128677 -0.027112
C40   C     C_3   0.435819 0.837983 0.319414 0.234297
C41   C     C_R   0.699740 0.697097 0.982252 0.237580
C42   C     C_R   0.705311 0.748981 0.929594 0.027370
C43   C     C_R   0.557069 0.590833 0.079064 -0.042935
C44   C     C_2   0.405041 0.250059 0.508332 -0.287440
C45   C     C_3   0.591684 0.407080 0.378840 0.308721
C46   C     C_R   0.812598 0.753577 0.496001 -0.220126
C47   C     C_2   0.262384 0.318596 0.556390 -0.038737
C48   C     C_2   0.268568 0.251979 0.537671 0.048295
C49   C     C_2   0.519741 0.314795 0.496944 -0.046122
C50   C     C_3   0.486790 0.398516 0.503752 -0.084930
C51   C     C_3   0.400445 0.384907 0.552230 0.134933
C52   C     C_3   0.555967 0.107453 0.612595 0.353673
C53   C     C_2   0.614392 0.471506 0.498034 0.060575
C54   C     C_2   0.571170 0.553079 0.478842 0.084581
C55   C     C_R   0.815138 0.633145 0.444680 0.157330
C56   C     C_3   0.622297 0.473485 0.326701 0.154839
C57   C     C_R   0.690472 0.626784 0.475409 -0.016799
C58   C     C_R   0.935319 0.698108 0.438752 -0.084193
C59   C     C_R   0.931398 0.760995 0.462293 0.072893
C60   C     C_R   0.687516 0.687915 0.502080 0.073031
C61   C     C_3   0.559406 0.175759 0.640572 0.201569
C62   C     C_3   0.071912 0.998250 0.338545 0.512358
C63   C     C_3   0.929050 0.023550 0.294941 -0.043789
C64   C     C_3   0.090297 0.624991 0.576847 -0.396496
C65   C     C_3   0.456356 0.884146 0.260975 -0.240345
C66   C     C_3   0.259250 0.821069 0.327838 -0.271002
C67   C     C_3   0.185041 0.429150 0.341449 0.260166
C68   C     C_3   0.707755 0.237655 0.632787 -0.382046
C69   C     C_3   0.105001 0.054335 0.373216 -0.221775
C70   C     C_3   0.914335 0.973094 0.255022 -0.263602
C71   C     C_3   0.927021 0.118729 0.263039 -0.431628
C72   C     C_3   0.038228 0.090567 0.728926 -0.265247
C73   C     C_3   0.988064 0.460543 0.260651 -0.327463
C74   C     C_3   0.832309 0.361527 0.952894 -0.372014
C75   C     C_3   0.644595 0.658494 0.661301 -0.278100
C76   C     C_3   0.698467 0.844284 0.917246 -0.221993
C77   C     C_3   0.144495 0.318914 0.593557 -0.331548
C78   C     C_3   0.086671 0.495602 0.301281 0.174727
C79   C     C_3   0.784696 0.453341 0.516051 -0.327181
C80   C     C_3   0.390915 0.579985 0.735182 -0.335447
C81   C     C_3   0.405878 0.569726 0.453301 -0.276043
C82   C     C_R   0.505311 0.274016 0.174513 0.634448
H1    H     H_    0.431739 0.085886 0.604012 0.037114
H2    H     H_    0.513332 0.353774 0.371264 -0.088988
H3    H     H_    0.531635 0.437567 0.401479 -0.010124
H4    H     H_    0.685892 0.446404 0.303155 0.080736
H5    H     H_    0.508399 0.493881 0.304855 0.135260
H6    H     H_    0.266459 0.407662 0.320441 -0.007724
H7    H     H_    0.260668 0.461605 0.366706 0.036311
H8    H     H_    0.008810 0.518458 0.322626 0.159765
H9    H     H_    0.408087 0.687814 0.630224 0.067548
H10   H     H_    0.641385 0.184818 0.284835 0.087259
H11   H     H_    0.805044 0.465908 0.857400 0.167781
H12   H     H_    0.611793 0.134371 0.575054 -0.046826
H13   H     H_    0.597693 0.306262 0.004359 0.125970
H14   H     H_    0.226753 0.326586 0.257427 0.094507
H15   H     H_    0.479433 0.572595 0.154035 0.166144
H16   H     H_    0.578284 0.827423 0.723716 0.161555
H17   H     H_    0.535111 0.657287 0.067495 0.140262
H18   H     H_    0.399624 0.158245 0.413558 0.067191
H19   H     H_    0.833401 0.855515 0.598408 0.076304
H20   H     H_    0.025066 0.702386 0.412773 0.096652
H21   H     H_    0.416926 0.191784 0.499599 0.047398
H22   H     H_    0.809246 0.803240 0.513716 0.072712
H23   H     H_    0.457201 0.213688 0.624229 0.035454
H24   H     H_    0.279689 0.545903 0.669060 0.095186
H25   H     H_    0.001253 0.609846 0.547480 0.057474
H26   H     H_    0.146671 0.688510 0.558297 0.178082
H27   H     H_    0.181670 0.579114 0.585305 0.125971
H28   H     H_    0.438079 0.952763 0.249913 0.178506
H29   H     H_    0.576907 0.878488 0.251816 0.161114
H30   H     H_    0.371381 0.855111 0.235784 0.161013
H31   H     H_    0.241369 0.801847 0.369730 0.164156
H32   H     H_    0.191239 0.873519 0.303690 0.160887
H33   H     H_    0.202595 0.767864 0.313621 0.171885
H34   H     H_    0.052291 0.482901 0.650474 0.046222
H35   H     H_    0.807243 0.211841 0.661430 0.148584
H36   H     H_    0.743804 0.252344 0.592746 0.075532
H37   H     H_    0.682840 0.297923 0.638686 0.201674
H38   H     H_    0.212763 0.036724 0.400060 0.084053
H39   H     H_    0.121291 0.119390 0.347494 0.041494
H40   H     H_    0.009013 0.053056 0.396045 0.178792
H41   H     H_    0.001844 0.999393 0.225434 0.172535
H42   H     H_    0.932602 0.904790 0.273877 0.185109
H43   H     H_    0.795140 0.978020 0.233506 0.135100
H44   H     H_    0.039219 0.146520 0.245275 0.180295
H45   H     H_    0.819861 0.010775 0.314274 0.173821
H46   H     H_    0.830009 0.128444 0.230987 0.167320
H47   H     H_    0.900157 0.154282 0.288175 0.163322
H48   H     H_    0.938236 0.104013 0.747080 0.155811
H49   H     H_    0.112185 0.046758 0.760192 0.190732
H50   H     H_    0.109258 0.151610 0.712081 0.162432
H51   H     H_    0.906603 0.405560 0.279707 0.135854
H52   H     H_    0.915537 0.510644 0.233635 0.163658
H53   H     H_    0.065770 0.440607 0.237335 0.131631
H54   H     H_    0.944489 0.371100 0.933919 0.142957
H55   H     H_    0.867398 0.339551 0.995550 0.135053
H56   H     H_    0.901188 0.654366 0.612485 -0.001558
H57   H     H_    0.754618 0.311707 0.940587 0.150120
H58   H     H_    0.716312 0.603478 0.676221 0.219766
H59   H     H_    0.701794 0.708771 0.629915 0.022002
H60   H     H_    0.635386 0.683006 0.693872 0.071532
H61   H     H_    0.667757 0.862037 0.950874 0.150985
H62   H     H_    0.814329 0.878338 0.905365 0.170894
H63   H     H_    0.602990 0.867040 0.885832 0.161696
H64   H     H_    0.025302 0.293572 0.582254 0.140924
H65   H     H_    0.184092 0.280198 0.633825 0.148888
H66   H     H_    0.134813 0.385107 0.593535 0.120162
H67   H     H_    0.040266 0.004378 0.626138 -0.039029
H68   H     H_    0.851646 0.502764 0.530722 0.114267
H69   H     H_    0.791329 0.393046 0.548524 0.142681
H70   H     H_    0.846512 0.452755 0.482442 0.150995
H71   H     H_    0.505457 0.572292 0.759216 0.157901
H72   H     H_    0.359714 0.645973 0.727153 0.167753
H73   H     H_    0.300641 0.535641 0.758794 0.200596
H74   H     H_    0.317840 0.545920 0.482834 0.109328
H75   H     H_    0.395483 0.638448 0.433093 0.188932
H76   H     H_    0.377456 0.537199 0.423024 0.117006
H77   H     H_    0.893480 0.094130 0.658230 0.114583
H78   H     H_    0.904556 0.988560 0.704489 0.111381
N1    N     N_R   0.475174 0.313692 0.210012 -0.435387
N2    N     N_R   0.775386 0.720348 0.801233 -0.416949
O1    O     O_2   0.431310 0.922990 0.623550 -0.415528
O2    O     O_2   0.849647 0.300369 0.499583 -0.473496
O3    O     O_3   0.734956 0.377338 0.405510 -0.539415
O4    O     O_3   0.663280 0.983100 0.563360 -0.491509
O5    O     O_3   0.016420 0.932050 0.462720 -0.500988
O6    O     O_2   0.959730 0.164640 0.549160 -0.463812
O7    O     O_3   0.178845 0.115760 0.631194 -0.645846
O8    O     O_2   0.958315 0.255831 0.328256 -0.520351
O9    O     O_3   0.087659 0.364154 0.374398 -0.561184
O10   O     O_2   0.496092 0.196323 0.187813 -0.515650
O11   O     O_2   0.796200 0.598021 0.784403 -0.540269
O12   O     O_3   0.061569 0.907668 0.367083 -0.594100
O13   O     O_2   0.456052 0.437545 0.226035 -0.614229
O14   O     O_2   0.751312 0.837511 0.822724 -0.570836
O15   O     O_3   0.126250 0.812630 0.574830 -0.503749
O16   O     O_2   0.287528 0.786031 0.664828 -0.436219
O17   O     O_3   0.635142 0.038389 0.645092 -0.604139
O18   O     O_3   0.109579 0.655472 0.660354 -0.595167
O19   O     O_2   0.229950 0.835370 0.450810 -0.421990
O20   O     O_3   0.517580 0.797570 0.545130 -0.457172
O21   O     O_2   0.359935 0.688314 0.504030 -0.483289
O22   O     O_3   0.488660 0.607171 0.596051 -0.567897
O23   O     O_2   0.758370 0.077020 0.376420 -0.524254
O24   O     O_3   0.526390 0.016840 0.436620 -0.457651
O25   O     O_3   0.063420 0.187310 0.425160 -0.447197
O26   O     O_3   0.546796 0.978555 0.338129 -0.604682
O27   O     O_3   0.173250 0.067890 0.537260 -0.485903
O28   O     O_3   0.672100 0.202370 0.454860 -0.463580
P1    P     P_3+3 0.610630 0.953360 0.619150 1.042503
P2    P     P_3+3 0.057260 0.861390 0.437850 1.045889
P3    P     P_3+3 0.515927 0.694648 0.538367 0.989942
P4    P     P_3+3 0.579040 0.046590 0.380840 1.069368
P5    P     P_3+3 0.692749 0.300931 0.465007 0.997348
P6    P     P_3+3 0.117444 0.767514 0.642474 0.999045
P7    P     P_3+3 0.142898 0.150729 0.562620 0.943992
P8    P     P_3+3 0.104744 0.264964 0.366001 0.952654

loop_
_geom_bond_atom_site_label_1
_geom_bond_atom_site_label_2
_ccdc_geom_bond_type
C60   P3    S    
C76   H63   S    
C68   H37   S    
C39   C43   A    
C65   H28   S    
C25   C26   A    
Ba1   Ba2   S    
O25   P8    S    
Ba1   O15   S    
Ba1   O20   S    
Ba2   O24   S    
C67   O9    S    
C79   H70   S    
C49   P5    S    
C63   C71   S    
C37   C43   A    
C11   C38   A    
C40   C65   S    
C27   N2    Am   
C14   H18   S    
C29   C30   S    
Br13  C56   S    
C68   H36   S    
C10   C11   A    
C81   H74   S    
C76   H61   S    
C20   C21   A    
C3    C5    S    
O3    P5    S    
C25   C42   A    
O4    P1    S    
C4    C16   S    
C50   C53   S    
C64   H27   S    
C77   H65   S    
C6    P4    S    
C17   C20   A    
C44   H21   S    
C34   H78   S    
C18   C19   A    
Ba2   O4    S    
C73   C78   S    
Ba1   P2    S    
O20   P3    S    
C4    O22   S    
C75   H60   S    
C82   O10   D    
C17   C19   A    
O28   P5    S    
C15   H19   S    
C2    N1    Am   
C15   C30   S    
C62   O12   S    
C18   C41   A    
C7    C8    S    
Ba2   O28   S    
C71   H46   S    
C66   H32   S    
Ba1   O27   S    
C46   H22   S    
C54   C81   S    
C34   C72   S    
C4    H9    S    
C73   H51   S    
C50   C51   S    
O9    P8    S    
O27   P7    S    
C80   H72   S    
C65   H29   S    
C1    H34   S    
C12   H56   S    
O5    P2    S    
Br4   C41   S    
C46   C60   A    
Ba2   O23   S    
O24   P4    S    
C12   C64   S    
Ba1   O24   S    
C44   C48   S    
O1    P1    D    
C45   H2    S    
Br8   C62   S    
C58   H20   S    
C4    C75   S    
C47   C51   S    
C2    O13   D    
Ba2   P4    S    
C81   H75   S    
C67   H6    S    
C19   C24   A    
C35   C36   A    
C16   H24   S    
C48   P7    S    
C61   H23   S    
C74   H54   S    
C58   C59   A    
Br14  C78   S    
C55   C57   A    
C62   C63   S    
O15   P6    S    
Br7   C61   S    
C39   H15   S    
C61   C68   S    
C9    C10   A    
C3    H14   S    
C67   C78   S    
Br3   C29   S    
C80   H73   S    
C67   H7    S    
C34   H77   S    
C74   H55   S    
O18   P6    S    
C23   H67   S    
O2    P5    D    
C45   H3    S    
C21   C22   A    
C63   H45   S    
Br1   C40   S    
C28   C40   S    
C31   C32   D    
C29   C33   D    
C54   C57   S    
C72   H50   S    
C41   C42   A    
Ba2   O27   S    
C52   H12   S    
Br5   C28   S    
C66   H31   S    
C70   H41   S    
Ba1   O5    S    
C62   C69   S    
O12   P2    S    
C24   C25   A    
C16   C80   S    
C10   C82   A    
C44   C49   D    
C80   H71   S    
C65   H30   S    
C57   C60   A    
C46   C59   A    
C59   P2    S    
C79   H68   S    
C73   H52   S    
O23   P4    D    
Br2   C11   S    
C36   C37   A    
C45   C56   S    
C32   H16   S    
C33   N2    S    
C64   H26   S    
C69   H39   S    
C20   C74   S    
C52   C61   S    
C32   C33   S    
C81   H76   S    
C71   H47   S    
C5    P8    S    
C1    C12   S    
C21   H11   S    
Br9   C1    S    
Ba1   O19   S    
Ba2   O25   S    
Br6   C28   S    
Br12  C16   S    
C53   C79   S    
C79   H69   S    
C55   C58   A    
Ba1   O4    S    
C40   C66   S    
C15   C31   D    
C56   H5    S    
Br11  C1    S    
C17   C35   A    
C13   C39   A    
C5    C14   S    
C47   C77   S    
C45   O3    S    
O22   P3    S    
C77   H66   S    
C31   P1    S    
C76   H62   S    
C35   C38   A    
Br10  C23   S    
C3    C8    D    
C74   H57   S    
C9    C36   A    
C22   C27   A    
C6    C14   D    
C22   C24   A    
Ba1   O1    S    
C9    C13   A    
O6    P7    D    
C56   H4    S    
C77   H64   S    
C26   N2    Am   
C30   P6    S    
C7    H10   S    
O8    P8    D    
C12   O18   S    
C72   H49   S    
O7    P7    S    
C38   H13   S    
Ba2   O6    S    
C52   O17   S    
Ba2   O5    S    
C71   H44   S    
C53   C54   D    
Ba1   P1    S    
C75   H59   S    
O16   P6    D    
C78   H8    S    
C69   H38   S    
C2    C13   A    
C47   C48   D    
C23   O7    S    
C26   O14   D    
C75   H58   S    
C23   C34   S    
O17   P1    S    
C27   O11   D    
C18   C37   A    
C43   H17   S    
C49   C50   S    
C73   H53   S    
O26   P4    S    
C8    N1    S    
C28   O26   S    
C72   H48   S    
C6    C7    D    
O19   P2    D    
C82   N1    Am   
C70   H42   S    
C69   H40   S    
O21   P3    D    
C66   H33   S    
C42   C76   S    
C68   H35   S    
C63   C70   S    
C70   H43   S    
C64   H25   S    
C52   H1    S    
