data_mof_unit_42859.cif
_audit_creation_date              2012-12-11T19:28:07-0500
_audit_creation_method            fapswitch 2.2
_symmetry_space_group_name_H-M    P1
_symmetry_Int_Tables_number       1
_space_group_crystal_system       triclinic
_cell_length_a                    8.486491
_cell_length_b                    15.268711
_cell_length_c                    16.832449
_cell_angle_alpha                 112.078198
_cell_angle_beta                  98.097093
_cell_angle_gamma                 80.677111
_cell_volume                      1986.83690601

loop_
_atom_site_label
_atom_site_type_symbol
_atom_type_description
_atom_site_fract_x
_atom_site_fract_y
_atom_site_fract_z
_atom_type_partial_charge
Ba1   Ba    Ba6+2 0.364200 0.465260 0.540900 1.841199
Ba2   Ba    Ba6+2 0.825630 0.534670 0.459090 1.807873
Br1   Br    Br    0.894103 0.246749 0.882597 -0.613796
Br2   Br    Br    0.416504 0.812362 0.124923 -0.184987
Br3   Br    Br    0.917620 0.795939 0.347533 -0.480830
Br4   Br    Br    0.176204 0.021000 0.285251 -0.385632
C1    C     C_3   0.267288 0.172193 0.742137 -0.309830
C2    C     C_R   0.906084 0.553310 0.764350 0.038513
C3    C     C_2   0.476058 0.390467 0.134654 -0.068797
C4    C     C_3   0.704070 0.333876 0.771836 0.375381
C5    C     C_2   0.445883 0.417298 0.217451 0.033367
C6    C     C_2   0.165735 0.487804 0.186773 0.104701
C7    C     C_3   0.182127 0.437635 0.089954 0.007215
C8    C     C_3   0.359208 0.419691 0.069442 0.050123
C9    C     C_2   0.062499 0.477333 0.030260 0.006105
C10   C     C_2   0.098139 0.481850 0.955660 0.035629
C11   C     C_R   0.829760 0.566409 0.922014 -0.038902
C12   C     C_3   0.211205 0.262506 0.722812 0.306335
C13   C     C_R   0.978978 0.516483 0.895139 -0.093441
C14   C     C_R   0.714541 0.600886 0.868229 0.231563
C15   C     C_R   0.745994 0.584685 0.783670 -0.089335
C16   C     C_3   0.710662 0.331670 0.862041 0.116228
C17   C     C_R   0.017712 0.509474 0.813455 -0.017645
C18   C     C_R   0.358379 0.829052 0.453709 0.060431
C19   C     C_R   0.294650 0.925410 0.461720 -0.199935
C20   C     C_R   0.131963 0.106569 0.464246 -0.145457
C21   C     C_R   0.241858 0.053811 0.405311 0.315535
C22   C     C_R   0.347798 0.981735 0.420284 0.382891
C23   C     C_3   0.967141 0.862224 0.733098 0.324074
C24   C     C_R   0.070802 0.202556 0.474839 0.038597
C25   C     C_R   0.935459 0.242967 0.521814 -0.300961
C26   C     C_R   0.132922 0.815435 0.526813 -0.050727
C27   C     C_R   0.072926 0.911221 0.537625 0.026356
C28   C     C_3   0.731734 0.234178 0.332375 0.297841
C29   C     C_R   0.149333 0.964829 0.503837 0.012710
C30   C     C_R   0.931439 0.953622 0.577369 -0.021047
C31   C     C_R   0.871664 0.047602 0.591405 -0.008656
C32   C     C_R   0.937512 0.100426 0.555045 0.005743
C33   C     C_R   0.075581 0.058570 0.509878 -0.009459
C34   C     C_3   0.037689 0.956622 0.771858 -0.431469
C35   C     C_R   0.863094 0.191291 0.557992 -0.029164
C36   C     C_R   0.273994 0.776841 0.484757 -0.170097
C37   C     C_3   0.801372 0.130702 0.292854 -0.251421
C38   C     C_3   0.492776 0.766113 0.658432 0.349583
C39   C     C_3   0.461662 0.874207 0.687316 -0.371643
C40   C     C_3   0.211293 0.256093 0.264922 0.761597
C41   C     C_3   0.080856 0.311058 0.225740 -0.291519
C42   C     C_3   0.518962 0.689770 0.230254 0.698391
C43   C     C_3   0.531705 0.697184 0.142006 0.308339
C44   C     C_3   0.920565 0.722591 0.227713 0.478267
C45   C     C_3   0.866342 0.786277 0.175013 -0.256068
C46   C     C_2   0.287448 0.471197 0.243701 -0.187556
H1    H     H_    0.249827 0.250769 0.658782 0.059777
H2    H     H_    0.303420 0.301966 0.305236 -0.123310
H3    H     H_    0.211225 0.111397 0.692698 0.055175
H4    H     H_    0.972726 0.272846 0.202899 0.156401
H5    H     H_    0.119535 0.319046 0.169131 0.076448
H6    H     H_    0.051131 0.381135 0.276273 0.065428
H7    H     H_    0.078292 0.275376 0.720960 -0.017677
H8    H     H_    0.233078 0.181292 0.806299 0.175489
H9    H     H_    0.851094 0.867095 0.695302 -0.009613
H10   H     H_    0.937806 0.846411 0.788197 0.131263
H11   H     H_    0.097514 0.969750 0.723781 0.089136
H12   H     H_    0.876721 0.122424 0.241118 0.182290
H13   H     H_    0.941151 0.015709 0.796495 0.156706
H14   H     H_    0.128221 0.955617 0.826116 0.171430
H15   H     H_    0.399649 0.156024 0.741619 0.140921
H16   H     H_    0.579411 0.619893 0.231124 -0.031010
H17   H     H_    0.484165 0.634113 0.092875 0.057835
H18   H     H_    0.649641 0.685185 0.120204 0.017988
H19   H     H_    0.035782 0.700699 0.214025 0.178071
H20   H     H_    0.947623 0.841915 0.191854 0.182365
H21   H     H_    0.745997 0.824586 0.189149 0.190988
H22   H     H_    0.607838 0.390486 0.766560 0.024355
H23   H     H_    0.873133 0.107174 0.342706 0.057816
H24   H     H_    0.871557 0.743588 0.105388 0.147480
H25   H     H_    0.590327 0.350509 0.114002 0.115855
H26   H     H_    0.269881 0.497190 0.311697 0.065498
H27   H     H_    0.939173 0.496825 0.046337 0.080315
H28   H     H_    0.220224 0.459394 0.938458 0.096546
H29   H     H_    0.763697 0.074319 0.624246 0.114365
H30   H     H_    0.820688 0.351090 0.762369 -0.097201
H31   H     H_    0.859379 0.913851 0.594908 0.068837
H32   H     H_    0.880010 0.313102 0.525872 0.033662
H33   H     H_    0.321210 0.704260 0.477403 0.027602
H34   H     H_    0.705938 0.083747 0.264309 0.218377
H35   H     H_    0.720215 0.403906 0.910875 -0.012629
H36   H     H_    0.599390 0.307325 0.869959 0.113799
H37   H     H_    0.832045 0.278260 0.355980 -0.005257
H38   H     H_    0.662564 0.244462 0.387091 0.036573
H39   H     H_    0.219588 0.038107 0.073649 0.395720
H40   H     H_    0.192403 0.829254 0.307938 0.342377
H41   H     H_    0.497644 0.569356 0.949591 0.289333
H42   H     H_    0.916880 0.469013 0.598788 0.276346
H43   H     H_    0.661435 0.106565 0.417012 0.321666
H44   H     H_    0.378461 0.735312 0.633227 -0.023624
H45   H     H_    0.576887 0.739725 0.607302 0.044997
H46   H     H_    0.374858 0.901974 0.737025 0.147658
H47   H     H_    0.413401 0.896930 0.632664 0.029617
H48   H     H_    0.574710 0.905951 0.715487 0.118413
O1    O     O_2   0.428380 0.595300 0.716110 -0.371258
O2    O     O_2   0.685785 0.804751 0.461946 -0.407059
O3    O     O_3   0.577933 0.765537 0.300954 -0.522837
O4    O     O_3   0.649320 0.571650 0.606870 -0.498391
O5    O     O_3   0.067580 0.379340 0.450790 -0.494399
O6    O     O_2   0.850900 0.734750 0.551740 -0.437019
O7    O     O_3   0.082046 0.788346 0.689100 -0.559029
O8    O     O_2   0.857283 0.471274 0.196402 -0.494649
O9    O     O_3   0.848925 0.638595 0.200764 -0.654583
O10   O     O_3   0.202060 0.415880 0.655570 -0.448840
O11   O     O_2   0.348479 0.504911 0.804471 -0.421826
O12   O     O_3   0.135452 0.217425 0.310238 -0.628275
O13   O     O_3   0.559126 0.743429 0.730072 -0.544383
O14   O     O_3   0.280593 0.338935 0.787192 -0.622965
O15   O     O_2   0.338790 0.265210 0.448200 -0.432853
O16   O     O_3   0.612600 0.359140 0.609510 -0.521664
O17   O     O_2   0.526389 0.189124 0.558230 -0.441787
O18   O     O_2   0.384069 0.197076 0.126608 -0.327040
O19   O     O_2   0.423290 0.097989 0.214946 -0.196334
O20   O     O_3   0.160202 0.094268 0.114861 -0.467970
O21   O     O_2   0.250417 0.631787 0.145045 -0.411070
O22   O     O_2   0.276773 0.662099 0.300482 -0.460190
O23   O     O_3   0.669395 0.244986 0.711476 -0.594368
O24   O     O_3   0.234166 0.806819 0.251354 -0.488596
O25   O     O_2   0.639672 0.757518 0.995823 -0.271606
O26   O     O_2   0.458033 0.737261 0.867648 -0.189618
O27   O     O_3   0.437379 0.631759 0.953005 -0.456239
O28   O     O_2   0.872098 0.683388 0.691054 -0.343258
O29   O     O_2   0.139683 0.630730 0.736907 -0.211956
O30   O     O_3   0.991529 0.513752 0.601523 -0.423335
O31   O     O_2   0.671026 0.960446 0.448506 -0.311815
O32   O     O_2   0.558783 0.925458 0.298715 -0.188072
O33   O     O_3   0.548537 0.096504 0.396824 -0.489007
O34   O     O_2   0.761310 0.404660 0.283830 -0.477511
O35   O     O_3   0.540390 0.428270 0.393120 -0.520402
O36   O     O_3   0.987650 0.584040 0.344420 -0.438975
O37   O     O_3   0.630113 0.257090 0.268594 -0.567314
O38   O     O_3   0.122130 0.620580 0.549200 -0.370412
O39   O     O_3   0.577110 0.640790 0.390470 -0.478625
P1    P     P_3+3 0.592580 0.619750 0.703570 1.165181
P2    P     P_3+3 0.156510 0.273300 0.422380 1.015492
P3    P     P_3+3 0.669236 0.244496 0.607193 0.951785
P4    P     P_3+3 0.597130 0.380170 0.296420 1.017169
P5    P     P_3+3 0.544646 0.760900 0.400944 1.164710
P6    P     P_3+3 0.209788 0.443306 0.766547 1.033123
P7    P     P_3+3 0.040695 0.742809 0.575794 1.086743
P8    P     P_3+3 0.970199 0.549135 0.231432 1.021029
S1    S     S_3+6 0.302509 0.159604 0.178822 0.006613
S2    S     S_3+6 0.315855 0.693922 0.232311 -0.185168
S3    S     S_3+6 0.559003 0.685316 0.920308 0.005468
S4    S     S_3+6 0.979782 0.598969 0.698453 -0.026756
S5    S     S_3+6 0.537661 0.985586 0.390567 -0.010665

loop_
_geom_bond_atom_site_label_1
_geom_bond_atom_site_label_2
_ccdc_geom_bond_type
O24   S2    S    
O15   P2    D    
C40   O12   S    
C18   C36   A    
C13   C17   A    
C1    H3    S    
C44   H19   S    
O3    P5    S    
C12   O14   S    
H41   O27   S    
C4    C16   S    
C19   C22   A    
C6    C7    S    
C17   P6    S    
C20   C21   A    
Ba2   O34   S    
C24   P2    S    
Ba2   O39   S    
C6    P8    S    
C30   C31   A    
O38   P7    S    
O29   S4    D    
C39   H46   S    
O11   P6    D    
O27   S3    S    
O5    P2    S    
C24   C25   A    
C20   C33   A    
C26   P7    S    
C30   H31   S    
C9    C10   D    
H43   O33   S    
C2    C17   A    
O23   P3    S    
Ba1   Ba2   S    
O39   P5    S    
C5    C46   S    
C12   H1    S    
C11   C13   A    
O34   P4    D    
C40   C41   S    
C40   S1    S    
O21   S2    D    
C4    H22   S    
Ba1   O16   S    
C16   H36   S    
O10   P6    S    
O8    P8    D    
O35   P4    S    
O37   P4    S    
C34   H14   S    
C42   S2    S    
Ba2   P4    S    
C31   H29   S    
O31   S5    D    
O9    P8    S    
O33   S5    S    
O2    P5    D    
C46   H26   S    
C6    C46   D    
O1    P1    D    
C37   H12   S    
C2    C15   A    
C37   H23   S    
C23   H9    S    
C27   C30   A    
Ba2   O38   S    
O22   S2    D    
C2    S4    S    
C18   C19   A    
C32   C35   A    
C4    O23   S    
C39   H47   S    
O7    P7    S    
O19   S1    D    
C42   O3    S    
Ba2   O6    S    
C44   O9    S    
C42   H16   S    
C25   H32   S    
O4    P1    S    
C10   H28   S    
O12   P2    S    
C29   C33   A    
C3    C8    S    
C28   H38   S    
C31   C32   A    
C38   H44   S    
Ba1   O10   S    
C41   H5    S    
C3    C5    D    
C38   H45   S    
O28   S4    D    
Br4   C21   S    
Ba2   O4    S    
C1    C12   S    
C40   H2    S    
C28   O37   S    
C44   C45   S    
O13   P1    S    
C36   H33   S    
C3    H25   S    
C16   H35   S    
C45   H24   S    
C34   H11   S    
Ba1   O4    S    
Ba1   P1    S    
C19   C29   A    
O16   P3    S    
C42   C43   S    
C38   O13   S    
C22   S5    S    
C34   H13   S    
C7    C9    S    
O32   S5    D    
C7    C8    S    
Br3   C44   S    
C45   H20   S    
H42   O30   S    
Ba1   O1    S    
C1    H8    S    
O30   S4    S    
C38   C39   S    
C23   H10   S    
C25   C35   A    
C37   H34   S    
C11   C14   A    
C28   C37   S    
C45   H21   S    
O14   P6    S    
C39   H48   S    
C4    H30   S    
O20   S1    S    
C9    H27   S    
Ba2   O5    S    
Ba2   O35   S    
O6    P7    D    
Br2   C43   S    
C43   H18   S    
C26   C27   A    
H40   O24   S    
O17   P3    D    
C28   H37   S    
C35   P3    S    
C41   H6    S    
O26   S3    D    
C32   C33   A    
C18   P5    S    
C10   C13   S    
C23   C34   S    
O18   S1    D    
C27   C29   A    
C14   S3    S    
Ba2   O36   S    
O36   P8    S    
Ba1   P2    S    
O25   S3    D    
C1    H15   S    
C12   H7    S    
C14   C15   A    
C21   C22   A    
C26   C36   A    
H39   O20   S    
C23   O7    S    
Br1   C16   S    
C43   H17   S    
Ba1   O15   S    
C15   P1    S    
Ba1   O35   S    
C5    P4    S    
Ba1   O38   S    
Ba1   O5    S    
C41   H4    S    
C20   C24   A    
