data_mof_unit_29245.cif
_audit_creation_date              2012-12-11T14:50:53-0500
_audit_creation_method            fapswitch 2.2
_symmetry_space_group_name_H-M    P1
_symmetry_Int_Tables_number       1
_space_group_crystal_system       triclinic
_cell_length_a                    11.066493
_cell_length_b                    11.064945
_cell_length_c                    18.76246
_cell_angle_alpha                 89.793854
_cell_angle_beta                  89.343392
_cell_angle_gamma                 59.591138
_cell_volume                      1981.27922971

loop_
_atom_site_label
_atom_site_type_symbol
_atom_type_description
_atom_site_fract_x
_atom_site_fract_y
_atom_site_fract_z
_atom_type_partial_charge
C1    C     C_R   0.297122 0.620449 0.615176 0.545195
C2    C     C_R   0.557190 0.186966 0.789892 -0.147265
C3    C     C_R   0.552693 0.179935 0.716994 -0.152258
C4    C     C_R   0.653590 0.619446 0.601454 0.531463
C5    C     C_R   0.662586 0.168924 0.674986 0.019267
C6    C     C_R   0.302866 0.515584 0.736341 -0.125701
C7    C     C_R   0.276852 0.530596 0.810563 -0.108188
C8    C     C_R   0.213030 0.664084 0.841500 0.037616
C9    C     C_R   0.211831 0.772595 0.801691 -0.156491
C10   C     C_R   0.235367 0.758547 0.728636 -0.176730
C11   C     C_R   0.276681 0.630719 0.694015 -0.004456
C12   C     C_3   0.714009 0.526162 0.800187 -0.216579
C13   C     C_R   0.715457 0.523767 0.270169 -0.124309
C14   C     C_R   0.715622 0.538750 0.197167 -0.136715
C15   C     C_R   0.648777 0.672667 0.167271 0.017723
C16   C     C_R   0.628516 0.225926 0.602369 0.527148
C17   C     C_R   0.569384 0.790948 0.210882 -0.132382
C18   C     C_R   0.567274 0.775295 0.284492 -0.144183
C19   C     C_R   0.645370 0.641987 0.314491 0.018305
C20   C     C_R   0.526415 0.187497 0.282910 0.066778
C21   C     C_R   0.530953 0.187009 0.209881 -0.126227
C22   C     C_R   0.650941 0.164391 0.174312 -0.021103
C23   C     C_3   0.701419 0.670480 0.813019 0.065417
C24   C     C_R   0.765281 0.152244 0.212195 -0.126447
C25   C     C_R   0.763183 0.154329 0.285710 0.033470
C26   C     C_R   0.640868 0.178820 0.322030 0.039412
C27   C     C_R   0.252148 0.714854 0.280145 -0.100968
C28   C     C_R   0.228059 0.647352 0.399821 0.558546
C29   C     C_R   0.233126 0.716091 0.208031 -0.124759
C30   C     C_R   0.151695 0.663689 0.181410 0.028143
C31   C     C_R   0.099845 0.598138 0.226401 -0.116244
C32   C     C_R   0.120904 0.595089 0.299154 -0.113856
C33   C     C_R   0.192443 0.658464 0.326030 0.047735
C34   C     C_3   0.675253 0.639455 0.676794 0.043407
C35   C     C_R   0.700102 0.104255 0.896843 0.528253
C36   C     C_R   0.722391 0.686590 0.889166 0.541027
C37   C     C_R   0.125461 0.703821 0.907831 0.535535
C38   C     C_R   0.674179 0.108698 0.103009 0.549360
C39   C     C_R   0.693921 0.689961 0.096813 0.543064
C40   C     C_R   0.639514 0.618990 0.390431 0.547354
C41   C     C_R   0.093331 0.708015 0.111931 0.544653
C42   C     C_R   0.616601 0.229151 0.394939 0.571899
C43   C     C_3   0.553276 0.783356 0.788359 -0.273550
C44   C     C_3   0.535769 0.756551 0.710156 -0.275447
C45   C     C_3   0.780104 0.687642 0.685895 -0.180635
C46   C     C_3   0.816643 0.680271 0.766153 0.116618
C47   C     C_3   0.861860 0.358940 0.695323 -0.216520
C48   C     C_3   0.988979 0.339766 0.650072 -0.356146
C49   C     C_3   0.831831 0.807625 0.783524 -0.239626
C50   C     C_3   0.928314 0.821892 0.729603 -0.423395
C51   C     C_3   0.722970 0.498575 0.718943 -0.053228
C52   C     C_R   0.788785 0.133486 0.707937 -0.178574
C53   C     C_R   0.796996 0.134005 0.782439 -0.158442
C54   C     C_R   0.681596 0.158166 0.824062 0.024290
Cr1   Cr    Cr6+3 0.392930 0.397900 0.502230 1.046439
Cr2   Cr    Cr6+3 0.398240 0.708600 0.501260 1.033739
Cr3   Cr    Cr6+3 0.708800 0.393470 0.496460 1.033388
Cr4   Cr    Cr6+3 0.937620 0.938540 0.007640 1.014822
Cr5   Cr    Cr6+3 0.625150 0.937450 0.994520 1.010943
Cr6   Cr    Cr6+3 0.937990 0.625080 0.001190 1.040268
H1    H     H_    0.536269 0.890739 0.794057 0.139324
H2    H     H_    0.471383 0.779554 0.821651 0.131867
H3    H     H_    0.217406 0.850497 0.699182 0.138997
H4    H     H_    0.770593 0.418972 0.291908 0.171942
H5    H     H_    0.776207 0.446124 0.164506 0.136602
H6    H     H_    0.517405 0.895765 0.188856 0.155307
H7    H     H_    0.508279 0.866593 0.318015 0.165408
H8    H     H_    0.444016 0.192761 0.180921 0.163092
H9    H     H_    0.861487 0.129673 0.185116 0.167392
H10   H     H_    0.314209 0.757783 0.299970 0.157735
H11   H     H_    0.463190 0.718226 0.707194 0.144954
H12   H     H_    0.874986 0.633010 0.652609 0.134318
H13   H     H_    0.274697 0.765556 0.173532 0.136193
H14   H     H_    0.035515 0.558108 0.206125 0.151386
H15   H     H_    0.079253 0.546754 0.334323 0.151273
H16   H     H_    0.491466 0.856424 0.679725 0.133909
H17   H     H_    0.728033 0.797140 0.665562 0.101273
H18   H     H_    0.803598 0.440018 0.828754 0.167324
H19   H     H_    0.620262 0.527119 0.823339 0.094809
H20   H     H_    0.637359 0.474742 0.710023 0.107997
H21   H     H_    0.016790 0.256286 0.609475 0.124856
H22   H     H_    0.974565 0.430372 0.619493 0.184255
H23   H     H_    0.882189 0.102315 0.675994 0.110043
H24   H     H_    0.085127 0.297194 0.682301 0.156520
H25   H     H_    0.905657 0.286841 0.741126 0.135865
H26   H     H_    0.820265 0.314329 0.658857 0.190127
H27   H     H_    0.969746 0.883044 0.753523 0.159698
H28   H     H_    0.015866 0.719154 0.713215 0.202237
H29   H     H_    0.872807 0.874642 0.680186 0.144613
H30   H     H_    0.728553 0.904279 0.782062 0.149352
H31   H     H_    0.873946 0.798193 0.837804 0.193254
H32   H     H_    0.896728 0.102669 0.806978 0.122464
H33   H     H_    0.466061 0.201596 0.819429 0.141369
H34   H     H_    0.458261 0.191722 0.693699 0.133983
H35   H     H_    0.330739 0.418385 0.710917 0.143664
H36   H     H_    0.289223 0.442486 0.841550 0.142599
H37   H     H_    0.173081 0.875990 0.824146 0.137237
I1    I     I_    0.018644 0.495536 0.787042 -0.502155
I2    I     I_    0.339900 0.194279 0.322713 -0.380188
I3    I     I_    0.955951 0.101591 0.335749 -0.348147
O1    O     O_R   0.507430 0.255570 0.581420 -0.529223
O2    O     O_R   0.837200 0.593290 0.915250 -0.488383
O3    O     O_R   0.065330 0.635370 0.931590 -0.477286
O4    O     O_R   0.280190 0.527390 0.578910 -0.496250
O5    O     O_R   0.068300 0.828790 0.091860 -0.515202
O6    O     O_R   0.798730 0.057480 0.079370 -0.504383
O7    O     O_R   0.584680 0.080480 0.076790 -0.522290
O8    O     O_R   0.626790 0.809640 0.067050 -0.504565
O9    O     O_R   0.816010 0.596460 0.076500 -0.519371
O10   O     O_R   0.045680 0.638310 0.081070 -0.508278
O11   O     O_3   0.833590 0.833690 0.001120 -0.260304
O12   O     O_R   0.524460 0.695920 0.424060 -0.501613
O13   O     O_R   0.260310 0.739740 0.584580 -0.519434
O14   O     O_R   0.532250 0.695150 0.573830 -0.522907
O15   O     O_R   0.744930 0.503430 0.576380 -0.528259
O16   O     O_R   0.699250 0.276390 0.571950 -0.520939
O17   O     O_R   0.499020 0.256400 0.419850 -0.480136
O18   O     O_R   0.272400 0.528160 0.429140 -0.486752
O19   O     O_R   0.251910 0.740570 0.423020 -0.497756
O20   O     O_R   0.736530 0.504260 0.414810 -0.501661
O21   O     O_R   0.691460 0.277160 0.422180 -0.477054
O22   O     O_3   0.499990 0.499990 0.499980 -0.290331
O23   O     O_R   0.089490 0.825610 0.930610 -0.534200
O24   O     O_R   0.818370 0.054540 0.929880 -0.505550
O25   O     O_R   0.605870 0.077310 0.915530 -0.532252
O26   O     O_R   0.646440 0.806700 0.917570 -0.519224

loop_
_geom_bond_atom_site_label_1
_geom_bond_atom_site_label_2
_ccdc_geom_bond_type
C27   C29   A    
C4    O15   A    
C10   H3    S    
C1    C11   S    
C49   H30   S    
C32   H15   S    
C7    C8    A    
C40   O12   A    
C53   C54   A    
C27   C33   A    
Cr5   O26   S    
C7    H36   S    
C20   I2    S    
C46   C49   S    
C26   C42   S    
C34   C51   S    
C41   O5    A    
C47   H25   S    
C4    O14   A    
C35   O24   A    
C30   C31   A    
C29   H13   S    
C22   C38   S    
C12   H19   S    
C23   C43   S    
C48   H21   S    
C44   H11   S    
C36   O2    A    
C18   C19   A    
C38   O7    A    
C35   O25   A    
C51   H20   S    
C5    C16   S    
Cr6   O9    S    
C50   H29   S    
Cr3   O22   S    
C37   O23   A    
C31   C32   A    
C8    C9    A    
C12   H18   S    
Cr5   O11   S    
Cr2   O13   S    
C30   C41   S    
Cr6   O3    S    
C9    C10   A    
C50   H28   S    
C46   I1    S    
Cr1   O22   S    
C23   C46   S    
C13   C14   A    
C35   C54   S    
C1    O13   A    
C49   H31   S    
Cr6   O2    S    
C16   O16   A    
C24   H9    S    
Cr3   O16   S    
C39   O8    A    
C4    C34   S    
C13   C19   A    
Cr4   O11   S    
C47   H26   S    
C34   C44   S    
C24   C25   A    
Cr3   O15   S    
C2    C54   A    
C6    C11   A    
C37   O3    A    
C31   H14   S    
C47   C51   S    
C25   C26   A    
C45   C46   S    
Cr1   O4    S    
Cr5   O7    S    
C48   H24   S    
Cr4   O6    S    
Cr2   O22   S    
C38   O6    A    
C52   H23   S    
C43   C44   S    
C29   C30   A    
C25   I3    S    
C47   C48   S    
C12   C23   S    
C53   H32   S    
C17   C18   A    
Cr4   O23   S    
C5    C52   A    
C34   C45   S    
C1    O4    A    
C15   C39   S    
C27   H10   S    
C50   H27   S    
Cr3   O20   S    
C40   O20   A    
C28   C33   S    
C23   C36   S    
C41   O10   A    
C21   H8    S    
Cr2   O19   S    
C22   C24   A    
C8    C37   S    
C12   C51   S    
C52   C53   A    
C43   H1    S    
Cr1   O17   S    
C15   C17   A    
C9    H37   S    
C2    H33   S    
C36   O26   A    
C3    C5    A    
C28   O19   A    
C42   O17   A    
C6    C7    A    
Cr5   O25   S    
Cr1   O1    S    
Cr4   O24   S    
Cr5   O8    S    
Cr4   O5    S    
C10   C11   A    
C32   C33   A    
C6    H35   S    
C2    C3    A    
C18   H7    S    
Cr6   O11   S    
C28   O18   A    
C13   H4    S    
C20   C26   A    
C14   H5    S    
C48   H22   S    
C3    H34   S    
C17   H6    S    
Cr6   O10   S    
C19   C40   S    
Cr3   O21   S    
C16   O1    A    
C39   O9    A    
C20   C21   A    
C42   O21   A    
C49   C50   S    
Cr2   O14   S    
C14   C15   A    
C45   H17   S    
C44   H16   S    
C21   C22   A    
Cr2   O12   S    
C43   H2    S    
C45   H12   S    
Cr1   O18   S    
