data_mof_unit_9143.cif
_audit_creation_date              2012-10-26T21:00:45-0400
_audit_creation_method            fapswitch 2.2
_symmetry_space_group_name_H-M    P1
_symmetry_Int_Tables_number       1
_space_group_crystal_system       triclinic
_cell_length_a                    10.832742
_cell_length_b                    9.564799
_cell_length_c                    10.914101
_cell_angle_alpha                 89.998182
_cell_angle_beta                  89.987387
_cell_angle_gamma                 90.03343
_cell_volume                      1130.8425248

loop_
_atom_site_label
_atom_site_type_symbol
_atom_type_description
_atom_site_fract_x
_atom_site_fract_y
_atom_site_fract_z
_atom_type_partial_charge
C1    C     C_R   0.262208 0.499955 0.499986 0.546019
C2    C     C_R   0.489007 0.501401 0.737444 0.554769
C3    C     C_R   0.465680 0.770997 0.123425 0.019450
C4    C     C_R   0.464383 0.770486 0.876189 0.020456
C5    C     C_R   0.520520 0.883805 0.063258 0.084354
C6    C     C_R   0.519681 0.883616 0.935308 0.084859
C7    C     C_R   0.465896 0.638530 0.935298 -0.028288
C8    C     C_R   0.466195 0.638711 0.064640 -0.028459
C9    C     C_R   0.466482 0.508956 0.129117 0.000498
C10   C     C_R   0.466348 0.508785 0.870930 0.000406
C11   C     C_R   0.448258 0.385015 0.063691 -0.122101
C12   C     C_R   0.737796 0.499995 0.500020 0.562948
C13   C     C_R   0.448290 0.384912 0.936464 -0.122092
C14   C     C_R   0.063795 0.373024 0.499796 -0.126493
C15   C     C_R   0.936110 0.373044 0.499825 -0.119195
C16   C     C_R   0.871738 0.500048 0.500027 0.024639
C17   C     C_R   0.128308 0.500002 0.499987 0.025611
C18   C     C_1   0.362749 0.804573 0.202392 0.258397
C19   C     C_1   0.360355 0.803076 0.798411 0.256584
C20   C     C_R   0.936260 0.627049 0.500221 -0.121455
C21   C     C_R   0.063962 0.627028 0.500192 -0.109538
C22   C     C_R   0.391990 0.074018 0.502054 0.044672
C23   C     C_R   0.608142 0.074004 0.497827 0.064903
C24   C     C_R   0.392123 0.926280 0.501861 0.060228
C25   C     C_R   0.608129 0.926026 0.497858 0.049720
C26   C     C_R   0.489086 0.501451 0.262559 0.554626
Cu1   Cu    Cu3+1 0.500000 0.640660 0.500000 0.998047
Cu2   Cu    Cu3+1 0.500000 0.359340 0.500000 0.996130
H1    H     H_    0.436144 0.287017 0.111159 0.177903
H2    H     H_    0.695568 0.872240 0.495950 0.118865
H3    H     H_    0.436243 0.286857 0.889099 0.177857
H4    H     H_    0.111589 0.273662 0.499613 0.127119
H5    H     H_    0.888207 0.273686 0.499681 0.130782
H6    H     H_    0.888459 0.726405 0.500406 0.128561
H7    H     H_    0.111896 0.726373 0.500336 0.145515
H8    H     H_    0.304513 0.127727 0.503789 0.113938
H9    H     H_    0.695612 0.127840 0.495892 0.124089
H10   H     H_    0.304650 0.872644 0.502965 0.146425
I1    I     I_    0.595136 0.049681 0.167969 -0.359659
I2    I     I_    0.593075 0.048868 0.828980 -0.357084
N1    N     N_R   0.500000 0.852070 0.500000 -0.228404
N2    N     N_R   0.500000 0.147940 0.500000 -0.218292
N3    N     N_1   0.278343 0.830890 0.263041 -0.319081
N4    N     N_1   0.275002 0.828457 0.738824 -0.320941
O1    O     O_R   0.319640 0.618740 0.499990 -0.509547
O2    O     O_R   0.680360 0.618740 0.500010 -0.516757
O3    O     O_R   0.319620 0.381170 0.499990 -0.529616
O4    O     O_R   0.680380 0.381170 0.500010 -0.508764
O5    O     O_R   0.500000 0.618810 0.319650 -0.495134
O6    O     O_R   0.500000 0.618810 0.680350 -0.494696
O7    O     O_R   0.499970 0.381240 0.319640 -0.481546
O8    O     O_R   0.500030 0.381240 0.680360 -0.481228

loop_
_geom_bond_atom_site_label_1
_geom_bond_atom_site_label_2
_ccdc_geom_bond_type
C7    C10   A    
C24   H10   S    
Cu2   O3    S    
C21   H7    S    
C11   C13   A    
Cu1   N1    S    
C1    C17   S    
Cu1   O6    S    
C16   C20   A    
C12   O4    A    
C20   H6    S    
Cu1   O1    S    
C23   C25   A    
C7    C8    A    
C23   H9    S    
C18   N3    T    
C19   N4    T    
C24   N1    A    
Cu2   O8    S    
C14   C17   A    
C1    O1    A    
C22   N2    A    
C23   N2    A    
C2    O8    A    
C4    C7    A    
C9    C11   A    
Cu1   O2    S    
Cu2   N2    S    
C13   H3    S    
C9    C26   S    
C6    I2    S    
C5    I1    S    
C5    C6    A    
Cu2   O7    S    
C22   C24   A    
C4    C6    A    
C15   C16   A    
C2    C10   S    
Cu1   O5    S    
Cu1   Cu2   S    
C22   H8    S    
C20   C21   A    
C11   H1    S    
C3    C18   S    
C12   O2    A    
C3    C8    A    
C26   O5    A    
C25   N1    A    
C25   H2    S    
C14   C15   A    
Cu2   O4    S    
C2    O6    A    
C26   O7    A    
C4    C19   S    
C15   H5    S    
C1    O3    A    
C12   C16   S    
C14   H4    S    
C8    C9    A    
C3    C5    A    
C10   C13   A    
C17   C21   A    
