data_mof_unit_41236.cif
_audit_creation_date              2012-12-11T15:55:51-0500
_audit_creation_method            fapswitch 2.2
_symmetry_space_group_name_H-M    P1
_symmetry_Int_Tables_number       1
_space_group_crystal_system       triclinic
_cell_length_a                    11.053619
_cell_length_b                    11.086796
_cell_length_c                    18.759742
_cell_angle_alpha                 90.84654
_cell_angle_beta                  91.159021
_cell_angle_gamma                 59.072311
_cell_volume                      1971.68415964

loop_
_atom_site_label
_atom_site_type_symbol
_atom_type_description
_atom_site_fract_x
_atom_site_fract_y
_atom_site_fract_z
_atom_type_partial_charge
C1    C     C_R   0.362163 0.761177 0.394286 0.540907
C2    C     C_R   0.638319 0.119294 0.170546 0.034535
C3    C     C_R   0.370364 0.331267 0.159951 0.023339
C4    C     C_R   0.481047 0.238962 0.273606 -0.175753
C5    C     C_R   0.492516 0.230117 0.199498 -0.071712
C6    C     C_R   0.056144 0.635548 0.353936 -0.091815
C7    C     C_R   0.920781 0.705797 0.381599 -0.126058
C8    C     C_R   0.667287 0.006510 0.122601 -0.086705
C9    C     C_R   0.804197 0.904653 0.103722 -0.129717
C10   C     C_R   0.258438 0.446492 0.195418 0.304509
C11   C     C_R   0.242583 0.447106 0.269446 -0.030609
C12   C     C_R   0.383872 0.354433 0.387222 0.544910
C13   C     C_R   0.814871 0.695074 0.347184 -0.087441
C14   C     C_R   0.842141 0.624163 0.282481 -0.103628
C15   C     C_R   0.980640 0.541876 0.259069 -0.044490
C16   C     C_R   0.093651 0.539433 0.296837 0.042392
C17   C     C_R   0.360746 0.343207 0.309900 -0.055176
C18   C     C_R   0.865047 0.332221 0.183432 0.019191
C19   C     C_R   0.959882 0.238504 0.233784 0.010988
C20   C     C_R   0.928841 0.250712 0.304425 -0.010811
C21   C     C_R   0.694502 0.440030 0.277215 -0.159152
C22   C     C_R   0.726413 0.427196 0.204277 -0.184920
C23   C     C_R   0.771759 0.381285 0.402037 0.550838
C24   C     C_3   0.112354 0.179552 0.248339 -0.277467
C25   C     C_3   0.076876 0.197427 0.327455 -0.293980
C26   C     C_R   0.801975 0.359825 0.327840 0.036352
C27   C     C_R   0.372315 0.815390 0.170429 -0.005512
C28   C     C_R   0.457315 0.840097 0.218054 -0.008075
C29   C     C_R   0.448324 0.828669 0.291193 0.008111
C30   C     C_R   0.302565 0.730732 0.270424 -0.163412
C31   C     C_R   0.310993 0.742178 0.197101 -0.162595
C32   C     C_3   0.472237 0.964423 0.229708 -0.275414
C33   C     C_3   0.451760 0.958013 0.308297 -0.282561
C34   C     C_R   0.348243 0.761169 0.606771 0.548545
C35   C     C_R   0.360863 0.786269 0.318497 0.004011
C36   C     C_R   0.322851 0.329516 0.817965 0.018683
C37   C     C_R   0.444598 0.231206 0.781862 0.035633
C38   C     C_R   0.452865 0.237909 0.710032 0.040201
C39   C     C_R   0.230629 0.456089 0.707049 -0.158913
C40   C     C_R   0.221290 0.449941 0.781278 -0.170226
C41   C     C_3   0.522761 0.073102 0.779253 -0.267484
C42   C     C_3   0.531423 0.082594 0.699513 -0.282596
C43   C     C_R   0.342470 0.342554 0.670404 0.017464
C44   C     C_R   0.801063 0.344557 0.838163 0.016524
C45   C     C_R   0.371872 0.352620 0.596971 0.549993
C46   C     C_R   0.774658 0.466178 0.801688 0.034569
C47   C     C_R   0.764929 0.471701 0.728967 0.040808
C48   C     C_R   0.772959 0.251290 0.724974 -0.160313
C49   C     C_R   0.784181 0.243984 0.799947 -0.167656
C50   C     C_3   0.851961 0.545573 0.801563 -0.267229
C51   C     C_3   0.840797 0.549364 0.721447 -0.281447
C52   C     C_R   0.777147 0.360058 0.688889 0.015929
C53   C     C_R   0.317318 0.814423 0.831859 0.017208
C54   C     C_R   0.219629 0.795804 0.792204 0.025885
C55   C     C_R   0.228872 0.783214 0.719070 0.042285
C56   C     C_R   0.755254 0.381043 0.612454 0.545706
C57   C     C_R   0.446188 0.783264 0.723247 -0.162831
C58   C     C_R   0.439320 0.792034 0.797566 -0.160172
C59   C     C_3   0.062320 0.883568 0.788525 -0.273256
C60   C     C_3   0.072931 0.868932 0.708221 -0.279504
C61   C     C_R   0.334667 0.789654 0.682904 0.014952
C62   C     C_R   0.910586 0.316249 0.111130 0.541647
C63   C     C_R   0.332417 0.295421 0.090774 0.570963
C64   C     C_R   0.310960 0.895825 0.104534 0.535476
C65   C     C_R   0.878347 0.312253 0.906038 0.539405
C66   C     C_R   0.297297 0.290011 0.886669 0.547504
C67   C     C_R   0.918283 0.902920 0.136450 -0.049324
C68   C     C_R   0.277550 0.890257 0.899339 0.544996
C69   C     C_R   0.895466 0.001681 0.188839 -0.083481
C70   C     C_R   0.758017 0.109331 0.204670 -0.103862
Cr1   Cr    Cr6+3 0.601740 0.606840 0.505840 1.001155
Cr2   Cr    Cr6+3 0.291500 0.601560 0.495070 0.989564
Cr3   Cr    Cr6+3 0.606780 0.291630 0.499130 1.007110
Cr4   Cr    Cr6+3 0.062440 0.063060 0.008240 1.016194
Cr5   Cr    Cr6+3 0.062950 0.375000 0.998920 1.039525
Cr6   Cr    Cr6+3 0.374550 0.061770 0.992470 0.986439
H1    H     H_    0.570851 0.159872 0.303771 0.158841
H2    H     H_    0.712029 0.743221 0.370207 0.139830
H3    H     H_    0.755958 0.632258 0.251000 0.132984
H4    H     H_    0.998637 0.482381 0.210440 0.177826
H5    H     H_    0.589447 0.516361 0.294401 0.136673
H6    H     H_    0.646399 0.494009 0.165651 0.128347
H7    H     H_    0.152478 0.246422 0.229216 0.124698
H8    H     H_    0.173102 0.068075 0.231455 0.154581
H9    H     H_    0.121670 0.096146 0.356350 0.140216
H10   H     H_    0.091269 0.279315 0.354407 0.148174
H11   H     H_    0.247405 0.681761 0.289077 0.149096
H12   H     H_    0.821784 0.820891 0.067103 0.117688
H13   H     H_    0.255259 0.708884 0.161864 0.190220
H14   H     H_    0.389250 0.060141 0.202436 0.152927
H15   H     H_    0.582945 0.932992 0.221865 0.149722
H16   H     H_    0.542599 0.943070 0.340926 0.130632
H17   H     H_    0.351063 0.045496 0.328041 0.143904
H18   H     H_    0.150183 0.547242 0.678552 0.131267
H19   H     H_    0.132267 0.534305 0.808724 0.118164
H20   H     H_    0.455715 0.030107 0.794037 0.164932
H21   H     H_    0.627260 0.024793 0.806820 0.128672
H22   H     H_    0.640738 0.041183 0.680924 0.135688
H23   H     H_    0.897340 0.771761 0.428525 0.098609
H24   H     H_    0.469439 0.045541 0.668758 0.135528
H25   H     H_    0.767355 0.169602 0.695562 0.132442
H26   H     H_    0.792091 0.154493 0.826863 0.122413
H27   H     H_    0.963034 0.481510 0.819832 0.174661
H28   H     H_    0.790612 0.651219 0.826787 0.123009
H29   H     H_    0.773679 0.657043 0.699996 0.133873
H30   H     H_    0.944248 0.485263 0.694955 0.139019
H31   H     H_    0.535442 0.777244 0.697365 0.131256
H32   H     H_    0.521910 0.796901 0.827066 0.125081
H33   H     H_    0.023817 0.992420 0.807105 0.163051
H34   H     H_    0.023851 0.820718 0.123580 0.181340
H35   H     H_    0.010931 0.830384 0.812548 0.129285
H36   H     H_    0.028693 0.806175 0.685711 0.132188
H37   H     H_    0.038471 0.969772 0.680493 0.137272
H38   H     H_    0.984960 0.992351 0.218146 0.130250
H39   H     H_    0.744361 0.180824 0.247263 0.131836
H40   H     H_    0.125812 0.664356 0.376060 0.183803
H41   H     H_    0.590919 0.979207 0.106222 0.171510
O1    O     O_R   0.748670 0.497520 0.427970 -0.518849
O2    O     O_R   0.300170 0.471020 0.567120 -0.507253
O3    O     O_R   0.491630 0.259030 0.574940 -0.519048
O4    O     O_R   0.718640 0.304340 0.577850 -0.509069
O5    O     O_3   0.500010 0.500010 0.500020 -0.253613
O6    O     O_R   0.186620 0.923750 0.087000 -0.527742
O7    O     O_R   0.957350 0.194160 0.084660 -0.490007
O8    O     O_R   0.935120 0.407280 0.085350 -0.514354
O9    O     O_R   0.203800 0.365060 0.067090 -0.429244
O10   O     O_R   0.417470 0.174910 0.067830 -0.559330
O11   O     O_R   0.375160 0.946380 0.070880 -0.516701
O12   O     O_R   0.476470 0.723930 0.429450 -0.502901
O13   O     O_R   0.160500 0.919670 0.926690 -0.516542
O14   O     O_R   0.933140 0.190380 0.936050 -0.505074
O15   O     O_R   0.909010 0.403210 0.925030 -0.530264
O16   O     O_R   0.179590 0.361290 0.918480 -0.514342
O17   O     O_R   0.391360 0.170840 0.907510 -0.525189
O18   O     O_R   0.350950 0.942600 0.922260 -0.513720
O19   O     O_3   0.166650 0.166610 0.999880 -0.255739
O20   O     O_R   0.264730 0.744140 0.416740 -0.555307
O21   O     O_R   0.309440 0.472410 0.418220 -0.523745
O22   O     O_R   0.501630 0.260530 0.414310 -0.524157
O23   O     O_R   0.727920 0.305730 0.428950 -0.504789
O24   O     O_R   0.738670 0.496020 0.588600 -0.518709
O25   O     O_R   0.467190 0.722540 0.578350 -0.508035
O26   O     O_R   0.254720 0.742640 0.577370 -0.517501
F1    F     F_    0.154295 0.553158 0.156368 -0.679434

loop_
_geom_bond_atom_site_label_1
_geom_bond_atom_site_label_2
_ccdc_geom_bond_type
C44   C49   A    
Cr2   O26   S    
Cr4   O7    S    
C21   C26   A    
C50   H28   S    
C41   C42   S    
C54   C55   A    
Cr1   O5    S    
C19   C20   A    
C23   O1    A    
C62   O7    A    
Cr6   O19   S    
C53   C54   A    
C7    H23   S    
C30   C35   A    
C22   H6    S    
C21   C22   A    
C36   C37   A    
C24   H7    S    
C38   C42   S    
C1    O12   A    
C42   H22   S    
C9    H12   S    
C30   C31   A    
C36   C66   S    
C32   H15   S    
C20   C25   S    
C15   C16   A    
C29   C33   S    
C18   C19   A    
C23   C26   S    
C4    H1    S    
C53   C68   S    
C36   C40   A    
C7    C13   A    
C66   O17   A    
C32   H14   S    
C8    C9    A    
C31   H13   S    
Cr4   O19   S    
C12   C17   S    
C59   H35   S    
C58   H32   S    
Cr1   O24   S    
C45   O2    A    
Cr2   O21   S    
Cr4   O6    S    
C59   C60   S    
Cr3   O3    S    
C13   C14   A    
C44   C65   S    
C65   O14   A    
Cr6   O18   S    
C44   C46   A    
C8    H41   S    
C54   C59   S    
C34   O26   A    
Cr4   O14   S    
C69   H38   S    
C27   C31   A    
C23   O23   A    
C28   C32   S    
C24   C25   S    
C10   C11   A    
C33   H16   S    
C49   H26   S    
Cr6   O17   S    
Cr5   O19   S    
C18   C62   S    
C39   C43   A    
Cr3   O22   S    
C64   O11   A    
C34   C61   S    
C33   H17   S    
Cr5   O8    S    
C9    C67   A    
C39   H18   S    
C37   C38   A    
C60   H36   S    
C42   H24   S    
Cr1   O12   S    
C66   O16   A    
C34   O25   A    
C11   C16   S    
C67   H34   S    
C15   H4    S    
C48   C52   A    
C51   H29   S    
C60   H37   S    
C25   H9    S    
C50   C51   S    
C12   O22   A    
C10   F1    S    
C14   H3    S    
C68   O13   A    
C43   C45   S    
C6    H40   S    
C47   C52   A    
Cr1   O25   S    
C56   O24   A    
C45   O3    A    
Cr2   O20   S    
C57   H31   S    
C21   H5    S    
Cr3   O4    S    
Cr4   O13   S    
Cr6   O11   S    
C12   O21   A    
C2    C5    S    
C4    C17   A    
C40   H19   S    
C39   C40   A    
C65   O15   A    
C1    O20   A    
Cr5   O15   S    
C1    C35   S    
C46   C50   S    
C46   C47   A    
C28   C29   A    
Cr1   O1    S    
Cr2   O5    S    
C18   C22   A    
C68   O18   A    
C2    C8    A    
C4    C5    A    
C3    C5    A    
C11   C17   A    
C62   O8    A    
C47   C51   S    
C53   C58   A    
Cr5   O16   S    
C57   C61   A    
C6    C7    A    
Cr3   O23   S    
C3    C63   S    
C70   H39   S    
C64   O6    A    
C29   C35   A    
Cr5   O9    S    
C32   C33   S    
C19   C24   S    
C24   H8    S    
C38   C43   A    
C3    C10   A    
C2    C70   A    
C56   O4    A    
C57   C58   A    
C20   C26   A    
C51   H30   S    
C48   C49   A    
C48   H25   S    
C55   C61   A    
Cr2   O2    S    
C25   H10   S    
C59   H33   S    
C41   H21   S    
C37   C41   S    
C69   C70   A    
C63   O9    A    
C27   C64   S    
C13   H2    S    
C6    C16   A    
C41   H20   S    
C50   H27   S    
Cr3   O5    S    
C27   C28   A    
Cr6   O10   S    
C14   C15   A    
C67   C69   A    
C30   H11   S    
C55   C60   S    
C63   O10   A    
C52   C56   S    
