data_mof_unit_26560.cif
_audit_creation_date              2013-03-05T15:48:07-0500
_audit_creation_method            fapswitch 2.2
_symmetry_space_group_name_H-M    P1
_symmetry_Int_Tables_number       1
_space_group_crystal_system       triclinic
_cell_length_a                    15.047659
_cell_length_b                    13.000133
_cell_length_c                    11.732271
_cell_angle_alpha                 100.873046
_cell_angle_beta                  94.024226
_cell_angle_gamma                 90.941639
_cell_volume                      2247.29427984

loop_
_atom_site_label
_atom_site_type_symbol
_atom_site_description
_atom_site_fract_x
_atom_site_fract_y
_atom_site_fract_z
_atom_type_partial_charge
O1    O     O_R   0.504720 0.354460 0.582000 -0.578477
O2    O     O_R   0.495280 0.645540 0.418000 -0.590246
O3    O     O_R   0.493480 0.341410 0.386200 -0.611649
O4    O     O_R   0.506520 0.658590 0.613800 -0.528901
C1    C     C_R   0.500517 0.298873 0.477314 0.815618
C2    C     C_R   0.500653 0.701102 0.522627 0.853924
O5    O     O_R   0.375880 0.506510 0.597910 -0.586488
O6    O     O_R   0.624120 0.493490 0.402090 -0.596425
O7    O     O_R   0.364640 0.493450 0.402110 -0.588616
O8    O     O_R   0.635360 0.506550 0.597890 -0.552566
C3    C     C_R   0.329017 0.502284 0.500199 0.820498
C4    C     C_R   0.670962 0.497787 0.499800 0.822431
Cu1   Cu    Cu3+1 0.506660 0.507730 0.615930 0.974441
Cu2   Cu    Cu3+1 0.493340 0.492270 0.384070 0.931031
C5    C     C_R   0.810621 0.566371 0.446274 -0.268391
C6    C     C_R   0.189202 0.432316 0.551977 -0.272092
C7    C     C_R   0.767436 0.494909 0.500168 -0.105300
C8    C     C_R   0.232483 0.504868 0.499621 -0.106546
C9    C     C_R   0.816221 0.423505 0.555022 -0.070120
C10   C     C_R   0.183650 0.576435 0.445064 -0.070347
C11   C     C_R   0.909857 0.423549 0.552643 0.070504
C12   C     C_R   0.089905 0.575205 0.445771 0.070231
C13   C     C_R   0.953089 0.497724 0.499282 0.051671
C14   C     C_R   0.046655 0.500527 0.498379 0.052530
C15   C     C_R   0.903022 0.569666 0.447368 0.119231
C16   C     C_R   0.096731 0.428545 0.550206 0.120435
C17   C     C_R   0.961512 0.351430 0.601952 -0.220429
C18   C     C_R   0.038207 0.647136 0.396161 -0.221158
C19   C     C_R   0.053715 0.353389 0.599396 -0.229449
C20   C     C_R   0.945968 0.644597 0.397813 -0.227654
H1    H     H_    0.771911 0.621222 0.405565 0.150782
H2    H     H_    0.227915 0.377286 0.592394 0.149625
H3    H     H_    0.931310 0.292720 0.642487 0.159005
H4    H     H_    0.068399 0.706245 0.356195 0.158733
H5    H     H_    0.091557 0.295786 0.635935 0.147302
H6    H     H_    0.908074 0.701941 0.360869 0.148479
C21   C     C_R   0.499506 0.815280 0.537749 -0.093980
C22   C     C_R   0.503803 0.184685 0.462377 -0.136253
C23   C     C_R   0.538796 0.012858 0.354846 0.164611
C24   C     C_R   0.467194 0.987340 0.647250 0.103962
C25   C     C_R   0.533426 0.121224 0.361055 0.089402
C26   C     C_R   0.472268 0.878273 0.640191 0.099328
C27   C     C_R   0.480712 0.139091 0.555345 -0.257338
C28   C     C_R   0.522871 0.860804 0.445058 -0.285229
C29   C     C_R   0.488051 0.031818 0.551372 0.070720
C30   C     C_R   0.516807 0.968239 0.449978 0.049777
H7    H     H_    0.544818 0.811290 0.367765 0.202912
H8    H     H_    0.457780 0.188402 0.632117 0.202095
N1    N     N_R   0.516670 0.519360 0.790130 -0.176607
N2    N     N_R   0.483330 0.480640 0.209870 -0.197939
C31   C     C_R   0.406820 0.413740 0.019274 -0.092668
C32   C     C_R   0.594747 0.587374 0.978413 -0.146058
C33   C     C_R   0.416435 0.419354 0.140878 0.313701
C34   C     C_R   0.581928 0.583041 0.856057 0.336894
C35   C     C_R   0.542010 0.535353 0.157567 -0.001310
C36   C     C_R   0.460109 0.463033 0.842131 -0.012816
C37   C     C_R   0.535592 0.530725 0.034297 -0.028609
C38   C     C_R   0.466870 0.468896 0.964762 -0.058297
H9    H     H_    0.409589 0.413329 0.787138 0.145880
H10   H     H_    0.593318 0.583911 0.212402 0.150860
C39   C     C_R   0.328334 0.355620 0.952733 0.116697
C40   C     C_R   0.325076 0.245668 0.928870 -0.107913
C41   C     C_R   0.247588 0.191404 0.875268 -0.130137
C42   C     C_R   0.173159 0.246570 0.845872 -0.127520
C43   C     C_R   0.176255 0.356144 0.869214 -0.145492
C44   C     C_R   0.253664 0.410663 0.922243 -0.157251
H11   H     H_    0.381809 0.202388 0.953711 0.127620
H12   H     H_    0.244660 0.106628 0.858044 0.115708
H13   H     H_    0.112907 0.204364 0.805703 0.119894
H14   H     H_    0.118366 0.398896 0.847475 0.140962
H15   H     H_    0.254895 0.495535 0.941908 0.123044
C45   C     C_R   0.673754 0.644848 0.043673 0.080865
C46   C     C_R   0.749030 0.589207 0.070659 -0.158139
C47   C     C_R   0.826739 0.643043 0.123743 -0.143101
C48   C     C_R   0.829598 0.752544 0.150399 -0.128364
C49   C     C_R   0.754533 0.808277 0.124763 -0.122104
C50   C     C_R   0.676573 0.754692 0.071701 -0.148443
H16   H     H_    0.747968 0.504418 0.048445 0.123467
H17   H     H_    0.885010 0.599892 0.143083 0.139653
H18   H     H_    0.890099 0.794264 0.190450 0.119165
H19   H     H_    0.757317 0.893018 0.144647 0.120321
H20   H     H_    0.619155 0.798510 0.050446 0.126543
C51   C     C_R   0.769246 0.347894 0.611867 0.103030
C52   C     C_R   0.746091 0.246698 0.550020 -0.186612
C53   C     C_R   0.704128 0.174628 0.604814 -0.125138
C54   C     C_R   0.683275 0.203899 0.720535 -0.097674
C55   C     C_R   0.705993 0.304746 0.782447 -0.136325
C56   C     C_R   0.749916 0.376218 0.728822 -0.091267
H21   H     H_    0.761225 0.223560 0.460041 0.129366
H22   H     H_    0.687158 0.096290 0.557269 0.140615
H23   H     H_    0.649674 0.148364 0.762201 0.131222
H24   H     H_    0.690063 0.327354 0.872129 0.120614
H25   H     H_    0.768486 0.453585 0.777972 0.117725
C57   C     C_R   0.230560 0.654481 0.391586 0.110792
C58   C     C_R   0.243089 0.633484 0.272049 -0.114371
C59   C     C_R   0.285514 0.708164 0.221354 -0.133262
C60   C     C_R   0.313084 0.805284 0.288947 -0.096869
C61   C     C_R   0.298498 0.827594 0.407334 -0.131230
C62   C     C_R   0.258506 0.751973 0.459087 -0.170061
H26   H     H_    0.219414 0.559894 0.218214 0.115272
H27   H     H_    0.296035 0.691203 0.129448 0.120945
H28   H     H_    0.345233 0.863491 0.249538 0.128744
H29   H     H_    0.318596 0.903364 0.459163 0.139546
H30   H     H_    0.248121 0.769794 0.551062 0.126786
N3    N     N_3   0.446903 0.830973 0.734682 -0.570779
H31   H     H_    0.487130 0.862982 0.809652 0.207304
H32   H     H_    0.380423 0.847362 0.749129 0.203443
N4    N     N_3   0.561793 0.164322 0.265119 -0.615395
H33   H     H_    0.507211 0.195983 0.225414 0.237182
H34   H     H_    0.611267 0.222324 0.295631 0.233253
N5    N     N_3   0.567566 0.947882 0.251931 -0.618005
H35   H     H_    0.630973 0.974648 0.237866 0.230973
H36   H     H_    0.523888 0.956624 0.181289 0.222928
N6    N     N_3   0.440255 0.053156 0.750830 -0.629901
H37   H     H_    0.376726 0.028402 0.766796 0.209904
H38   H     H_    0.484897 0.045282 0.820794 0.209797
N7    N     N_3   0.637573 0.645265 0.799616 -0.519604
H39   H     H_    0.704252 0.628449 0.817319 0.197812
H40   H     H_    0.628216 0.724354 0.833333 0.196503
N8    N     N_3   0.351262 0.361463 0.188740 -0.604327
H41   H     H_    0.301565 0.410022 0.223203 0.237508
H42   H     H_    0.379174 0.316802 0.245582 0.249425

loop_
_geom_bond_atom_site_label_1
_geom_bond_atom_site_label_2
_geom_bond_distance
_ccdc_geom_bond_type
C55   C56   1.398101 A    
C3    C8    1.453122 S    
C25   N4    1.435431 S    
C17   C19   1.389780 A    
C46   C47   1.396966 A    
C58   C59   1.398081 A    
C31   C39   1.481179 S    
C48   C49   1.397402 A    
N6    H37   1.044157 S    
C33   N8    1.433853 S    
C23   C25   1.400841 A    
C53   C54   1.398334 A    
C17   H3    1.082174 S    
O5    C3    1.294594 A    
N3    H32   1.045006 S    
C45   C50   1.402850 A    
C40   H11   1.083065 S    
O1    C1    1.299015 A    
C57   C62   1.402645 A    
C9    C11   1.411233 A    
C14   C16   1.409517 A    
C54   H23   1.082441 S    
N7    H40   1.045255 S    
C5    C15   1.389460 A    
N1    C34   1.368580 A    
C61   C62   1.397962 A    
O4    Cu1   1.966101 S    
N4    H33   1.044390 S    
C21   C26   1.411376 A    
C56   H25   1.082370 S    
C39   C44   1.403242 A    
C24   N6    1.435779 S    
C44   H15   1.083348 S    
C28   C30   1.391723 A    
C4    C7    1.452515 S    
C13   C14   1.408657 A    
C27   H8    1.083677 S    
C60   H28   1.082483 S    
C28   H7    1.083755 S    
C24   C26   1.408269 A    
C62   H30   1.083067 S    
C11   C17   1.408307 A    
C18   H4    1.082180 S    
C12   C18   1.408578 A    
Cu1   Cu2   2.682571 S    
O2    C2    1.297958 A    
C9    C51   1.483679 S    
C32   C34   1.425256 A    
C60   C61   1.397983 A    
C36   C38   1.422669 A    
C6    C16   1.390087 A    
C24   C29   1.409659 A    
N2    C33   1.385347 A    
C47   C48   1.397930 A    
C59   H27   1.082473 S    
C49   C50   1.398581 A    
C22   C25   1.417348 A    
O4    C2    1.291819 A    
C58   H26   1.081823 S    
C29   C30   1.413699 A    
C46   H16   1.083342 S    
C31   C33   1.411778 A    
O7    Cu2   1.962871 S    
C40   C41   1.398354 A    
C32   C45   1.478205 S    
O7    C3    1.289815 A    
C51   C52   1.402826 A    
O6    C4    1.294316 A    
C59   C60   1.397832 A    
C2    C21   1.461826 S    
C57   C58   1.404020 A    
N5    H36   1.045627 S    
C31   C38   1.404456 A    
C42   H13   1.082260 S    
C52   C53   1.398055 A    
C27   C29   1.393002 A    
O3    Cu2   1.966102 S    
O8    C4    1.289744 A    
C23   C30   1.407625 A    
Cu1   N1    2.015436 S    
C10   C12   1.411096 A    
C1    C22   1.463650 S    
C47   H17   1.082261 S    
C35   C37   1.432463 A    
C12   C14   1.417273 A    
O1    Cu1   1.956197 S    
C52   H21   1.083035 S    
C55   H24   1.082565 S    
N8    H41   1.040624 S    
N8    H42   1.035868 S    
C48   H18   1.082294 S    
C15   C20   1.396511 A    
C5    C7    1.394487 A    
C10   C57   1.483292 S    
C41   H12   1.081910 S    
O6    Cu2   1.963932 S    
N5    H35   1.044751 S    
C54   C55   1.398014 A    
C45   C46   1.403398 A    
O3    C1    1.291806 A    
O8    Cu1   1.962871 S    
C49   H19   1.081647 S    
N6    H38   1.045032 S    
C53   H22   1.081969 S    
C5    H1    1.085813 S    
C6    H2    1.085766 S    
N1    C36   1.361515 A    
N3    H31   1.045050 S    
C19   H5    1.081510 S    
N2    C35   1.371939 A    
C36   H9    1.081416 S    
C20   H6    1.081643 S    
C42   C43   1.398259 A    
C21   C28   1.395025 A    
C11   C13   1.417486 A    
C22   C27   1.397165 A    
N7    H39   1.045359 S    
C23   N5    1.435063 S    
C37   C38   1.409907 A    
Cu2   N2    2.015434 S    
C50   H20   1.082910 S    
C18   C20   1.389402 A    
C7    C9    1.412873 A    
N4    H34   1.045580 S    
C51   C56   1.404246 A    
C8    C10   1.412941 A    
C13   C15   1.409585 A    
C39   C40   1.403114 A    
O2    Cu2   1.956198 S    
C26   N3    1.435839 S    
C32   C37   1.416719 A    
C41   C42   1.397543 A    
O5    Cu1   1.963929 S    
C16   C19   1.396784 A    
C6    C8    1.394845 A    
C43   C44   1.396802 A    
C34   N7    1.432342 S    
C43   H14   1.082106 S    
C35   H10   1.081436 S    
C61   H29   1.081623 S    
