data_mof_unit_20108.cif
_audit_creation_date              2013-03-05T16:25:58-0500
_audit_creation_method            fapswitch 2.2
_symmetry_space_group_name_H-M    P1
_symmetry_Int_Tables_number       1
_space_group_crystal_system       triclinic
_cell_length_a                    18.441459
_cell_length_b                    18.514689
_cell_length_c                    18.357649
_cell_angle_alpha                 120.355616
_cell_angle_beta                  89.830132
_cell_angle_gamma                 120.280062
_cell_volume                      4395.93020755

loop_
_atom_site_label
_atom_site_type_symbol
_atom_site_description
_atom_site_fract_x
_atom_site_fract_y
_atom_site_fract_z
_atom_type_partial_charge
Zn1   Zn    Zn3+2 0.956630 0.413250 0.869870 1.001598
Zn2   Zn    Zn3+2 0.130130 0.586750 0.043370 1.099206
Zn3   Zn    Zn3+2 0.956630 0.413250 0.043380 1.001407
Zn4   Zn    Zn3+2 0.956610 0.586750 0.043370 1.105973
O1    O     O_3   0.000000 0.500000 0.000000 -0.540659
O2    O     O_R   0.055050 0.731580 0.115780 -0.589778
O3    O     O_R   0.884220 0.268410 0.823490 -0.649591
O4    O     O_R   0.176520 0.560720 0.944920 -0.587522
O5    O     O_R   0.884200 0.439290 0.115800 -0.616037
O6    O     O_R   0.176530 0.560720 0.115800 -0.578585
O7    O     O_R   0.884180 0.560710 0.944910 -0.602640
O8    O     O_R   0.055100 0.439290 0.115810 -0.661212
O9    O     O_R   0.884190 0.439280 0.823480 -0.636641
O10   O     O_R   0.055090 0.439280 0.823480 -0.654836
O11   O     O_R   0.884180 0.560710 0.115790 -0.596749
O12   O     O_R   0.176500 0.731590 0.115790 -0.589515
O13   O     O_R   0.884220 0.268420 0.944930 -0.660628
C1    C     C_R   0.140404 0.780251 0.140152 0.901571
C2    C     C_R   0.859528 0.219742 0.859064 0.864542
C3    C     C_R   0.139925 0.500189 0.859947 0.869862
C4    C     C_R   0.858789 0.498472 0.138365 0.922001
C5    C     C_R   0.139808 0.498607 0.138388 0.873968
C6    C     C_R   0.858427 0.497812 0.859275 0.928290
C7    C     C_R   0.721524 0.534764 0.911201 0.228594
C8    C     C_R   0.704715 0.609036 0.963211 0.186555
C9    C     C_R   0.704162 0.666119 0.934005 0.242937
C10   C     C_R   0.703992 0.634998 0.846518 -0.178278
H1    H     H_    0.701420 0.678113 0.824701 0.261984
C11   C     C_R   0.716079 0.557035 0.792401 -0.050955
C12   C     C_R   0.744018 0.525218 0.834090 -0.070893
C13   C     C_R   0.799383 0.493128 0.801154 -0.191538
C14   C     C_R   0.807156 0.470007 0.716580 0.191531
C15   C     C_R   0.755082 0.471942 0.663367 0.196403
C16   C     C_R   0.707420 0.514101 0.700368 -0.197244
C17   C     C_R   0.776867 0.049323 0.706726 -0.131272
C18   C     C_R   0.802762 0.107411 0.801336 -0.084658
C19   C     C_R   0.780133 0.056238 0.842454 -0.278510
H2    H     H_    0.802494 0.099699 0.914796 0.197675
C20   C     C_R   0.735085 0.949909 0.792528 0.294651
C21   C     C_R   0.709523 0.891910 0.697763 -0.167042
C22   C     C_R   0.737197 0.943809 0.657155 -0.129114
C23   C     C_3   0.805449 0.954465 0.609256 0.585240
C24   C     C_3   0.834181 0.064229 0.649586 0.772080
C25   C     C_R   0.779300 0.564967 0.227181 0.021681
C26   C     C_R   0.795683 0.490326 0.186485 -0.173250
C27   C     C_R   0.748050 0.405999 0.192062 0.370684
C28   C     C_R   0.703453 0.411811 0.255056 0.184503
C29   C     C_R   0.690275 0.491518 0.298005 -0.227735
C30   C     C_R   0.722193 0.560856 0.275427 -0.044707
C31   C     C_3   0.771168 0.675046 0.334371 -0.372187
C32   C     C_3   0.837788 0.680640 0.284472 0.197023
H3    H     H_    0.731456 0.699367 0.321604 0.256612
H4    H     H_    0.798092 0.707915 0.405859 0.199974
H5    H     H_    0.841032 0.714009 0.247530 0.208502
C33   C     C_R   0.159809 0.947180 0.212370 -0.158587
C34   C     C_R   0.196898 0.892097 0.188583 -0.164969
C35   C     C_R   0.291343 0.950066 0.210036 0.349766
C36   C     C_R   0.341189 0.055807 0.246326 0.372936
C37   C     C_R   0.303761 0.109970 0.288452 -0.217054
C38   C     C_R   0.211552 0.051887 0.262098 -0.204427
C39   C     C_3   0.135292 0.059784 0.278719 0.634115
C40   C     C_3   0.075446 0.939565 0.223495 0.379805
C41   C     C_R   0.285534 0.549602 0.212520 -0.119869
C42   C     C_R   0.194075 0.495332 0.191886 -0.041091
C43   C     C_R   0.155391 0.441520 0.229917 -0.311384
H6    H     H_    0.084383 0.400868 0.217101 0.181758
C44   C     C_R   0.208132 0.442495 0.286819 0.487350
C45   C     C_R   0.302971 0.505049 0.310355 -0.144685
C46   C     C_R   0.338812 0.564995 0.277488 -0.236202
C47   C     C_3   0.422960 0.647029 0.277351 0.783542
C48   C     C_3   0.358995 0.626739 0.202672 0.438764
C49   C     C_R   0.286414 0.546910 0.839374 0.017156
C50   C     C_R   0.194962 0.497181 0.803660 -0.074614
C51   C     C_R   0.155749 0.440465 0.710736 -0.322480
H7    H     H_    0.084506 0.398024 0.680508 0.198659
C52   C     C_R   0.208612 0.444130 0.656259 0.499667
C53   C     C_R   0.301969 0.498199 0.694024 -0.147277
C54   C     C_R   0.338249 0.546905 0.785180 -0.112324
C55   C     C_3   0.415736 0.654790 0.856674 0.396807
C56   C     C_3   0.359212 0.653778 0.918819 0.222739
H8    H     H_    0.379483 0.650542 0.973465 0.183431
Zn5   Zn    Zn3+2 0.543330 0.586660 0.630080 1.069846
Zn6   Zn    Zn3+2 0.543320 0.586660 0.456570 0.949559
Zn7   Zn    Zn3+2 0.369830 0.413160 0.456580 1.017812
Zn8   Zn    Zn3+2 0.543350 0.413170 0.456590 1.045939
O14   O     O_3   0.499960 0.499910 0.499960 -0.534756
O15   O     O_R   0.615770 0.439200 0.384160 -0.597409
O16   O     O_R   0.444870 0.560630 0.676470 -0.593130
O17   O     O_R   0.615730 0.731500 0.555020 -0.630387
O18   O     O_R   0.323450 0.268330 0.384170 -0.614333
O19   O     O_R   0.444860 0.560620 0.384150 -0.668975
O20   O     O_R   0.615780 0.439200 0.555040 -0.580324
O21   O     O_R   0.323420 0.439190 0.384160 -0.608388
O22   O     O_R   0.615760 0.560630 0.676470 -0.636753
O23   O     O_R   0.615740 0.731500 0.676460 -0.572138
O24   O     O_R   0.444900 0.268330 0.384170 -0.611644
O25   O     O_R   0.615750 0.560630 0.384150 -0.644380
O26   O     O_R   0.323430 0.439200 0.555040 -0.595045
C57   C     C_R   0.639987 0.499351 0.359925 0.818590
C58   C     C_R   0.359628 0.500932 0.639795 0.840559
C59   C     C_R   0.644527 0.779899 0.640530 0.801924
C60   C     C_R   0.359819 0.220505 0.356417 0.837809
C61   C     C_R   0.359811 0.502359 0.362637 0.796749
C62   C     C_R   0.644009 0.504673 0.641179 0.844574
N1    N     N_R   0.873737 0.454367 0.688073 0.232534
O27   O     O_R   0.957932 0.529641 0.732130 -0.393980
O28   O     O_R   0.850917 0.367862 0.615160 -0.382210
N2    N     N_R   0.769560 0.888046 0.510376 0.183026
O29   O     O_R   0.822923 0.902759 0.464975 -0.357883
O30   O     O_R   0.685229 0.814225 0.467053 -0.405588
O31   O     O_3   0.926415 0.142496 0.700515 -0.655828
C63   C     C_3   0.978478 0.149362 0.644498 0.182612
H9    H     H_    0.974077 0.192195 0.620791 0.159068
H10   H     H_    0.956894 0.072321 0.585632 0.216468
C64   C     C_3   0.075623 0.207315 0.698125 -0.407968
H11   H     H_    0.101426 0.287600 0.753653 0.224684
H12   H     H_    0.079520 0.169419 0.727955 0.260642
C65   C     C_3   0.133785 0.208524 0.638759 -0.769811
H13   H     H_    0.113843 0.129155 0.588050 0.305700
H14   H     H_    0.204835 0.257437 0.680691 0.261435
H15   H     H_    0.126886 0.239950 0.603438 0.290727
O32   O     O_3   0.800300 0.067510 0.582072 -0.672860
C66   C     C_3   0.792796 0.149952 0.615027 0.126216
H16   H     H_    0.804130 0.170485 0.566733 0.210080
H17   H     H_    0.845187 0.220776 0.679516 0.198046
C67   C     C_3   0.698198 0.116288 0.617295 -0.418722
H18   H     H_    0.648619 0.042653 0.551739 0.243997
H19   H     H_    0.686299 0.103681 0.670336 0.221682
C68   C     C_3   0.682733 0.196499 0.635471 -0.817308
H20   H     H_    0.730094 0.270094 0.701579 0.287612
H21   H     H_    0.613775 0.169118 0.636383 0.264056
H22   H     H_    0.691063 0.209248 0.582192 0.291660
O33   O     O_3   0.752051 0.322419 0.143712 -0.569948
C69   C     C_3   0.689597 0.254386 0.056005 0.126771
H23   H     H_    0.717200 0.283786 0.015438 0.143252
H24   H     H_    0.624914 0.244943 0.056144 0.119398
C70   C     C_3   0.670860 0.148518 0.011796 -0.262840
H25   H     H_    0.734869 0.156682 0.015669 0.240868
H26   H     H_    0.637744 0.115793 0.048571 0.246852
C71   C     C_3   0.610801 0.074770 0.913815 -0.907348
H27   H     H_    0.545841 0.064492 0.908896 0.265385
H28   H     H_    0.598176 0.998565 0.883676 0.316033
H29   H     H_    0.643335 0.104948 0.875202 0.253839
N3    N     N_R   0.682729 0.344712 0.281797 0.241022
O34   O     O_R   0.725198 0.384668 0.363016 -0.252968
O35   O     O_R   0.644040 0.246871 0.221265 -0.407305
N4    N     N_R   0.925210 0.729380 0.344007 0.246445
O36   O     O_R   0.968660 0.824763 0.413681 -0.296287
O37   O     O_R   0.960805 0.679961 0.328795 -0.383869
O38   O     O_3   0.337382 0.909676 0.209030 -0.603446
C72   C     C_3   0.372959 0.945789 0.298520 0.199085
H30   H     H_    0.333241 0.881300 0.304224 0.223447
H31   H     H_    0.369163 0.008881 0.351799 0.102529
C73   C     C_3   0.471100 0.985467 0.320678 -0.288689
H32   H     H_    0.478841 0.926199 0.269173 0.267719
H33   H     H_    0.510602 0.055051 0.321139 0.254127
C74   C     C_3   0.508629 0.014049 0.412358 -0.871980
H34   H     H_    0.504669 0.076119 0.465849 0.259859
H35   H     H_    0.579641 0.042092 0.425606 0.278958
H36   H     H_    0.471276 0.945986 0.414241 0.301180
N5    N     N_R   0.708539 0.463697 0.931036 0.215145
O39   O     O_R   0.718703 0.488605 0.012267 -0.376524
O40   O     O_R   0.680180 0.370245 0.866108 -0.446963
O41   O     O_3   0.427446 0.104898 0.245111 -0.607358
C75   C     C_3   0.432930 0.143224 0.193351 0.177100
H37   H     H_    0.498933 0.217752 0.225160 0.204618
H38   H     H_    0.383946 0.161135 0.191352 0.069350
C76   C     C_3   0.422335 0.067888 0.097185 -0.376797
H39   H     H_    0.478025 0.059916 0.097475 0.244558
H40   H     H_    0.358287 0.991326 0.067082 0.213535
C77   C     C_3   0.422199 0.105094 0.039651 -0.920585
H41   H     H_    0.363142 0.106442 0.032997 0.266533
H42   H     H_    0.419352 0.052096 0.971735 0.275496
H43   H     H_    0.483538 0.183732 0.070442 0.254877
N6    N     N_R   0.144440 0.111762 0.374260 0.241717
O42   O     O_R   0.112662 0.165882 0.407843 -0.294202
O43   O     O_R   0.184832 0.105525 0.426666 -0.383341
O44   O     O_3   0.114184 0.101770 0.241861 -0.637406
C78   C     C_3   0.131304 0.084312 0.160973 0.097424
H44   H     H_    0.072742 0.062703 0.116408 0.201495
H45   H     H_    0.137986 0.019904 0.122822 0.157879
C79   C     C_3   0.214340 0.182805 0.179429 -0.377115
H46   H     H_    0.212069 0.249446 0.223954 0.252456
H47   H     H_    0.274946 0.198394 0.213604 0.205215
C80   C     C_3   0.221876 0.173815 0.092923 -0.964989
H48   H     H_    0.226201 0.108760 0.047558 0.274522
H49   H     H_    0.282912 0.246206 0.109032 0.261504
H50   H     H_    0.163190 0.161444 0.058339 0.277923
N7    N     N_R   0.037980 0.900629 0.276618 0.223003
O45   O     O_R   0.974728 0.906743 0.303653 -0.281769
O46   O     O_R   0.069644 0.864085 0.300604 -0.332978
N8    N     N_R   0.007164 0.885996 0.139442 0.192151
O47   O     O_R   0.940946 0.894084 0.141905 -0.292789
O48   O     O_R   0.009443 0.826584 0.062130 -0.404503
O49   O     O_3   0.170252 0.395561 0.329763 -0.648142
C81   C     C_3   0.090323 0.294945 0.271830 0.066359
H51   H     H_    0.096004 0.244046 0.282611 0.242985
H52   H     H_    0.078696 0.261139 0.199011 0.127475
C82   C     C_3   0.010291 0.292535 0.297131 -0.399316
H53   H     H_    0.017772 0.310363 0.365304 0.247522
H54   H     H_    0.007274 0.351521 0.298461 0.233821
C83   C     C_3   0.922900 0.186825 0.231217 -0.748803
H55   H     H_    0.912415 0.168320 0.162739 0.261854
H56   H     H_    0.866378 0.186811 0.252258 0.279182
H57   H     H_    0.923828 0.126605 0.229833 0.293884
O50   O     O_3   0.464372 0.751071 0.352542 -0.626233
C84   C     C_3   0.500487 0.774899 0.435303 0.206036
H58   H     H_    0.564117 0.853150 0.472804 0.183343
H59   H     H_    0.518980 0.724650 0.428675 0.237157
C85   C     C_3   0.438328 0.779348 0.490424 -0.422320
H60   H     H_    0.431596 0.840940 0.503769 0.249746
H61   H     H_    0.370921 0.705527 0.452609 0.239743
C86   C     C_3   0.474186 0.802020 0.579598 -0.895376
H62   H     H_    0.474104 0.736924 0.567637 0.260420
H63   H     H_    0.430678 0.811415 0.620075 0.277111
H64   H     H_    0.542961 0.874111 0.618063 0.262806
O51   O     O_3   0.487876 0.626315 0.254445 -0.607379
C87   C     C_3   0.454523 0.524987 0.179219 0.123025
H65   H     H_    0.470468 0.528711 0.122357 0.255190
H66   H     H_    0.381536 0.467036 0.156668 0.109652
C88   C     C_3   0.502211 0.486924 0.200567 -0.312002
H67   H     H_    0.574430 0.549894 0.234575 0.276646
H68   H     H_    0.476012 0.465386 0.246021 0.217458
C89   C     C_3   0.489512 0.393499 0.116205 -0.927565
H69   H     H_    0.417512 0.330118 0.078844 0.260796
H70   H     H_    0.521981 0.365918 0.135316 0.245332
H71   H     H_    0.520570 0.414474 0.071894 0.322732
N9    N     N_R   0.351566 0.711594 0.230069 0.220160
O52   O     O_R   0.349832 0.736050 0.175314 -0.359075
O53   O     O_R   0.327710 0.747188 0.299640 -0.439230
N10   N     N_R   0.691567 0.628818 0.046335 0.274967
O54   O     O_R   0.612823 0.571907 0.047115 -0.329636
O55   O     O_R   0.757356 0.706630 0.121572 -0.292693
N11   N     N_R   0.368937 0.583193 0.114034 0.162782
O56   O     O_R   0.439532 0.640228 0.102459 -0.324282
O57   O     O_R   0.303855 0.492698 0.044603 -0.426032
O58   O     O_3   0.167832 0.396512 0.566874 -0.591364
C90   C     C_3   0.175710 0.470064 0.555434 0.105844
H72   H     H_    0.175120 0.443473 0.486071 0.229737
H73   H     H_    0.240113 0.548010 0.600257 0.135304
C91   C     C_3   0.096843 0.477538 0.567444 -0.377541
H74   H     H_    0.033142 0.399210 0.525558 0.256244
H75   H     H_    0.100711 0.512660 0.638690 0.256840
C92   C     C_3   0.097281 0.543740 0.541013 -0.818879
H76   H     H_    0.159520 0.623230 0.583964 0.264782
H77   H     H_    0.039316 0.547285 0.550050 0.302623
H78   H     H_    0.092487 0.510351 0.469653 0.259294
N12   N     N_R   0.493098 0.657755 0.882348 0.180790
O59   O     O_R   0.488004 0.609693 0.917068 -0.358959
O60   O     O_R   0.558751 0.687855 0.852830 -0.272936
N13   N     N_R   0.436327 0.727913 0.834558 0.206105
O61   O     O_R   0.372542 0.717224 0.790089 -0.428853
O62   O     O_R   0.516465 0.811950 0.870083 -0.338944
O63   O     O_3   0.333890 0.721708 0.945700 -0.592998
C93   C     C_3   0.404709 0.827791 0.009977 0.137487
H79   H     H_    0.374279 0.864204 0.052727 0.194402
H80   H     H_    0.430947 0.865081 0.975069 0.194264
C94   C     C_3   0.482850 0.854040 0.073208 -0.405180
H81   H     H_    0.457105 0.821441 0.111605 0.280645
H82   H     H_    0.517810 0.821911 0.034666 0.269019
C95   C     C_3   0.551869 0.970243 0.138515 -0.803002
H83   H     H_    0.583480 0.003054 0.101386 0.275282
H84   H     H_    0.604528 0.987158 0.186360 0.288347
H85   H     H_    0.520144 0.007517 0.176898 0.279961
N14   N     N_R   0.703704 0.754986 0.991470 0.274871
O64   O     O_R   0.667713 0.763103 0.053752 -0.244855
O65   O     O_R   0.740010 0.829332 0.981739 -0.276461
N15   N     N_R   0.760298 0.443500 0.576038 0.262387
O66   O     O_R   0.723417 0.347391 0.510924 -0.294253
O67   O     O_R   0.799406 0.513324 0.560872 -0.359599
N16   N     N_R   0.722739 0.904515 0.840076 0.253509
O68   O     O_R   0.705028 0.940084 0.914006 -0.318832
O69   O     O_R   0.750835 0.847569 0.822849 -0.370173
O70   O     O_3   0.874769 0.955543 0.644869 -0.658316
C96   C     C_3   0.852650 0.855496 0.605008 0.085162
H86   H     H_    0.887310 0.840906 0.555437 0.202655
H87   H     H_    0.779938 0.793464 0.569807 0.144585
C97   C     C_3   0.885799 0.850490 0.677340 -0.380166
H88   H     H_    0.959922 0.902204 0.704502 0.245078
H89   H     H_    0.860580 0.877615 0.733148 0.263796
C98   C     C_3   0.854125 0.740955 0.640206 -0.798623
H90   H     H_    0.780041 0.688866 0.615724 0.237236
H91   H     H_    0.880307 0.740156 0.693993 0.280249
H92   H     H_    0.878643 0.712099 0.584143 0.283480

loop_
_geom_bond_atom_site_label_1
_geom_bond_atom_site_label_2
_geom_bond_distance
_ccdc_geom_bond_type
C25   C30   1.371523 A    
C56   O63   1.416694 S    
C53   C54   1.390713 A    
C77   H41   1.110384 S    
C93   H80   1.109014 S    
C22   C23   1.521431 S    
C21   C22   1.402375 A    
C75   H37   1.105724 S    
Zn5   O22   1.952533 S    
O24   C60   1.285747 A    
C10   C11   1.412081 A    
C50   C51   1.402356 A    
O31   C63   1.413734 S    
C39   N6    1.470645 S    
C45   C61   1.459207 S    
C77   H43   1.109054 S    
C33   C34   1.396479 A    
C36   O41   1.385361 S    
C89   H69   1.109546 S    
O21   C61   1.283871 A    
C69   C70   1.526714 S    
C63   H10   1.110334 S    
N5    O39   1.300360 A    
C87   H65   1.109649 S    
C43   H6    1.079606 S    
N13   O61   1.302640 A    
N6    O43   1.302692 A    
C26   C27   1.413395 A    
C34   C35   1.425573 A    
C98   H92   1.110947 S    
C70   H26   1.110715 S    
C90   C91   1.534043 S    
C9    C10   1.405091 A    
C74   H34   1.110796 S    
C71   H27   1.110341 S    
C24   O31   1.421828 S    
N11   O57   1.301922 A    
Zn1   O1    1.940090 S    
O41   C75   1.423079 S    
C96   H87   1.112039 S    
C71   H28   1.109713 S    
C91   H74   1.111146 S    
C88   C89   1.526869 S    
C2    C18   1.458670 S    
C12   C13   1.416346 A    
C92   H77   1.110493 S    
Zn8   O24   1.938055 S    
N13   O62   1.300590 A    
N3    O35   1.300818 A    
C64   H11   1.110467 S    
C33   C40   1.512613 S    
O8    C5    1.277446 A    
C65   H15   1.109791 S    
C49   C56   1.503489 S    
N2    O29   1.300604 A    
O9    C6    1.276543 A    
C53   C58   1.454183 S    
C23   O70   1.424103 S    
O70   C96   1.415202 S    
C48   N9    1.468998 S    
C48   N11   1.467199 S    
N7    O46   1.301424 A    
C79   H46   1.106706 S    
O18   C60   1.278422 A    
C49   C54   1.377629 A    
Zn3   O8    1.944602 S    
O25   C57   1.298080 A    
C21   C59   1.462819 S    
C65   H13   1.111584 S    
C82   H53   1.109868 S    
C76   C77   1.525535 S    
C8    N10   1.429671 S    
N4    O36   1.301065 A    
N12   O60   1.300390 A    
C45   C46   1.402659 A    
C43   C44   1.416606 A    
C97   C98   1.526148 S    
C98   H91   1.110453 S    
C84   C85   1.532579 S    
C31   H3    1.110994 S    
C72   H30   1.103202 S    
C71   H29   1.111001 S    
C47   C48   1.566601 S    
N8    O47   1.301124 A    
O50   C84   1.406659 S    
C11   C12   1.400812 A    
C17   C24   1.511784 S    
N14   O64   1.301069 A    
C4    C26   1.452238 S    
C68   H22   1.109869 S    
C97   H88   1.111535 S    
C1    C34   1.460495 S    
C7    N5    1.444720 S    
C49   C50   1.397290 A    
C78   C79   1.532196 S    
O17   C59   1.285485 A    
C76   H40   1.110640 S    
C93   C94   1.547150 S    
O22   C62   1.276061 A    
C37   C38   1.384567 A    
C75   H38   1.114425 S    
C33   C38   1.361263 A    
C41   C42   1.381264 A    
N7    O45   1.301033 A    
Zn7   O18   1.944235 S    
C81   C82   1.531828 S    
C44   O49   1.393397 S    
N9    O53   1.302825 A    
N9    O52   1.300470 A    
N5    O40   1.301769 A    
Zn8   O20   1.941019 S    
C20   N16   1.437853 S    
C31   C32   1.523182 S    
C40   N7    1.467104 S    
O15   C57   1.278946 A    
Zn8   O15   1.942147 S    
C46   C47   1.530350 S    
C92   H76   1.110889 S    
Zn6   O17   1.935285 S    
C70   C71   1.526695 S    
C90   H73   1.116879 S    
O2    C1    1.286904 A    
C47   O51   1.433195 S    
C83   H55   1.111014 S    
C80   H49   1.109416 S    
C15   N15   1.433016 S    
C84   H58   1.110022 S    
C31   H4    1.109538 S    
C86   H62   1.109716 S    
C41   C46   1.360159 A    
C66   H16   1.110682 S    
C96   C97   1.527040 S    
C52   C53   1.419282 A    
C73   C74   1.526094 S    
C81   H52   1.115988 S    
C51   H7    1.083517 S    
C20   C21   1.417043 A    
C95   H84   1.110372 S    
C54   C55   1.495763 S    
C81   H51   1.107446 S    
C80   H50   1.110846 S    
C69   H24   1.115167 S    
C67   C68   1.524427 S    
C64   H12   1.112097 S    
C98   H90   1.111510 S    
Zn8   O14   1.962928 S    
C11   C16   1.424084 A    
C83   H57   1.111154 S    
C16   C62   1.479374 S    
O49   C81   1.418372 S    
C38   C39   1.500661 S    
C91   H75   1.110272 S    
C17   C18   1.414307 A    
N8    O48   1.301696 A    
C73   H33   1.110462 S    
C94   H82   1.108491 S    
C44   C45   1.429302 A    
C19   H2    1.081531 S    
Zn3   O5    1.942962 S    
O10   C3    1.277283 A    
C82   C83   1.526123 S    
C88   H67   1.107324 S    
N1    O28   1.300276 A    
C87   H66   1.110071 S    
C28   C29   1.429343 A    
C32   N4    1.467801 S    
C64   C65   1.527144 S    
C35   O38   1.380811 S    
C15   C16   1.412684 A    
N10   O55   1.300476 A    
O12   C1    1.284754 A    
O4    C3    1.273297 A    
C7    C8    1.414106 A    
Zn4   O7    1.941060 S    
N14   O65   1.301286 A    
C24   O32   1.431493 S    
C73   H32   1.107700 S    
O16   C58   1.283767 A    
C83   H56   1.110476 S    
C72   C73   1.530457 S    
C65   H14   1.110961 S    
C25   C32   1.502257 S    
Zn4   O2    1.937909 S    
C76   H39   1.109154 S    
O51   C87   1.424009 S    
C96   H86   1.109884 S    
N15   O67   1.300487 A    
C85   H60   1.111783 S    
C74   H36   1.110052 S    
O3    C2    1.274753 A    
C14   N1    1.437665 S    
Zn6   O25   1.942914 S    
O33   C69   1.415505 S    
C97   H89   1.109409 S    
C36   C37   1.411076 A    
C94   C95   1.525332 S    
C47   O50   1.426330 S    
C23   C24   1.534464 S    
C51   C52   1.396866 A    
C93   H79   1.108810 S    
Zn2   O6    1.950056 S    
C89   H71   1.110298 S    
Zn3   O1    1.961411 S    
C10   H1    1.077642 S    
Zn2   O12   1.944429 S    
N12   O59   1.302115 A    
C87   C88   1.526378 S    
C84   H59   1.096349 S    
C68   H20   1.107721 S    
N1    O27   1.301237 A    
C86   H64   1.110988 S    
N16   O69   1.301153 A    
C29   C57   1.461497 S    
C90   H72   1.106768 S    
C29   C30   1.393074 A    
C67   H19   1.107935 S    
Zn5   O23   1.946068 S    
C79   H47   1.105401 S    
N4    O37   1.300917 A    
Zn1   O3    1.946068 S    
C37   C60   1.451532 S    
C55   N13   1.475862 S    
C13   C14   1.415309 A    
Zn2   O4    1.938238 S    
C25   C26   1.391199 A    
O19   C61   1.283146 A    
C56   H8    1.111415 S    
C66   C67   1.537170 S    
C19   C20   1.391862 A    
C89   H70   1.110436 S    
C95   H85   1.108262 S    
C40   N8    1.468155 S    
O32   C66   1.412145 S    
C69   H23   1.112683 S    
C78   H44   1.111029 S    
C77   H42   1.109940 S    
C85   C86   1.524885 S    
Zn6   O19   1.944350 S    
C70   H25   1.109495 S    
C85   H61   1.108153 S    
C75   C76   1.529266 S    
C52   O58   1.382712 S    
C92   H78   1.110467 S    
N3    O34   1.300579 A    
C32   H5    1.109590 S    
Zn7   O26   1.938494 S    
C14   C15   1.397654 A    
C9    N14   1.442131 S    
O63   C93   1.426717 S    
C94   H81   1.107072 S    
C8    C9    1.410024 A    
C86   H63   1.110285 S    
C88   H68   1.108306 S    
N6    O42   1.301241 A    
Zn5   O14   1.939941 S    
C55   N12   1.469479 S    
C27   O33   1.383606 S    
O5    C4    1.284416 A    
C80   H48   1.110532 S    
C95   H83   1.110169 S    
O11   C4    1.286953 A    
C18   C19   1.401369 A    
Zn4   O11   1.942146 S    
C67   H18   1.110904 S    
Zn5   O16   1.943611 S    
Zn4   O1    1.963079 S    
C28   N3    1.437683 S    
C42   C43   1.404394 A    
O7    C6    1.284284 A    
O13   C2    1.287947 A    
N2    O30   1.297806 A    
C3    C50   1.446923 S    
Zn3   O13   1.935182 S    
C63   H9    1.113031 S    
Zn7   O21   1.950010 S    
C72   H31   1.119509 S    
C39   C40   1.564832 S    
C17   C22   1.394837 A    
O26   C58   1.269685 A    
C7    C12   1.422935 A    
C27   C28   1.408236 A    
C66   H17   1.102083 S    
O20   C62   1.293080 A    
C5    C42   1.448061 S    
C55   C56   1.543769 S    
Zn2   O1    1.950490 S    
O23   C59   1.278845 A    
O6    C5    1.283746 A    
C39   O44   1.432482 S    
Zn6   O14   1.961561 S    
Zn1   O9    1.952683 S    
N15   O66   1.300879 A    
C74   H35   1.110082 S    
C30   C31   1.491411 S    
N11   O56   1.301498 A    
N10   O54   1.300500 A    
C82   H54   1.109369 S    
O38   C72   1.424853 S    
Zn7   O14   1.950491 S    
C91   C92   1.526103 S    
Zn1   O10   1.943610 S    
C68   H21   1.110322 S    
C35   C36   1.411435 A    
O58   C90   1.417424 S    
C23   N2    1.474923 S    
C41   C48   1.488628 S    
C79   C80   1.524388 S    
C63   C64   1.527820 S    
N16   O68   1.301239 A    
C6    C13   1.466186 S    
O44   C78   1.422726 S    
C78   H45   1.109626 S    
