data_mof_unit_15046.cif
_audit_creation_date              2012-12-11T14:47:58-0500
_audit_creation_method            fapswitch 2.2
_symmetry_space_group_name_H-M    P1
_symmetry_Int_Tables_number       1
_space_group_crystal_system       triclinic
_cell_length_a                    11.501599
_cell_length_b                    11.505294
_cell_length_c                    19.553733
_cell_angle_alpha                 90.221214
_cell_angle_beta                  89.759655
_cell_angle_gamma                 59.912626
_cell_volume                      2238.81946734

loop_
_atom_site_label
_atom_site_type_symbol
_atom_type_description
_atom_site_fract_x
_atom_site_fract_y
_atom_site_fract_z
_atom_type_partial_charge
C1    C     C_R   0.615584 0.086182 0.606396 0.556478
C2    C     C_1   0.641161 0.703523 0.667964 0.004027
C3    C     C_1   0.064374 0.234497 0.851058 0.001976
C4    C     C_1   0.134874 0.189742 0.721926 -0.027255
C5    C     C_1   0.095450 0.213019 0.791425 -0.029405
C6    C     C_1   0.175934 0.170254 0.663775 0.004008
C7    C     C_1   0.669194 0.182433 0.864303 0.003158
C8    C     C_1   0.634334 0.138238 0.736500 -0.028917
C9    C     C_1   0.648908 0.162515 0.806063 -0.026948
C10   C     C_1   0.625650 0.115892 0.676907 0.001958
C11   C     C_R   0.585624 0.625307 0.307330 -0.158002
C12   C     C_R   0.612607 0.745558 0.598607 0.538618
C13   C     C_R   0.585844 0.617117 0.237728 -0.184864
C14   C     C_R   0.671500 0.644671 0.198157 0.053881
C15   C     C_R   0.761690 0.676835 0.229387 0.261861
C16   C     C_R   0.755290 0.691811 0.300366 -0.124647
C17   C     C_R   0.663302 0.671355 0.338439 -0.006438
C18   C     C_R   0.241852 0.235539 0.288229 -0.184798
C19   C     C_R   0.211567 0.252410 0.219797 -0.166284
C20   C     C_R   0.145336 0.191383 0.191052 -0.012596
C21   C     C_R   0.117989 0.105045 0.230097 -0.121277
C22   C     C_R   0.152189 0.083770 0.299323 0.261506
C23   C     C_R   0.238402 0.146440 0.597598 0.542924
C24   C     C_R   0.208312 0.155514 0.328871 0.049301
C25   C     C_R   0.751900 0.037663 0.290208 -0.111603
C26   C     C_R   0.753931 0.056601 0.221088 -0.116663
C27   C     C_R   0.670448 0.183706 0.192981 0.027348
C28   C     C_R   0.575756 0.288745 0.234190 -0.144148
C29   C     C_R   0.570811 0.268401 0.303920 -0.144390
C30   C     C_R   0.661002 0.143180 0.332261 0.038138
C31   C     C_R   0.025168 0.263489 0.921651 0.554301
C32   C     C_R   0.683785 0.605155 0.929493 0.542161
C33   C     C_R   0.707142 0.205834 0.930649 0.541600
C34   C     C_R   0.644440 0.111702 0.401912 0.560508
C35   C     C_R   0.083579 0.235046 0.124866 0.558187
C36   C     C_R   0.683944 0.608694 0.126801 0.578218
C37   C     C_R   0.706563 0.210405 0.126184 0.548666
C38   C     C_R   0.620169 0.734572 0.404192 0.551219
C39   C     C_R   0.249150 0.138514 0.399848 0.581104
C40   C     C_1   0.670748 0.646975 0.860083 0.004093
C41   C     C_1   0.654883 0.683519 0.728387 -0.031519
C42   C     C_1   0.663817 0.666888 0.799623 -0.031642
Cr1   Cr    Cr6+3 0.404720 0.198220 0.499960 1.024221
Cr2   Cr    Cr6+3 0.698290 0.897110 0.500380 1.027355
Cr3   Cr    Cr6+3 0.396970 0.904720 0.499610 1.052535
Cr4   Cr    Cr6+3 0.926180 0.152240 0.028110 1.029783
Cr5   Cr    Cr6+3 0.921340 0.452070 0.027460 1.050904
Cr6   Cr    Cr6+3 0.626260 0.447120 0.028700 1.021157
H1    H     H_    0.515439 0.607447 0.336201 0.133820
H2    H     H_    0.826933 0.973016 0.190271 0.161523
H3    H     H_    0.509707 0.387011 0.213147 0.113551
H4    H     H_    0.496927 0.349782 0.335500 0.114872
H5    H     H_    0.518862 0.587410 0.215189 0.136036
H6    H     H_    0.813710 0.729824 0.324934 0.125967
H7    H     H_    0.291869 0.286058 0.309298 0.144276
H8    H     H_    0.234274 0.318117 0.190192 0.132653
H9    H     H_    0.062400 0.061247 0.208103 0.138277
H10   H     H_    0.819827 0.938847 0.310240 0.132738
O1    O     O_R   0.267740 0.231990 0.575440 -0.510354
O2    O     O_R   0.685970 0.784630 0.430010 -0.511943
O3    O     O_R   0.502530 0.766960 0.423990 -0.514898
O4    O     O_R   0.288330 0.026310 0.429250 -0.450433
O5    O     O_3   0.499990 0.000020 0.499980 -0.280334
O6    O     O_R   0.821500 0.119550 0.952820 -0.508289
O7    O     O_R   0.037130 0.162750 0.957360 -0.487361
O8    O     O_R   0.056440 0.344950 0.951330 -0.500140
O9    O     O_R   0.797900 0.560570 0.957460 -0.509007
O10   O     O_R   0.596140 0.579600 0.952720 -0.500973
O11   O     O_R   0.639070 0.321380 0.958660 -0.494165
O12   O     O_R   0.527280 0.186680 0.570530 -0.486661
O13   O     O_R   0.821240 0.124490 0.104360 -0.524083
O14   O     O_R   0.036900 0.167320 0.097830 -0.504530
O15   O     O_R   0.056190 0.349890 0.102870 -0.510717
O16   O     O_R   0.797670 0.565150 0.097930 -0.449506
O17   O     O_R   0.595880 0.584540 0.104260 -0.540674
O18   O     O_R   0.638830 0.325960 0.099140 -0.504979
O19   O     O_3   0.824590 0.350480 0.028090 -0.278974
O20   O     O_R   0.728090 0.003480 0.576380 -0.493340
O21   O     O_R   0.682970 0.789220 0.570490 -0.510274
O22   O     O_R   0.499290 0.771920 0.575530 -0.503335
O23   O     O_R   0.285330 0.030900 0.569730 -0.491648
O24   O     O_R   0.270980 0.227040 0.423900 -0.540079
O25   O     O_R   0.530280 0.182090 0.430050 -0.506139
O26   O     O_R   0.731330 0.998530 0.424830 -0.512631
O27   O     O_3   0.842864 0.707154 0.189142 -0.560218
C43   C     C_3   0.975989 0.643021 0.213695 -0.117045
H11   H     H_    0.043623 0.635405 0.171158 0.141555
H12   H     H_    0.010666 0.538985 0.231684 0.128863
H13   H     H_    0.986267 0.703985 0.254841 0.083550
O28   O     O_3   0.117730 0.007288 0.340449 -0.546930
C44   C     C_3   0.165980 0.878058 0.311854 -0.110240
H14   H     H_    0.168759 0.810217 0.352771 0.139719
H15   H     H_    0.270184 0.834267 0.291151 0.116395
H16   H     H_    0.096704 0.880171 0.271838 0.096310

loop_
_geom_bond_atom_site_label_1
_geom_bond_atom_site_label_2
_ccdc_geom_bond_type
C19   H8    S    
C31   O8    A    
Cr1   O25   S    
C41   C42   S    
Cr6   O18   S    
C19   C20   A    
Cr6   O11   S    
C2    C12   S    
Cr1   O5    S    
O27   C43   S    
C23   O1    A    
C26   C27   A    
C18   C24   A    
C28   C29   A    
Cr2   O2    S    
C26   H2    S    
C14   C36   S    
C28   H3    S    
C43   H12   S    
C2    C41   T    
C15   C16   A    
C12   O21   A    
Cr3   O4    S    
C24   C39   S    
C7    C9    T    
C18   C19   A    
C20   C35   S    
C35   O15   A    
C8    C9    S    
Cr5   O8    S    
Cr4   O14   S    
Cr1   O1    S    
C32   O10   A    
C38   O3    A    
C40   C42   T    
C21   C22   A    
C1    O20   A    
C7    C33   S    
Cr6   O17   S    
C34   O26   A    
Cr5   O9    S    
C13   H5    S    
Cr2   O5    S    
C30   C34   S    
Cr5   O15   S    
Cr4   O7    S    
C4    C6    T    
C44   H14   S    
C43   H11   S    
C16   C17   A    
C3    C5    T    
C25   C26   A    
Cr3   O5    S    
Cr4   O6    S    
Cr6   O19   S    
C21   H9    S    
C29   C30   A    
C11   H1    S    
C36   O17   A    
C44   H15   S    
Cr5   O16   S    
C22   O28   S    
Cr6   O10   S    
C3    C31   S    
Cr4   O13   S    
C36   O16   A    
C18   H7    S    
C32   O9    A    
C38   O2    A    
C37   O18   A    
C35   O14   A    
Cr1   O12   S    
C37   O13   A    
C22   C24   A    
C34   O25   A    
Cr5   O19   S    
C25   C30   A    
C31   O7    A    
C39   O4    A    
C11   C17   A    
C23   O23   A    
Cr2   O21   S    
Cr3   O23   S    
C1    C10   S    
C39   O24   A    
C4    C5    S    
Cr2   O26   S    
C43   H13   S    
Cr4   O19   S    
C33   O11   A    
C1    O12   A    
C15   O27   S    
Cr2   O20   S    
C44   H16   S    
C11   C13   A    
O28   C44   S    
C27   C37   S    
C33   O6    A    
C6    C23   S    
C12   O22   A    
Cr3   O3    S    
Cr3   O22   S    
C17   C38   S    
C32   C40   S    
C16   H6    S    
C20   C21   A    
C8    C10   T    
C25   H10   S    
C27   C28   A    
Cr1   O24   S    
C14   C15   A    
C13   C14   A    
C29   H4    S    
