data_mof_unit_18333.cif
_audit_creation_date              2012-12-11T15:32:32-0500
_audit_creation_method            fapswitch 2.2
_symmetry_space_group_name_H-M    P1
_symmetry_Int_Tables_number       1
_space_group_crystal_system       triclinic
_cell_length_a                    6.96161
_cell_length_b                    20.454893
_cell_length_c                    24.370289
_cell_angle_alpha                 89.631061
_cell_angle_beta                  90.654065
_cell_angle_gamma                 89.423629
_cell_volume                      3469.82824926

loop_
_atom_site_label
_atom_site_type_symbol
_atom_type_description
_atom_site_fract_x
_atom_site_fract_y
_atom_site_fract_z
_atom_type_partial_charge
O1    O     O_R   0.507320 0.423560 0.460500 -0.531821
O2    O     O_R   0.170760 0.556250 0.437010 -0.527441
O3    O     O_R   0.004030 0.576440 0.539500 -0.540622
C1    C     C_R   0.338208 0.576406 0.421053 0.719471
O4    O     O_R   0.177370 0.422820 0.454110 -0.532939
O5    O     O_R   0.010680 0.442050 0.556720 -0.535618
C2    C     C_R   0.346143 0.398971 0.443290 0.711390
O6    O     O_R   0.500680 0.557950 0.443280 -0.531566
O7    O     O_3   0.340380 0.506470 0.533650 -0.374108
V1    V     V_3+5 0.064130 0.498800 0.493760 1.506568
O8    O     O_R   0.681160 0.443750 0.562990 -0.535449
C3    C     C_R   0.850864 0.423670 0.578836 0.709194
O9    O     O_R   0.674560 0.577180 0.545890 -0.541959
C4    C     C_R   0.842752 0.601158 0.556399 0.687107
V2    V     V_3+5 0.564560 0.501200 0.506240 1.485470
O10   O     O_3   0.838180 0.493530 0.466350 -0.354207
C5    C     C_R   0.975827 0.838068 0.911467 -0.050136
C6    C     C_R   0.848081 0.661862 0.588533 -0.043868
C7    C     C_R   0.035093 0.721677 0.906713 -0.150415
C8    C     C_R   0.027519 0.779100 0.936925 -0.155282
C9    C     C_R   0.932202 0.839405 0.854991 -0.214712
C10   C     C_R   0.941972 0.781505 0.822833 0.088266
C11   C     C_R   0.994160 0.722352 0.850176 0.131512
C12   C     C_R   0.904315 0.780195 0.764725 0.058944
C13   C     C_R   0.919579 0.719728 0.735279 0.056580
C14   C     C_R   0.971408 0.662628 0.764950 -0.183681
C15   C     C_R   0.007402 0.664108 0.821048 -0.193387
C16   C     C_R   0.852516 0.837296 0.735053 -0.186568
C17   C     C_R   0.816482 0.835815 0.678958 -0.199951
C18   C     C_R   0.829692 0.777569 0.649831 0.138238
C19   C     C_R   0.881915 0.718418 0.677171 0.087137
C20   C     C_R   0.788714 0.778245 0.593297 -0.159920
C21   C     C_R   0.796314 0.720825 0.563082 -0.165015
C22   C     C_R   0.891718 0.660521 0.645009 -0.213386
H1    H     H_    0.047270 0.618898 0.841900 0.129933
H2    H     H_    0.928374 0.613460 0.662459 0.096148
H3    H     H_    0.760578 0.722290 0.519695 0.119168
H4    H     H_    0.776629 0.881026 0.658105 0.123949
H5    H     H_    0.075592 0.676552 0.927559 0.128636
H6    H     H_    0.063237 0.777636 0.980314 0.129354
H7    H     H_    0.895590 0.886467 0.837537 0.093251
H8    H     H_    0.986146 0.615487 0.746020 0.127341
H9    H     H_    0.748172 0.823368 0.572455 0.117419
C23   C     C_3   0.817332 0.303099 0.767396 -0.142030
C24   C     C_3   0.012354 0.278029 0.791267 -0.182006
H10   H     H_    0.095334 0.300797 0.825156 0.138287
H11   H     H_    0.736961 0.346922 0.781448 0.149041
C25   C     C_1   0.961991 0.121832 0.875306 -0.192692
C26   C     C_1   0.862495 0.378114 0.624638 -0.148299
C27   C     C_3   0.740186 0.232158 0.767874 -0.076013
C28   C     C_3   0.934677 0.207666 0.791052 0.094236
C29   C     C_3   0.815018 0.221913 0.708756 -0.142428
C30   C     C_3   0.892050 0.292272 0.708856 0.124641
C31   C     C_3   0.010022 0.196698 0.732522 -0.185382
C32   C     C_3   0.084990 0.267566 0.732245 0.299261
C33   C     C_1   0.951407 0.160372 0.837231 -0.034113
C34   C     C_1   0.873786 0.339575 0.662690 0.052497
H12   H     H_    0.091028 0.153034 0.718416 0.135830
C35   C     C_3   0.525519 0.721494 0.211975 -0.191592
C36   C     C_3   0.326650 0.696588 0.230252 0.270409
H13   H     H_    0.619773 0.698127 0.181172 0.206586
C37   C     C_1   0.345486 0.622081 0.375051 -0.116330
C38   C     C_1   0.478724 0.877845 0.124914 -0.148776
C39   C     C_3   0.578795 0.732956 0.273062 0.336634
C40   C     C_3   0.381420 0.707835 0.290829 -0.017252
C41   C     C_3   0.498191 0.803745 0.269661 -0.202077
C42   C     C_3   0.442454 0.791892 0.208976 -0.005339
C43   C     C_3   0.298633 0.778257 0.287677 -0.235726
C44   C     C_3   0.244748 0.766880 0.226608 0.324303
C45   C     C_1   0.357582 0.660619 0.336965 0.141292
C46   C     C_1   0.466558 0.839215 0.162943 0.108025
H14   H     H_    0.204021 0.801441 0.318483 0.183989
H15   H     H_    0.571446 0.847686 0.285807 0.165620
C47   C     C_R   0.476891 0.162012 0.089071 -0.049311
C48   C     C_R   0.352459 0.337837 0.411488 -0.060937
C49   C     C_R   0.593507 0.272361 0.098669 -0.129832
C50   C     C_R   0.558990 0.217837 0.066393 -0.159652
C51   C     C_R   0.423858 0.161956 0.144690 -0.195131
C52   C     C_R   0.460995 0.216928 0.179033 0.085451
C53   C     C_R   0.550209 0.271796 0.154760 0.073332
C54   C     C_R   0.419468 0.218724 0.236674 0.027935
C55   C     C_R   0.467350 0.275449 0.268649 -0.008571
C56   C     C_R   0.580647 0.324500 0.243457 0.247238
C57   C     C_R   0.609973 0.323894 0.187092 -0.182914
C58   C     C_R   0.337342 0.164797 0.263804 -0.157683
C59   C     C_R   0.301616 0.165824 0.319693 -0.188607
C60   C     C_R   0.332105 0.222162 0.350245 0.136268
C61   C     C_R   0.406610 0.278965 0.324834 0.107148
C62   C     C_R   0.281040 0.222678 0.405807 -0.153967
C63   C     C_R   0.293350 0.279839 0.436265 -0.161185
C64   C     C_R   0.403698 0.337720 0.355787 -0.130019
H16   H     H_    0.693130 0.362761 0.168804 0.173353
H17   H     H_    0.426654 0.384512 0.336558 0.164061
H18   H     H_    0.242018 0.122642 0.338806 0.123825
H19   H     H_    0.662284 0.314236 0.080138 0.124462
H20   H     H_    0.363407 0.117341 0.160198 0.096207
H21   H     H_    0.301503 0.120123 0.243168 0.122925
H22   H     H_    0.227347 0.178958 0.425491 0.117206
O11   O     O_R   0.323550 0.942140 0.056770 -0.530839
O12   O     O_R   0.647080 0.077200 0.045890 -0.538336
O13   O     O_R   0.813610 0.057920 0.943260 -0.537306
C65   C     C_R   0.478631 0.101220 0.056620 0.688972
O14   O     O_R   0.653470 0.943760 0.063000 -0.529408
O15   O     O_R   0.820050 0.923540 0.960490 -0.535499
C66   C     C_R   0.486017 0.923608 0.078959 0.720217
O16   O     O_R   0.317110 0.076520 0.039540 -0.537330
O17   O     O_3   0.483830 0.993580 0.966380 -0.370211
V3    V     V_3+5 0.760140 0.001190 0.006240 1.452883
O18   O     O_R   0.149510 0.922740 0.954070 -0.538587
C67   C     C_R   0.981273 0.898781 0.943589 0.700743
O19   O     O_R   0.143120 0.056170 0.936970 -0.538493
C68   C     C_R   0.973440 0.076277 0.921128 0.717902
V4    V     V_3+5 0.259690 0.998700 0.993700 1.442709
O20   O     O_3   0.986130 0.006420 0.033620 -0.363538
Br1   Br    Br    0.330145 0.295361 0.704346 -0.640991
H23   H     H_    0.732728 0.199169 0.674719 0.148877
H24   H     H_    0.597847 0.216881 0.783214 0.151365
Br2   Br    Br    0.201645 0.619514 0.201830 -0.402760
Br3   Br    Br    0.006126 0.793657 0.190892 -0.525590
Br4   Br    Br    0.817471 0.706867 0.308957 -0.512474
H25   H     H_    0.250784 0.279325 0.478895 0.118279
H26   H     H_    0.603098 0.218299 0.023890 0.108043
Br5   Br    Br    0.746340 0.383775 0.282532 -0.527059
H27   H     H_    0.837832 0.884441 0.753978 0.123201

loop_
_geom_bond_atom_site_label_1
_geom_bond_atom_site_label_2
_ccdc_geom_bond_type
C13   C19   A    
C41   C43   S    
C60   C61   A    
C27   H24   S    
C4    C6    S    
C7    C11   A    
C7    C8    A    
C1    O6    A    
C5    C67   S    
C3    C26   S    
C24   H10   S    
C23   C24   S    
O13   C68   A    
C14   C15   A    
C16   C17   A    
C49   H19   S    
O5    C3    A    
C18   C19   A    
C8    H6    S    
C24   C28   S    
V2    O10   S    
C1    C37   S    
C5    C8    A    
C26   C34   T    
C37   C45   T    
C28   C33   S    
V3    O20   S    
O17   V4    S    
C50   H26   S    
C59   H18   S    
C48   C63   A    
C35   C42   S    
O8    V2    S    
C23   C30   S    
O19   C68   A    
C51   H20   S    
C43   C44   S    
C47   C50   A    
C17   H4    S    
C27   C29   S    
O17   V3    S    
C36   Br2   S    
O14   V3    S    
O1    V2    S    
C11   C15   A    
C38   C66   S    
O7    V1    S    
C22   H2    S    
C23   H11   S    
C53   C57   A    
C47   C65   S    
O13   V3    S    
C30   C32   S    
C41   C42   S    
C35   C36   S    
O9    C4    A    
C29   C31   S    
C54   C55   A    
C29   H23   S    
O11   C66   A    
C35   H13   S    
O12   V3    S    
O16   V4    S    
C18   C20   A    
C49   C53   A    
C49   C50   A    
O14   C66   A    
C52   C54   A    
C30   C34   S    
C59   C60   A    
C2    C48   S    
C15   H1    S    
C13   C14   A    
C58   C59   A    
C41   H15   S    
C44   Br3   S    
C21   H3    S    
C42   C44   S    
C39   C41   S    
O2    C1    A    
O5    V1    S    
C17   C18   A    
C64   H17   S    
C56   C57   A    
C61   C64   A    
C43   H14   S    
C40   C43   S    
O12   C65   A    
C27   C28   S    
C35   C39   S    
C19   C22   A    
O19   V4    S    
C12   C13   A    
O18   V4    S    
C6    C22   A    
O3    C4    A    
C7    H5    S    
C9    H7    S    
C25   C68   S    
C38   C46   T    
C36   C40   S    
O6    V2    S    
C60   C62   A    
C63   H25   S    
C10   C12   A    
O2    V1    S    
O15   V3    S    
C29   C30   S    
C14   H8    S    
O4    C2    A    
V4    O20   S    
C31   H12   S    
C23   C27   S    
C25   C33   T    
C31   C32   S    
O1    C2    A    
C12   C16   A    
O11   V4    S    
O8    C3    A    
C16   H27   S    
C48   C64   A    
C39   Br4   S    
C62   H22   S    
C28   C31   S    
C20   C21   A    
O9    V2    S    
O7    V2    S    
O4    V1    S    
O3    V1    S    
V1    O10   S    
O18   C67   A    
C39   C40   S    
O15   C67   A    
C51   C52   A    
C32   Br1   S    
C36   C44   S    
C55   C61   A    
C20   H9    S    
C65   O16   A    
C42   C46   S    
C6    C21   A    
C5    C9    A    
C58   H21   S    
C52   C53   A    
C24   C32   S    
C55   C56   A    
C47   C51   A    
C10   C11   A    
C57   H16   S    
C56   Br5   S    
C62   C63   A    
C9    C10   A    
C54   C58   A    
C40   C45   S    
