data_mof_unit_27555.cif
_audit_creation_date              2012-12-11T15:39:23-0500
_audit_creation_method            fapswitch 2.2
_symmetry_space_group_name_H-M    P1
_symmetry_Int_Tables_number       1
_space_group_crystal_system       triclinic
_cell_length_a                    6.946099
_cell_length_b                    15.106028
_cell_length_c                    16.599713
_cell_angle_alpha                 95.663568
_cell_angle_beta                  90.027353
_cell_angle_gamma                 90.113917
_cell_volume                      1733.26786617

loop_
_atom_site_label
_atom_site_type_symbol
_atom_type_description
_atom_site_fract_x
_atom_site_fract_y
_atom_site_fract_z
_atom_type_partial_charge
O1    O     O_R   0.633330 0.174290 0.828230 -0.534735
O2    O     O_R   0.366670 0.825710 0.171770 -0.534735
O3    O     O_R   0.301450 0.154140 0.662030 -0.545452
O4    O     O_R   0.698550 0.845860 0.337970 -0.545452
O5    O     O_R   0.133140 0.325730 0.671770 -0.533840
O6    O     O_R   0.866860 0.674270 0.328230 -0.533840
C1    C     C_R   0.470509 0.131466 0.633274 0.668578
C2    C     C_R   0.529491 0.868534 0.366726 0.668578
O7    O     O_R   0.303490 0.163670 0.827000 -0.531087
O8    O     O_R   0.696510 0.836330 0.173000 -0.531087
O9    O     O_R   0.135190 0.335320 0.837920 -0.525642
O10   O     O_R   0.864810 0.664680 0.162080 -0.525642
C3    C     C_R   0.472375 0.143389 0.854136 0.737639
C4    C     C_R   0.527625 0.856611 0.145864 0.737638
O11   O     O_R   0.631280 0.164690 0.662080 -0.541448
O12   O     O_R   0.368720 0.835310 0.337920 -0.541448
O13   O     O_3   0.467420 0.306310 0.753380 -0.364713
O14   O     O_3   0.532580 0.693690 0.246620 -0.364713
V1    V     V_3+5 0.191790 0.239560 0.749370 1.461613
V2    V     V_3+5 0.808210 0.760440 0.250630 1.461613
O15   O     O_R   0.805590 0.345870 0.837970 -0.545285
O16   O     O_R   0.194410 0.654130 0.162030 -0.545285
C5    C     C_R   0.974436 0.368188 0.866675 0.758166
C6    C     C_R   0.025564 0.631812 0.133325 0.758166
O17   O     O_R   0.803560 0.336340 0.672990 -0.538586
O18   O     O_R   0.196440 0.663660 0.327010 -0.538586
C7    C     C_R   0.972472 0.356752 0.645963 0.715711
C8    C     C_R   0.027528 0.643248 0.354037 0.715712
V3    V     V_3+5 0.692030 0.260450 0.750630 1.443021
V4    V     V_3+5 0.307970 0.739550 0.249370 1.443021
O19   O     O_3   0.966260 0.193700 0.746610 -0.373224
O20   O     O_3   0.033740 0.806300 0.253390 -0.373224
C9    C     C_1   0.982977 0.418751 0.583553 -0.180442
C10   C     C_1   0.017023 0.581249 0.416447 -0.180441
C11   C     C_1   0.993478 0.469960 0.531018 0.015959
C12   C     C_1   0.006522 0.530040 0.468982 0.015959
C13   C     C_3   0.908145 0.572613 0.983299 0.503784
C14   C     C_3   0.091855 0.427387 0.016701 0.503784
C15   C     C_3   0.079564 0.530780 0.935064 -0.117276
C16   C     C_3   0.920436 0.469220 0.064936 -0.117275
C17   C     C_3   0.985089 0.438358 0.937017 -0.163279
C18   C     C_3   0.014911 0.561642 0.062983 -0.163279
C19   C     C_3   0.810411 0.480396 0.985371 -0.311996
C20   C     C_3   0.189588 0.519604 0.014628 -0.311997
H1    H     H_    0.656861 0.463599 0.973194 0.137248
H2    H     H_    0.343139 0.536401 0.026806 0.137248
C21   C     C_3   0.594998 0.973352 0.563721 -0.137761
C22   C     C_3   0.405002 0.026648 0.436279 -0.137761
C23   C     C_3   0.424848 0.923046 0.519365 -0.137431
C24   C     C_3   0.575151 0.076954 0.480635 -0.137431
H3    H     H_    0.363155 0.859074 0.534958 0.106989
H4    H     H_    0.636845 0.140926 0.465042 0.106989
H5    H     H_    0.672967 0.951684 0.616744 0.106959
H6    H     H_    0.327033 0.048316 0.383256 0.106959
C25   C     C_3   0.516715 0.938818 0.437522 -0.007540
C26   C     C_3   0.483285 0.061181 0.562478 -0.007539
C27   C     C_3   0.686956 0.988323 0.481088 -0.118099
C28   C     C_3   0.313043 0.011677 0.518912 -0.118099
H7    H     H_    0.841015 0.978410 0.465024 0.106579
H8    H     H_    0.158985 0.021590 0.534976 0.106579
C29   C     C_1   0.482670 0.081379 0.916557 -0.179903
C30   C     C_1   0.517330 0.918621 0.083443 -0.179903
C31   C     C_1   0.493321 0.030102 0.969034 0.016759
C32   C     C_1   0.506679 0.969898 0.030966 0.016759
C33   C     C_1   0.163834 0.564447 0.862992 0.296445
N1    N     N_1   0.230057 0.590887 0.806054 -0.374587
C34   C     C_1   0.836165 0.435553 0.137008 0.296446
N2    N     N_1   0.769943 0.409113 0.193946 -0.374587
O21   O     O_3   0.820362 0.653902 0.969315 -0.557903
C35   C     C_3   0.691362 0.639837 0.903848 -0.200806
H9    H     H_    0.563004 0.602158 0.921230 0.139212
H10   H     H_    0.761000 0.605205 0.849187 0.134710
H11   H     H_    0.640728 0.705426 0.887759 0.171659
O22   O     O_3   0.179638 0.346098 0.030685 -0.557903
C36   C     C_3   0.308638 0.360163 0.096152 -0.200806
H12   H     H_    0.239001 0.394795 0.150813 0.134709
H13   H     H_    0.436997 0.397841 0.078770 0.139212
H14   H     H_    0.359272 0.294574 0.112241 0.171659

loop_
_geom_bond_atom_site_label_1
_geom_bond_atom_site_label_2
_ccdc_geom_bond_type
C22   C25   S    
V4    O20   S    
C13   O21   S    
C6    C18   S    
C11   C12   S    
O4    C2    A    
V1    O19   S    
C21   C23   S    
C7    C9    S    
C22   H6    S    
O9    V1    S    
O3    C1    A    
C14   O22   S    
C27   H7    S    
O12   V4    S    
C4    C30   S    
O13   V3    S    
C13   C18   S    
C29   C31   T    
O7    C3    A    
C30   C32   T    
C9    C11   T    
O5    C7    A    
O7    V1    S    
C16   C19   S    
O6    C8    A    
O8    V2    S    
C23   H3    S    
C16   C34   S    
C24   H4    S    
O3    V1    S    
C35   H9    S    
O14   V4    S    
C17   C19   S    
C10   C12   T    
C21   H5    S    
C16   C18   S    
C8    C10   S    
C2    O12   A    
C15   C33   S    
C18   C20   S    
C1    C26   S    
C2    C25   S    
C20   H2    S    
O11   V3    S    
O17   V3    S    
O22   C36   S    
C34   N2    T    
C14   C17   S    
C15   C17   S    
O8    C4    A    
C1    O11   A    
C23   C25   S    
O15   V3    S    
C24   C26   S    
C23   C28   S    
C13   C19   S    
C36   H12   S    
C14   C20   S    
C21   C27   S    
C36   H13   S    
O10   V2    S    
C35   H11   S    
O1    V3    S    
C22   C24   S    
C19   H1    S    
O18   V4    S    
C25   C27   S    
O16   C6    A    
O1    C3    A    
V2    O20   S    
O16   V4    S    
C24   C27   S    
C22   C28   S    
C15   C20   S    
O5    V1    S    
O17   C7    A    
O6    V2    S    
O10   C6    A    
O18   C8    A    
C5    C17   S    
O2    V4    S    
O15   C5    A    
V3    O19   S    
C14   C16   S    
O9    C5    A    
O13   V1    S    
C26   C28   S    
O14   V2    S    
O21   C35   S    
O2    C4    A    
C36   H14   S    
C31   C32   S    
O4    V2    S    
C3    C29   S    
C13   C15   S    
C33   N1    T    
C35   H10   S    
C28   H8    S    
C21   C26   S    
