data_mof_unit_41202.cif
_audit_creation_date              2012-12-10T17:03:29-0500
_audit_creation_method            fapswitch 2.2
_symmetry_space_group_name_H-M    P1
_symmetry_Int_Tables_number       1
_space_group_crystal_system       triclinic
_cell_length_a                    14.998071
_cell_length_b                    11.003538
_cell_length_c                    9.894932
_cell_angle_alpha                 108.699449
_cell_angle_beta                  100.368611
_cell_angle_gamma                 91.343698
_cell_volume                      1515.73882052

loop_
_atom_site_label
_atom_site_type_symbol
_atom_type_description
_atom_site_fract_x
_atom_site_fract_y
_atom_site_fract_z
_atom_type_partial_charge
C1    C     C_R   0.498014 0.255619 0.445030 0.869938
C2    C     C_R   0.508591 0.745222 0.556406 0.882969
C3    C     C_R   0.028609 0.260779 0.400538 0.084405
C4    C     C_R   0.973063 0.737294 0.608070 0.085374
C5    C     C_2   0.503359 0.119444 0.425086 -0.449865
C6    C     C_2   0.515758 0.883688 0.583001 -0.437580
C7    C     C_2   0.550281 0.075462 0.527724 0.329844
C8    C     C_2   0.548980 0.937472 0.495830 0.343894
C9    C     C_2   0.512302 0.499144 0.077493 0.133206
C10   C     C_2   0.490555 0.494584 0.920794 0.132777
C11   C     C_R   0.328905 0.498250 0.498447 0.768685
C12   C     C_R   0.671131 0.501664 0.501569 0.834580
C13   C     C_R   0.822597 0.618378 0.560487 -0.196799
C14   C     C_R   0.178053 0.381055 0.443550 -0.216794
C15   C     C_R   0.767885 0.502112 0.504413 -0.021841
C16   C     C_R   0.232223 0.497631 0.495839 -0.009916
C17   C     C_R   0.804749 0.385863 0.449025 -0.166834
C18   C     C_R   0.195153 0.613845 0.549702 -0.216068
C19   C     C_R   0.897710 0.384085 0.449994 0.081317
C20   C     C_R   0.102505 0.615138 0.550679 0.099147
C21   C     C_R   0.953550 0.500974 0.502588 0.029812
C22   C     C_R   0.046732 0.498100 0.499537 0.043058
C23   C     C_R   0.916011 0.620389 0.557970 0.086914
C24   C     C_R   0.084582 0.378627 0.446723 0.074020
C25   C     C_R   0.934921 0.266399 0.400065 -0.187832
C26   C     C_R   0.065658 0.732390 0.603406 -0.237097
Cu1   Cu    Cu3+1 0.515770 0.521810 0.644910 1.120953
Cu2   Cu    Cu3+1 0.484230 0.478190 0.355090 1.113146
H1    H     H_    0.790791 0.705945 0.603471 0.166288
H2    H     H_    0.210317 0.293409 0.402388 0.134437
H3    H     H_    0.760862 0.296703 0.406990 0.156666
H4    H     H_    0.238731 0.703237 0.590147 0.129350
H5    H     H_    0.889583 0.179299 0.362087 0.159351
H6    H     H_    0.109816 0.821153 0.642632 0.149250
H7    H     H_    0.493619 0.944986 0.679128 0.156886
H8    H     H_    0.466522 0.051494 0.322807 0.163999
H9    H     H_    0.427984 0.443283 0.851452 0.170332
H10   H     H_    0.572298 0.553468 0.149213 0.203427
N1    N     N_2   0.460520 0.445420 0.137370 -0.027099
N2    N     N_2   0.539480 0.554580 0.862630 -0.029313
O1    O     O_R   0.508410 0.332340 0.577400 -0.534341
O2    O     O_R   0.491590 0.667660 0.422600 -0.542302
O3    O     O_R   0.481780 0.295500 0.332650 -0.535432
O4    O     O_R   0.518220 0.704500 0.667350 -0.548240
O5    O     O_R   0.383570 0.518390 0.622380 -0.615159
O6    O     O_R   0.616430 0.481610 0.377620 -0.597248
O7    O     O_R   0.356940 0.481550 0.377630 -0.522929
O8    O     O_R   0.643060 0.518450 0.622370 -0.494377
C27   C     C_3   0.069985 0.131577 0.355303 -0.417732
C28   C     C_3   0.006310 0.011045 0.329482 -0.353174
C29   C     C_3   0.057303 0.889715 0.298471 -0.795673
H11   H     H_    0.086459 0.875228 0.199440 0.255960
H12   H     H_    0.112899 0.897159 0.392367 0.248334
H13   H     H_    0.009603 0.804708 0.280314 0.261202
H14   H     H_    0.976961 0.021336 0.427678 0.232276
H15   H     H_    0.950236 0.998621 0.234719 0.229278
H16   H     H_    0.096325 0.121207 0.254424 0.202521
H17   H     H_    0.128291 0.133758 0.443437 0.211954
C30   C     C_3   0.939595 0.869135 0.668700 -0.391005
C31   C     C_3   0.935553 0.900117 0.830076 -0.365273
C32   C     C_3   0.925308 0.042858 0.901802 -0.737979
H18   H     H_    0.987509 0.101729 0.905704 0.244428
H19   H     H_    0.865917 0.073333 0.840127 0.312703
H20   H     H_    0.915289 0.060769 0.014760 0.235425
H21   H     H_    0.877248 0.842141 0.840542 0.223359
H22   H     H_    0.999001 0.875340 0.889337 0.228435
H23   H     H_    0.986659 0.943659 0.657835 0.201488
H24   H     H_    0.872532 0.876760 0.604253 0.232883
S1    S     S_3+6 0.599551 0.853820 0.349790 0.045041
O9    O     O_2   0.656500 0.754814 0.388605 -0.270867
O10   O     O_2   0.524895 0.789508 0.220392 -0.317249
O11   O     O_3   0.666610 0.956968 0.309642 -0.491541
H25   H     H_    0.627511 0.982449 0.233033 0.360841
S2    S     S_3+6 0.626872 0.170468 0.688252 0.059702
O12   O     O_2   0.685620 0.264975 0.654415 -0.238298
O13   O     O_2   0.574688 0.242147 0.800924 -0.270727
O14   O     O_3   0.694305 0.074708 0.755290 -0.528401
H26   H     H_    0.661142 0.048816 0.821073 0.361180
S3    S     S_3+6 0.652798 0.610837 0.941303 0.153989
O15   O     O_2   0.667586 0.687439 0.099335 -0.219153
O16   O     O_2   0.709530 0.497988 0.921975 -0.223853
O17   O     O_3   0.689545 0.709019 0.859158 -0.496969
H27   H     H_    0.756667 0.717790 0.889232 0.342199
S4    S     S_3+6 0.364933 0.344537 0.033381 0.102401
O18   O     O_2   0.295453 0.422219 0.977385 -0.309915
O19   O     O_2   0.390538 0.242610 0.907062 -0.293448
O20   O     O_3   0.319223 0.271869 0.133798 -0.489553
H28   H     H_    0.262336 0.223609 0.069526 0.348255

loop_
_geom_bond_atom_site_label_1
_geom_bond_atom_site_label_2
_ccdc_geom_bond_type
Cu1   O8    S    
O20   H28   S    
Cu2   O7    S    
C32   H20   S    
C11   O7    A    
S4    O20   S    
C12   O8    A    
C3    C27   S    
C7    C8    S    
O14   H26   S    
Cu2   O6    S    
C8    S1    S    
S2    O13   D    
C10   H9    S    
C1    C5    S    
C13   H1    S    
C19   C21   A    
S4    O19   D    
N1    S4    S    
S1    O9    D    
C5    H8    S    
C9    N1    D    
C27   H16   S    
C6    H7    S    
C13   C23   A    
C10   N2    D    
C14   C24   A    
C32   H19   S    
C30   H23   S    
Cu1   O4    S    
C26   H6    S    
C2    O4    A    
S2    O14   S    
C9    C10   S    
C18   C20   A    
Cu1   O5    S    
C31   H22   S    
C30   C31   S    
C21   C22   A    
C3    C24   A    
C2    C6    S    
C14   H2    S    
C1    O3    A    
C7    S2    S    
S1    O10   D    
S2    O12   D    
C29   H11   S    
C3    C25   A    
S4    O18   D    
C12   O6    A    
S3    O16   D    
C4    C23   A    
C6    C8    D    
Cu2   N1    S    
C28   H15   S    
C27   H17   S    
C31   C32   S    
C29   H12   S    
S1    O11   S    
C30   H24   S    
C11   C16   S    
Cu1   O1    S    
C12   C15   S    
Cu1   N2    S    
C28   C29   S    
N2    S3    S    
C1    O1    A    
C20   C22   A    
C31   H21   S    
O17   H27   S    
C13   C15   A    
C17   H3    S    
C14   C16   A    
C11   O5    A    
C18   H4    S    
C5    C7    D    
C15   C17   A    
O11   H25   S    
S3    O17   S    
C4    C26   A    
Cu2   O3    S    
C28   H14   S    
C29   H13   S    
C21   C23   A    
C20   C26   A    
C2    O2    A    
C4    C30   S    
Cu2   O2    S    
C9    H10   S    
C17   C19   A    
C22   C24   A    
C32   H18   S    
C19   C25   A    
S3    O15   D    
C16   C18   A    
C27   C28   S    
Cu1   Cu2   S    
C25   H5    S    
