data_mof_unit_37521.cif
_audit_creation_date              2012-10-26T21:10:49-0400
_audit_creation_method            fapswitch 2.2
_symmetry_space_group_name_H-M    P1
_symmetry_Int_Tables_number       1
_space_group_crystal_system       triclinic
_cell_length_a                    10.839606
_cell_length_b                    14.677402
_cell_length_c                    14.658143
_cell_angle_alpha                 65.168966
_cell_angle_beta                  103.439168
_cell_angle_gamma                 102.875768
_cell_volume                      2037.69162779

loop_
_atom_site_label
_atom_site_type_symbol
_atom_type_description
_atom_site_fract_x
_atom_site_fract_y
_atom_site_fract_z
_atom_type_partial_charge
C1    C     C_R   0.477981 0.119649 0.312051 0.543282
C2    C     C_R   0.558995 0.783350 0.974017 -0.132826
C3    C     C_R   0.450550 0.149719 0.127694 -0.141299
C4    C     C_R   0.549452 0.850280 0.872306 -0.141298
C5    C     C_R   0.480709 0.291483 0.177694 -0.096682
C6    C     C_R   0.519294 0.708517 0.822305 -0.096681
C7    C     C_R   0.488644 0.360563 0.077795 0.039146
C8    C     C_R   0.511361 0.639436 0.922203 0.039146
C9    C     C_R   0.456573 0.321658 0.000533 0.028008
C10   C     C_R   0.543431 0.678341 0.999466 0.028008
C11   C     C_R   0.515415 0.467021 0.052043 0.021272
C12   C     C_R   0.522019 0.880351 0.687949 0.543277
C13   C     C_R   0.484590 0.532977 0.947956 0.021272
C14   C     C_R   0.427990 0.489341 0.874394 0.060456
C15   C     C_R   0.572016 0.510657 0.125604 0.060455
C16   C     C_R   0.262862 0.999050 0.502650 0.546682
C17   C     C_R   0.737139 0.000948 0.497352 0.546684
C18   C     C_R   0.427062 0.386674 0.899716 -0.107184
C19   C     C_R   0.572943 0.613324 0.100283 -0.107185
C20   C     C_R   0.712193 0.284091 0.670183 -0.152602
C21   C     C_R   0.287817 0.715914 0.329810 -0.152600
C22   C     C_R   0.679467 0.202655 0.639963 0.048053
C23   C     C_R   0.870531 0.001163 0.495301 0.000451
C24   C     C_R   0.320541 0.797348 0.360030 0.048055
C25   C     C_R   0.519150 0.285496 0.508455 0.075651
C26   C     C_R   0.480845 0.714501 0.491550 0.075652
C27   C     C_R   0.548408 0.371507 0.534866 0.017322
C28   C     C_R   0.451592 0.628492 0.465137 0.017319
C29   C     C_R   0.646703 0.368411 0.618392 0.039946
C30   C     C_R   0.353303 0.631591 0.381606 0.039947
C31   C     C_R   0.483128 0.458897 0.483033 0.020960
C32   C     C_R   0.516873 0.541102 0.516970 0.020956
C33   C     C_R   0.614618 0.533125 0.601455 -0.133458
C34   C     C_R   0.129471 0.998832 0.504707 0.000451
C35   C     C_R   0.385389 0.466877 0.398543 -0.133453
C36   C     C_R   0.678278 0.448779 0.650516 -0.123809
C37   C     C_R   0.321732 0.551225 0.349479 -0.123808
C38   C     C_R   0.353413 0.090686 0.763661 -0.099653
C39   C     C_R   0.646610 0.909333 0.236324 -0.099659
C40   C     C_R   0.265192 0.042531 0.705868 -0.051008
C41   C     C_R   0.734828 0.957479 0.294126 -0.051017
C42   C     C_R   0.185911 0.099165 0.618763 0.047806
C43   C     C_R   0.814091 0.900834 0.381243 0.047816
C44   C     C_R   0.194142 0.203972 0.591954 -0.100858
C45   C     C_R   0.906843 0.950913 0.443906 -0.032417
C46   C     C_R   0.805839 0.796021 0.408061 -0.100848
C47   C     C_R   0.282071 0.251625 0.650298 -0.112496
C48   C     C_R   0.717910 0.748376 0.349710 -0.112488
C49   C     C_R   0.362363 0.195166 0.735557 -0.104216
C50   C     C_R   0.637640 0.804848 0.264434 -0.104203
C51   C     C_R   0.963828 0.050121 0.549884 -0.144311
C52   C     C_R   0.036172 0.949872 0.450126 -0.144310
C53   C     C_R   0.093158 0.049081 0.556103 -0.032414
C54   C     C_R   0.468685 0.187104 0.204107 -0.001915
C55   C     C_R   0.531317 0.812895 0.795893 -0.001914
C56   C     C_R   0.441009 0.216649 0.025983 -0.132828
Cu1   Cu    Cu3+1 0.466270 0.918260 0.475690 0.953787
Cu2   Cu    Cu3+1 0.533730 0.081740 0.524310 0.953783
H1    H     H_    0.431717 0.232384 0.779710 0.103509
H2    H     H_    0.728978 0.137039 0.680490 0.119892
H3    H     H_    0.787630 0.280837 0.734192 0.099506
H4    H     H_    0.212386 0.719170 0.265796 0.099504
H5    H     H_    0.644451 0.590944 0.632176 0.103448
H6    H     H_    0.355562 0.409061 0.367818 0.103452
H7    H     H_    0.414871 0.047099 0.830290 0.091555
H8    H     H_    0.585169 0.952931 0.169681 0.091550
H9    H     H_    0.259387 0.961533 0.728281 0.107395
H10   H     H_    0.740649 0.038481 0.271709 0.107392
H11   H     H_    0.133491 0.248798 0.525345 0.119927
H12   H     H_    0.568288 0.767637 0.220274 0.103503
H13   H     H_    0.866474 0.751186 0.474682 0.119919
H14   H     H_    0.288816 0.332493 0.628902 0.139770
H15   H     H_    0.711150 0.667504 0.371113 0.139762
H16   H     H_    0.936022 0.087192 0.590773 0.135426
H17   H     H_    0.063976 0.912800 0.409237 0.135432
H18   H     H_    0.389301 0.355684 0.841815 0.130302
H19   H     H_    0.610705 0.644314 0.158184 0.130305
H20   H     H_    0.523414 0.681952 0.764992 0.153327
H21   H     H_    0.476591 0.318047 0.235007 0.153329
H22   H     H_    0.560952 0.930940 0.853825 0.118188
H23   H     H_    0.418624 0.186288 0.967297 0.101735
H24   H     H_    0.439049 0.069060 0.146176 0.118193
H25   H     H_    0.581380 0.813711 0.032703 0.101733
H26   H     H_    0.752865 0.446246 0.714921 0.122403
H27   H     H_    0.247151 0.553761 0.285069 0.122402
H28   H     H_    0.556323 0.720175 0.551974 0.122303
H29   H     H_    0.443665 0.279818 0.448038 0.122303
H30   H     H_    0.271033 0.862966 0.319500 0.119891
I1    I     I_    0.306680 0.557866 0.733356 -0.443084
I2    I     I_    0.693327 0.442132 0.266641 -0.443076
N1    N     N_R   0.584450 0.204570 0.560790 -0.223983
N2    N     N_R   0.415550 0.795430 0.439210 -0.223981
O1    O     O_R   0.455540 0.022090 0.338120 -0.514219
O2    O     O_R   0.544460 0.977910 0.661880 -0.514223
O3    O     O_R   0.512510 0.160150 0.379180 -0.494226
O4    O     O_R   0.487490 0.839850 0.620820 -0.494230
O5    O     O_R   0.291160 0.930970 0.479480 -0.501937
O6    O     O_R   0.708840 0.069030 0.520520 -0.501938
O7    O     O_R   0.348130 0.069020 0.520540 -0.499333
O8    O     O_R   0.651870 0.930980 0.479460 -0.499329

loop_
_geom_bond_atom_site_label_1
_geom_bond_atom_site_label_2
_ccdc_geom_bond_type
C8    C13   A    
C23   C45   A    
Cu1   N2    S    
C27   C29   A    
C14   C18   A    
Cu2   O6    S    
C51   H16   S    
C6    C55   A    
C1    C54   S    
C52   H17   S    
C56   H23   S    
C47   C49   A    
C38   C49   A    
C15   C19   A    
C29   C36   A    
C17   C23   S    
C37   H27   S    
C35   C37   A    
C4    H22   S    
C42   C53   S    
C22   H2    S    
C3    C54   A    
C16   O5    A    
C6    H20   S    
C26   N2    A    
C25   H29   S    
C33   C36   A    
C20   H3    S    
C19   H19   S    
C16   C34   S    
C11   C15   A    
C40   H9    S    
C22   N1    A    
C35   H6    S    
C5    H21   S    
Cu2   N1    S    
C44   C47   A    
C33   H5    S    
C40   C42   A    
Cu1   O1    S    
C13   C14   A    
C41   C43   A    
C12   O2    A    
C2    H25   S    
C42   C44   A    
C24   N2    A    
C17   O8    A    
C7    C11   A    
C41   H10   S    
C20   C29   A    
C46   C48   A    
C25   N1    A    
C27   C31   A    
C5    C54   A    
C28   C32   A    
C39   C41   A    
C5    C7    A    
C6    C8    A    
C26   H28   S    
C45   C52   A    
Cu1   O8    S    
Cu1   O4    S    
C30   C37   A    
C51   C53   A    
C2    C4    A    
Cu2   O3    S    
C14   I1    S    
C43   C45   S    
C3    C56   A    
C23   C51   A    
C31   C32   A    
C38   H7    S    
C10   C19   A    
C1    O3    A    
Cu1   O5    S    
C3    H24   S    
C21   H4    S    
C44   H11   S    
C9    C56   A    
C24   H30   S    
C46   H13   S    
C8    C10   A    
C20   C22   A    
C4    C55   A    
C39   H8    S    
C31   C35   A    
C2    C10   A    
C17   O6    A    
C7    C9    A    
C18   H18   S    
C26   C28   A    
C48   H15   S    
Cu2   O7    S    
C16   O7    A    
C25   C27   A    
C21   C30   A    
C34   C52   A    
C49   H1    S    
C32   C33   A    
C28   C30   A    
C50   H12   S    
C15   I2    S    
C38   C40   A    
C11   C13   A    
Cu1   Cu2   S    
C36   H26   S    
C48   C50   A    
Cu2   O2    S    
C43   C46   A    
C47   H14   S    
C12   C55   S    
C9    C18   A    
C39   C50   A    
C34   C53   A    
C1    O1    A    
C21   C24   A    
C12   O4    A    
