data_mof_unit_59466.cif
_audit_creation_date              2012-10-26T18:32:25-0400
_audit_creation_method            fapswitch 2.2
_symmetry_space_group_name_H-M    P1
_symmetry_Int_Tables_number       1
_space_group_crystal_system       triclinic
_cell_length_a                    12.387954
_cell_length_b                    13.027518
_cell_length_c                    15.866988
_cell_angle_alpha                 76.987282
_cell_angle_beta                  101.571548
_cell_angle_gamma                 116.070895
_cell_volume                      2225.90560115

loop_
_atom_site_label
_atom_site_type_symbol
_atom_type_description
_atom_site_fract_x
_atom_site_fract_y
_atom_site_fract_z
_atom_type_partial_charge
C1    C     C_R   0.855533 0.285346 0.507687 0.596498
C2    C     C_R   0.227897 0.840347 0.475197 0.023000
C3    C     C_R   0.816036 0.077822 0.565464 0.217632
C4    C     C_R   0.999705 0.499164 0.659682 0.554666
C5    C     C_R   0.733147 0.973192 0.604265 -0.056317
C6    C     C_R   0.609604 0.945678 0.589088 0.208340
C7    C     C_R   0.564647 0.014912 0.521723 0.015491
C8    C     C_R   0.650054 0.122376 0.482173 -0.051561
C9    C     C_R   0.439117 0.983837 0.492385 0.049114
C10   C     C_R   0.402073 0.067766 0.439218 -0.034750
C11   C     C_R   0.486825 0.170386 0.399810 -0.074752
C12   C     C_3   0.013554 0.387928 0.072454 0.172364
C13   C     C_R   0.607743 0.190383 0.412924 0.254236
C14   C     C_R   0.350938 0.869957 0.506131 -0.083785
C15   C     C_R   0.190700 0.928313 0.428806 0.283817
C16   C     C_R   0.144965 0.715135 0.486753 0.573415
C17   C     C_R   0.774692 0.159753 0.513980 -0.004857
C18   C     C_R   0.355075 0.334866 0.643422 -0.113787
C19   C     C_R   0.757726 0.650730 0.385100 0.374834
C20   C     C_R   0.677685 0.703246 0.375667 0.305645
C21   C     C_R   0.577905 0.651730 0.422565 0.199149
C22   C     C_R   0.557984 0.545866 0.479490 -0.041385
C23   C     C_3   0.999908 0.497689 0.083393 -0.024711
C24   C     C_R   0.655494 0.508451 0.498742 0.091853
C25   C     C_R   0.450717 0.480471 0.523459 0.017129
C26   C     C_R   0.452793 0.393822 0.594758 -0.015169
C27   C     C_R   0.551701 0.365179 0.617070 -0.170263
C28   C     C_R   0.999904 0.500184 0.340357 0.586035
C29   C     C_R   0.649038 0.418913 0.568838 -0.076910
C30   C     C_R   0.339328 0.493519 0.498724 0.054948
C31   C     C_R   0.253941 0.359848 0.621393 0.382847
C32   C     C_3   0.019055 0.390808 0.974450 0.037866
C33   C     C_3   0.874880 0.489801 0.933845 0.157690
C34   C     C_3   0.102459 0.610902 0.044079 0.147496
C35   C     C_3   0.878115 0.493850 0.031494 -0.261344
C36   C     C_1   0.998841 0.499233 0.250776 0.086269
C37   C     C_3   0.998493 0.496746 0.917397 0.014335
C38   C     C_3   0.103596 0.267859 0.155179 -0.086330
C39   C     C_3   0.055068 0.975543 0.318964 -0.094406
C40   C     C_3   0.978225 0.063248 0.533863 -0.065305
C41   C     C_3   0.766908 0.899750 0.361647 -0.068113
C42   C     C_3   0.744955 0.543622 0.823215 -0.063167
C43   C     C_3   0.105668 0.607556 0.947367 0.128079
C44   C     C_1   0.998530 0.498374 0.175357 0.046665
C45   C     C_1   0.998892 0.496559 0.825120 0.074210
C46   C     C_1   0.999250 0.497564 0.749467 0.068334
C47   C     C_R   0.279831 0.043033 0.415508 -0.124646
Cl1   Cl    Cl    0.523587 0.837858 0.668523 -0.557885
Cl2   Cl    Cl    0.913332 0.255615 0.939985 -0.591812
Cl3   Cl    Cl    0.695969 0.284888 0.329625 -0.588946
Cl4   Cl    Cl    0.137649 0.284706 0.688558 -0.457297
Cl5   Cl    Cl    0.861385 0.705046 0.308434 -0.487540
Cl6   Cl    Cl    0.494741 0.734876 0.416698 -0.607028
Cl7   Cl    Cl    0.109536 0.739675 0.879774 -0.470925
Cl8   Cl    Cl    0.248755 0.638663 0.105084 -0.452818
Cu1   Cu    Cu3+1 0.098280 0.475420 0.519630 1.087681
Cu2   Cu    Cu3+1 0.901720 0.524580 0.480370 1.074296
H1    H     H_    0.930355 0.312130 0.094387 0.156908
H2    H     H_    0.322623 0.543081 0.437726 0.203333
H3    H     H_    0.718806 0.388895 0.590342 0.181373
H4    H     H_    0.803157 0.403566 0.920405 0.155985
H5    H     H_    0.801237 0.416496 0.059184 0.131656
H6    H     H_    0.864966 0.570747 0.038269 0.198314
H7    H     H_    0.191762 0.604209 0.940672 0.181271
H8    H     H_    0.077111 0.216892 0.101109 0.176033
H9    H     H_    0.035436 0.226178 0.202426 0.101591
H10   H     H_    0.190583 0.267706 0.190160 0.153793
H11   H     H_    0.964903 0.934959 0.282750 0.206310
H12   H     H_    0.109965 0.399161 0.966392 0.192781
H13   H     H_    0.121491 0.996327 0.272898 0.138154
H14   H     H_    0.058980 0.055028 0.336643 0.066101
H15   H     H_    0.961862 0.099656 0.464365 0.090199
H16   H     H_    0.935096 0.967021 0.543273 0.116549
H17   H     H_    0.077314 0.090471 0.550242 0.171512
H18   H     H_    0.800487 0.978912 0.312772 0.145170
H19   H     H_    0.846800 0.890248 0.403093 0.114266
H20   H     H_    0.713137 0.913796 0.402480 0.167102
H21   H     H_    0.664630 0.490166 0.859026 0.132511
H22   H     H_    0.753085 0.493874 0.778092 0.110028
H23   H     H_    0.082677 0.685148 0.047820 0.193066
H24   H     H_    0.731054 0.619436 0.783279 0.187610
H25   H     H_    0.457387 0.228208 0.350339 0.152113
H26   H     H_    0.256264 0.113295 0.380724 0.093552
H27   H     H_    0.378785 0.800891 0.533356 0.229207
H28   H     H_    0.766546 0.917349 0.652575 0.190162
H29   H     H_    0.552810 0.298168 0.671598 0.134806
H30   H     H_    0.357526 0.269805 0.699187 0.153583
N1    N     N_R   0.246300 0.438200 0.549400 -0.248033
N2    N     N_R   0.754300 0.561180 0.451130 -0.262003
O1    O     O_R   0.972520 0.318130 0.524690 -0.428235
O2    O     O_3   0.069538 0.898812 0.395048 -0.532997
O3    O     O_3   0.937777 0.105845 0.589637 -0.482803
O4    O     O_3   0.695396 0.804355 0.317318 -0.466817
O5    O     O_3   0.851278 0.583538 0.881710 -0.500634
O6    O     O_R   0.806530 0.359650 0.491530 -0.504071
O7    O     O_R   0.083030 0.479240 0.637150 -0.434967
O8    O     O_R   0.917040 0.520750 0.603990 -0.546457
O9    O     O_R   0.193470 0.640350 0.508470 -0.506084
O10   O     O_R   0.027480 0.681870 0.475310 -0.428395
O11   O     O_R   0.082960 0.479250 0.396010 -0.525979
O12   O     O_R   0.916970 0.520760 0.362850 -0.404790
O13   O     O_3   0.120034 0.383447 0.123599 -0.510901

loop_
_geom_bond_atom_site_label_1
_geom_bond_atom_site_label_2
_ccdc_geom_bond_type
C20   O4    S    
C1    O1    A    
C27   C29   A    
C39   H11   S    
C19   C20   A    
C18   C26   A    
C15   C47   A    
C24   N2    A    
C7    C8    A    
C4    C46   S    
C45   C46   T    
Cu1   Cu2   S    
C12   C23   S    
C26   C27   A    
C8    C13   A    
Cu2   N2    S    
C41   H20   S    
C5    C6    A    
Cu1   N1    S    
Cu2   O10   S    
C40   H16   S    
C7    C9    A    
C24   C29   A    
C34   H23   S    
C4    O7    A    
C19   Cl5   S    
C41   O4    S    
C38   H9    S    
C22   C25   A    
C29   H3    S    
C47   H26   S    
C2    C16   S    
C9    C10   A    
C5    H28   S    
C28   O11   A    
Cu1   O1    S    
C34   Cl8   S    
C4    O8    A    
C12   C32   S    
C42   H24   S    
C28   O12   A    
C39   O2    S    
C43   H7    S    
C11   H25   S    
C38   H10   S    
C25   C26   A    
C33   C37   S    
C23   C44   S    
C3    O3    S    
C37   C43   S    
C27   H29   S    
C9    C14   A    
C12   O13   S    
C19   N2    A    
C41   H18   S    
C43   Cl7   S    
C38   H8    S    
C14   H27   S    
C1    O6    A    
C23   C34   S    
Cu2   O8    S    
C30   H2    S    
C32   C37   S    
C40   O3    S    
C2    C15   A    
C32   H12   S    
C6    Cl1   S    
C42   H21   S    
C23   C35   S    
C22   C24   A    
C36   C44   T    
Cu1   O11   S    
C37   C45   S    
C25   C30   A    
Cu1   O7    S    
C31   N1    A    
C40   H15   S    
C42   O5    S    
C34   C43   S    
C18   H30   S    
C31   Cl4   S    
C3    C5    A    
C16   O10   A    
C6    C7    A    
Cu2   O12   S    
C1    C17   S    
C8    C17   A    
C33   O5    S    
C12   H1    S    
C38   O13   S    
C41   H19   S    
C21   Cl6   S    
C11   C13   A    
C16   O9    A    
Cu1   O9    S    
C33   C35   S    
C39   H13   S    
C40   H17   S    
C3    C17   A    
C35   H5    S    
C2    C14   A    
C32   Cl2   S    
C10   C11   A    
C15   O2    S    
C13   Cl3   S    
C42   H22   S    
C20   C21   A    
C28   C36   S    
C33   H4    S    
Cu2   O6    S    
C10   C47   A    
C39   H14   S    
C35   H6    S    
C18   C31   A    
C21   C22   A    
C30   N1    A    
