data_mof_unit_7659.cif
_audit_creation_date              2012-12-10T18:07:06-0500
_audit_creation_method            fapswitch 2.2
_symmetry_space_group_name_H-M    P1
_symmetry_Int_Tables_number       1
_space_group_crystal_system       triclinic
_cell_length_a                    10.940385
_cell_length_b                    12.692195
_cell_length_c                    13.886212
_cell_angle_alpha                 97.892789
_cell_angle_beta                  91.000945
_cell_angle_gamma                 93.48984
_cell_volume                      1905.74595248

loop_
_atom_site_label
_atom_site_type_symbol
_atom_type_description
_atom_site_fract_x
_atom_site_fract_y
_atom_site_fract_z
_atom_type_partial_charge
C1    C     C_R   0.500678 0.483643 0.315808 0.787372
C2    C     C_3   0.878634 0.502285 0.490697 -0.295370
C3    C     C_3   0.931318 0.450101 0.579364 -0.152084
C4    C     C_3   0.933263 0.625694 0.501912 0.468793
C5    C     C_1   0.516467 0.525470 0.787214 -0.100572
C6    C     C_2   0.546744 0.539911 0.976975 0.464584
C7    C     C_2   0.491300 0.464084 0.022099 -0.316899
C8    C     C_1   0.497232 0.468678 0.125704 0.113715
C9    C     C_1   0.530356 0.532762 0.873746 -0.030030
C10   C     C_1   0.500160 0.474937 0.212624 -0.090430
C11   C     C_2   0.463805 0.028686 0.482049 -0.254634
C12   C     C_R   0.260005 0.499934 0.492083 0.924065
C13   C     C_2   0.547747 0.971721 0.522739 0.026872
C14   C     C_1   0.530057 0.854700 0.518041 0.324738
C15   C     C_1   0.473744 0.145506 0.483641 0.274442
C16   C     C_R   0.503211 0.516445 0.684260 0.899021
C17   C     C_R   0.740690 0.500076 0.496607 0.889606
C18   C     C_3   0.068076 0.424058 0.387197 0.404698
C19   C     C_3   0.923547 0.443399 0.387184 -0.171571
C20   C     C_3   0.072272 0.448774 0.575074 0.197113
C21   C     C_3   0.073737 0.619283 0.482170 0.151136
C22   C     C_3   0.122855 0.500114 0.485797 -0.405734
Cu1   Cu    Cu3+1 0.491980 0.395330 0.493960 1.032310
Cu2   Cu    Cu3+1 0.508020 0.604670 0.506040 1.160163
H1    H     H_    0.912712 0.503197 0.645703 0.267609
H2    H     H_    0.436179 0.398520 0.980715 0.136011
H3    H     H_    0.382346 0.986330 0.446566 0.198529
H4    H     H_    0.914655 0.504404 0.339870 0.194654
H5    H     H_    0.095928 0.365665 0.560947 0.224412
H6    H     H_    0.076280 0.623694 0.404361 0.127318
N1    N     N_1   0.479930 0.238040 0.484880 -0.135498
N2    N     N_1   0.520070 0.761960 0.515120 -0.106245
O1    O     O_R   0.492240 0.399110 0.356330 -0.602926
O2    O     O_R   0.505790 0.575900 0.366540 -0.526598
O3    O     O_R   0.310920 0.411610 0.494880 -0.512685
O4    O     O_R   0.324460 0.588390 0.505090 -0.508395
O5    O     O_R   0.494210 0.424100 0.633460 -0.584243
O6    O     O_R   0.507760 0.600890 0.643670 -0.532364
O7    O     O_R   0.675540 0.411610 0.494910 -0.629635
O8    O     O_R   0.689080 0.588390 0.505120 -0.492638
S1    S     S_3+6 0.090219 0.276854 0.379675 -0.008111
O9    O     O_2   0.044311 0.219174 0.282959 -0.281811
O10   O     O_2   0.222212 0.253321 0.389037 -0.259162
O11   O     O_3   0.013463 0.216341 0.462393 -0.605027
H7    H     H_    0.033487 0.140692 0.449785 0.402303
S2    S     S_3+6 0.909407 0.700040 0.625357 0.099311
O12   O     O_2   0.794290 0.660014 0.669781 -0.325107
O13   O     O_2   0.014452 0.687481 0.692720 -0.184829
O14   O     O_3   0.899274 0.831721 0.624971 -0.435373
H8    H     H_    0.886541 0.861281 0.693602 0.369336
S3    S     S_3+6 0.149762 0.482417 0.693534 0.033280
O15   O     O_2   0.229986 0.583144 0.700675 -0.209860
O16   O     O_2   0.059345 0.492790 0.774111 -0.255308
O17   O     O_3   0.238294 0.382141 0.709787 -0.543674
H9    H     H_    0.268825 0.398237 0.778126 0.360930
S4    S     S_3+6 0.638576 0.648426 0.039283 0.062154
O18   O     O_2   0.561551 0.713901 0.110175 -0.249191
O19   O     O_2   0.741009 0.606824 0.093800 -0.264943
O20   O     O_3   0.697298 0.724683 0.959256 -0.489291
H10   H     H_    0.748345 0.782223 0.999203 0.385480
C23   C     C_3   0.664471 0.024915 0.572254 -0.355826
C24   C     C_3   0.660238 0.026716 0.682190 -0.784594
H11   H     H_    0.582059 0.071772 0.711732 0.255789
H12   H     H_    0.650566 0.944267 0.700762 0.270396
H13   H     H_    0.746520 0.066362 0.716626 0.250352
H14   H     H_    0.743880 0.980794 0.544141 0.267767
H15   H     H_    0.681559 0.107855 0.556455 0.195985
C25   C     C_3   0.131104 0.466506 0.294212 -0.454204
C26   C     C_3   0.199674 0.391580 0.220634 -0.641460
H16   H     H_    0.274126 0.354721 0.256189 0.275027
H17   H     H_    0.138195 0.330132 0.177126 0.273736
H18   H     H_    0.242565 0.439091 0.167319 0.206367
H19   H     H_    0.064995 0.503787 0.250003 0.218539
H20   H     H_    0.201599 0.531837 0.318200 0.185138
C27   C     C_3   0.834475 0.353238 0.330556 -0.270336
C28   C     C_3   0.842202 0.344528 0.219497 -0.743815
H21   H     H_    0.806906 0.416454 0.193916 0.260424
H22   H     H_    0.936282 0.337238 0.194120 0.286172
H23   H     H_    0.784812 0.273729 0.185041 0.245528
H24   H     H_    0.843244 0.275093 0.355806 0.268461
H25   H     H_    0.738270 0.371174 0.340889 0.204716
C29   C     C_3   0.870910 0.339966 0.598734 -0.315046
C30   C     C_3   0.779714 0.350121 0.681572 -0.775762
H26   H     H_    0.719719 0.415940 0.675969 0.256390
H27   H     H_    0.722478 0.274604 0.679880 0.236325
H28   H     H_    0.829872 0.367291 0.752789 0.276007
H29   H     H_    0.826203 0.295315 0.532033 0.254018
H30   H     H_    0.940321 0.288167 0.622814 0.253166
S5    S     S_3+6 0.166078 0.746255 0.515224 0.115740
O21   O     O_2   0.259321 0.756441 0.438116 -0.307407
O22   O     O_2   0.088577 0.839945 0.516537 -0.174463
O23   O     O_3   0.238834 0.756504 0.623843 -0.415389
H31   H     H_    0.287685 0.825545 0.630465 0.349511
S6    S     S_3+6 0.864208 0.702347 0.409654 0.056844
O24   O     O_2   0.778908 0.633164 0.337840 -0.316999
O25   O     O_2   0.790789 0.789591 0.458312 -0.231734
O26   O     O_3   0.971755 0.759383 0.344622 -0.491517
H32   H     H_    0.925822 0.799353 0.301022 0.396434

loop_
_geom_bond_atom_site_label_1
_geom_bond_atom_site_label_2
_ccdc_geom_bond_type
S1    O9    D    
C28   H23   S    
C6    C9    S    
O26   H32   S    
C1    O1    A    
C7    C8    S    
C4    S2    S    
S2    O14   S    
Cu2   O4    S    
C7    H2    S    
C28   H22   S    
C20   S3    S    
C29   H30   S    
C25   H20   S    
C29   H29   S    
C12   C22   S    
S4    O18   D    
C18   C19   S    
C17   O7    A    
C26   H17   S    
C5    C16   S    
C24   H12   S    
O17   H9    S    
C11   C15   S    
C23   H14   S    
C25   C26   S    
Cu1   O1    S    
Cu2   O6    S    
Cu1   Cu2   S    
C12   O4    A    
C27   H24   S    
C23   C24   S    
C16   O5    A    
O20   H10   S    
C21   C22   S    
C2    C17   S    
S1    O10   D    
S6    O24   D    
C1    O2    A    
C20   H5    S    
S2    O13   D    
S3    O15   D    
C3    H1    S    
C28   H21   S    
C18   S1    S    
C14   N2    T    
C27   H25   S    
C21   S5    S    
S6    O26   S    
C25   H19   S    
Cu1   O5    S    
Cu2   O2    S    
S3    O16   D    
C17   O8    A    
Cu1   N1    S    
C26   H18   S    
C2    C4    S    
C27   C28   S    
Cu2   N2    S    
C5    C9    T    
C24   H11   S    
C23   H15   S    
C30   H26   S    
C11   H3    S    
C3    C29   S    
C3    C20   S    
S5    O23   S    
S6    O25   D    
C19   H4    S    
C4    S6    S    
C30   H27   S    
C20   C22   S    
O14   H8    S    
Cu1   O3    S    
S1    O11   S    
S5    O22   D    
O11   H7    S    
S2    O12   D    
C24   H13   S    
C2    C19   S    
C18   C22   S    
C1    C10   S    
C6    S4    S    
C15   N1    T    
C6    C7    D    
C21   H6    S    
S4    O20   S    
S3    O17   S    
C19   C27   S    
C2    C3    S    
C4    C21   S    
C11   C13   D    
Cu1   O7    S    
O23   H31   S    
Cu2   O8    S    
S4    O19   D    
C26   H16   S    
C30   H28   S    
C13   C23   S    
C8    C10   T    
C29   C30   S    
S5    O21   D    
C13   C14   S    
C18   C25   S    
C12   O3    A    
C16   O6    A    
