data_mof_unit_15323.cif
_audit_creation_date              2012-12-10T17:18:58-0500
_audit_creation_method            fapswitch 2.2
_symmetry_space_group_name_H-M    P1
_symmetry_Int_Tables_number       1
_space_group_crystal_system       triclinic
_cell_length_a                    9.60217
_cell_length_b                    10.775983
_cell_length_c                    13.419083
_cell_angle_alpha                 92.368902
_cell_angle_beta                  71.977705
_cell_angle_gamma                 90.080382
_cell_volume                      1319.16167052

loop_
_atom_site_label
_atom_site_type_symbol
_atom_type_description
_atom_site_fract_x
_atom_site_fract_y
_atom_site_fract_z
_atom_type_partial_charge
C1    C     C_R   0.498547 0.737383 0.503514 0.784666
C2    C     C_R   0.369650 0.504131 0.817161 -0.149621
C3    C     C_R   0.281586 0.878969 0.671348 -0.187330
C4    C     C_R   0.420250 0.503859 0.700795 0.789339
C5    C     C_R   0.177106 0.947823 0.749494 -0.142855
C6    C     C_R   0.176785 0.076882 0.749203 -0.119951
C7    C     C_R   0.280886 0.137840 0.670731 -0.160489
C8    C     C_R   0.386498 0.069995 0.589648 0.088272
C9    C     C_R   0.386777 0.938757 0.589923 0.097186
C10   C     C_R   0.495773 0.871494 0.510621 -0.103628
C11   C     C_R   0.605662 0.932689 0.436170 -0.175796
C12   C     C_R   0.433114 0.510738 0.981135 0.086875
C13   C     C_R   0.605526 0.060714 0.435994 -0.207653
C14   C     C_R   0.495433 0.129389 0.510208 -0.085588
C15   C     C_R   0.915624 0.337128 0.359481 -0.095555
C16   C     C_R   0.498584 0.262867 0.503077 0.758322
C17   C     C_R   0.016698 0.256652 0.290927 -0.200481
C18   C     C_R   0.159673 0.254581 0.292009 -0.222618
C19   C     C_R   0.202681 0.333495 0.361196 -0.145923
C20   C     C_R   0.103838 0.418473 0.431734 0.217080
C21   C     C_R   0.954473 0.419308 0.431315 0.228564
C22   C     C_R   0.898556 0.577872 0.564461 -0.033005
C23   C     C_R   0.463848 0.543941 0.875384 0.018655
C24   C     C_R   0.046248 0.577648 0.564662 -0.022021
C25   C     C_R   0.579424 0.503669 0.299858 0.817885
C26   C     C_R   0.778083 0.618026 0.030272 -0.241305
C27   C     C_R   0.625394 0.522044 0.186247 -0.131714
C28   C     C_R   0.231751 0.453435 0.870278 0.387476
C29   C     C_R   0.194994 0.434925 0.977937 -0.205533
C30   C     C_R   0.294737 0.459842 0.031877 -0.201202
C31   C     C_R   0.540976 0.532364 0.032515 0.102097
C32   C     C_R   0.670621 0.596520 0.981035 0.097294
C33   C     C_R   0.689871 0.641992 0.882098 -0.205534
C34   C     C_R   0.586574 0.618455 0.831093 -0.169895
C35   C     C_R   0.524106 0.491958 0.133552 -0.306125
C36   C     C_R   0.756160 0.582470 0.132715 0.361644
Cl1   Cl    Cl    0.892177 0.622790 0.191010 -0.642285
Cu1   Cu    Cu3+1 0.359340 0.500010 0.500010 0.957640
Cu2   Cu    Cu3+1 0.640660 0.499990 0.499990 0.964598
H1    H     H_    0.280479 0.779170 0.676921 0.136409
H2    H     H_    0.314893 0.323613 0.355172 0.193572
H3    H     H_    0.784931 0.696645 0.844045 0.134872
H4    H     H_    0.078635 0.641361 0.617687 0.133442
H5    H     H_    0.877527 0.666339 0.990174 0.172457
H6    H     H_    0.431101 0.437987 0.174349 0.158667
H7    H     H_    0.257719 0.441722 0.114216 0.174982
H8    H     H_    0.089442 0.397409 0.020153 0.157481
H9    H     H_    0.602083 0.662527 0.757714 0.147994
H10   H     H_    0.690116 0.880818 0.376352 0.182514
H11   H     H_    0.044638 0.387496 0.864869 0.313844
H12   H     H_    0.097267 0.900845 0.811310 0.136962
H13   H     H_    0.096737 0.130098 0.810817 0.144381
H14   H     H_    0.279158 0.238093 0.675678 0.189759
H15   H     H_    0.689960 0.106481 0.376086 0.139262
H16   H     H_    0.821384 0.642535 0.616674 0.123985
H17   H     H_    0.808793 0.330928 0.352546 0.185145
H18   H     H_    0.983441 0.195136 0.236759 0.149188
H19   H     H_    0.238334 0.191430 0.238632 0.157497
N1    N     N_R   0.852480 0.498790 0.499000 -0.193823
N2    N     N_R   0.148360 0.498710 0.498970 -0.197024
O1    O     O_R   0.381190 0.680360 0.500010 -0.579305
O2    O     O_R   0.618760 0.680340 0.500000 -0.567158
O3    O     O_R   0.323240 0.499990 0.650990 -0.528403
O4    O     O_R   0.560820 0.499960 0.650980 -0.588913
O5    O     O_R   0.381240 0.319660 0.500000 -0.601128
O6    O     O_R   0.618810 0.319640 0.499990 -0.594287
O7    O     O_R   0.439180 0.500040 0.349020 -0.598928
O8    O     O_R   0.676760 0.500010 0.349010 -0.547282
O9    O     O_3   0.135240 0.420935 0.815860 -0.737648

loop_
_geom_bond_atom_site_label_1
_geom_bond_atom_site_label_2
_ccdc_geom_bond_type
C2    C4    S    
C26   C32   A    
C22   H16   S    
C3    C9    A    
C27   C36   A    
C20   N2    A    
C13   H15   S    
C9    C10   A    
C4    O4    A    
C28   O9    S    
C25   O7    A    
Cu1   O5    S    
C30   H7    S    
C24   N2    A    
C23   C34   A    
Cu2   N1    S    
C32   C33   A    
Cu1   O1    S    
C19   C20   A    
C17   C18   A    
C26   H5    S    
C7    C8    A    
C13   C14   A    
C1    O2    A    
Cu2   O4    S    
C11   C13   A    
C12   C23   A    
C29   C30   A    
C25   O8    A    
C27   C35   A    
C29   H8    S    
Cu1   N2    S    
C33   H3    S    
C22   C24   A    
C4    O3    A    
C36   Cl1   S    
H11   O9    S    
C33   C34   A    
C3    H1    S    
C21   N1    A    
C6    C7    A    
C31   C35   A    
C2    C23   A    
C12   C31   A    
C5    C6    A    
C24   H4    S    
Cu2   O6    S    
C14   C16   S    
C34   H9    S    
C10   C11   A    
C7    H14   S    
C35   H6    S    
C15   C21   A    
Cu1   Cu2   S    
Cu1   O7    S    
C15   H17   S    
C18   C19   A    
Cu2   O8    S    
C26   C36   A    
C22   N1    A    
C15   C17   A    
Cu2   O2    S    
C2    C28   A    
C28   C29   A    
C16   O6    A    
C11   H10   S    
C16   O5    A    
C8    C14   A    
C6    H13   S    
C20   C21   A    
Cu1   O3    S    
C12   C30   A    
C18   H19   S    
C31   C32   A    
C5    H12   S    
C1    C10   S    
C19   H2    S    
C17   H18   S    
C8    C9    A    
C3    C5    A    
C25   C27   S    
C1    O1    A    
