data_mof_unit_46106.cif
_audit_creation_date              2012-10-26T18:50:01-0400
_audit_creation_method            fapswitch 2.2
_symmetry_space_group_name_H-M    P1
_symmetry_Int_Tables_number       1
_space_group_crystal_system       triclinic
_cell_length_a                    10.851971
_cell_length_b                    13.10194
_cell_length_c                    11.641856
_cell_angle_alpha                 100.25124
_cell_angle_beta                  93.112165
_cell_angle_gamma                 88.156465
_cell_volume                      1626.00865488

loop_
_atom_site_label
_atom_site_type_symbol
_atom_type_description
_atom_site_fract_x
_atom_site_fract_y
_atom_site_fract_z
_atom_type_partial_charge
C1    C     C_R   0.496672 0.298779 0.478642 0.604809
C2    C     C_R   0.543240 0.861847 0.443926 -0.064291
C3    C     C_R   0.450105 0.026031 0.536372 -0.075025
C4    C     C_R   0.510516 0.967041 0.440954 -0.047169
C5    C     C_R   0.376349 0.413241 0.023291 -0.192047
C6    C     C_R   0.622178 0.588435 0.976909 -0.188372
C7    C     C_R   0.388364 0.420757 0.145356 0.031967
C8    C     C_R   0.609625 0.581336 0.854870 0.033317
C9    C     C_R   0.554486 0.535651 0.156158 0.046176
C10   C     C_R   0.446099 0.463930 0.843889 0.016160
C11   C     C_R   0.544851 0.531511 0.033670 0.004043
C12   C     C_R   0.503069 0.700740 0.521323 0.573947
C13   C     C_R   0.454988 0.468904 0.966436 -0.001784
C14   C     C_R   0.262307 0.505977 0.502412 0.585288
C15   C     C_R   0.737240 0.494244 0.498482 0.600648
C16   C     C_R   0.112731 0.680091 0.633103 0.305529
C17   C     C_R   0.886152 0.303383 0.433647 0.311915
C18   C     C_R   0.042241 0.771657 0.666251 0.303117
C19   C     C_R   0.953179 0.217864 0.375727 0.299734
C20   C     C_R   0.916082 0.772617 0.634819 -0.179570
C21   C     C_R   0.078858 0.226861 0.361677 -0.182583
C22   C     C_R   0.860016 0.681842 0.581158 -0.180982
C23   C     C_R   0.496779 0.813916 0.531928 -0.047503
C24   C     C_R   0.136884 0.320003 0.404014 -0.187160
C25   C     C_R   0.929523 0.589288 0.546272 -0.056404
C26   C     C_R   0.069149 0.409510 0.455103 -0.053293
C27   C     C_R   0.059077 0.590539 0.562118 -0.047900
C28   C     C_R   0.940271 0.403099 0.461362 -0.045438
C29   C     C_R   0.870927 0.495381 0.499115 -0.001208
C30   C     C_R   0.128502 0.502593 0.506985 -0.002667
C31   C     C_3   0.227349 0.654784 0.794248 -0.039649
C32   C     C_3   0.794383 0.258758 0.586008 -0.088951
C33   C     C_3   0.034845 0.911838 0.819209 -0.127035
C34   C     C_R   0.494746 0.184488 0.465247 -0.027446
C35   C     C_3   0.881426 0.095540 0.225884 -0.081891
C36   C     C_3   0.641400 0.806082 0.365805 -0.331754
C37   C     C_3   0.433047 0.197362 0.677325 -0.352927
C38   C     C_3   0.461666 0.859154 0.810374 -0.072761
C39   C     C_3   0.504031 0.170842 0.178486 -0.089671
C40   C     C_3   0.458230 0.915477 0.180216 -0.161397
C41   C     C_3   0.191189 0.033319 0.602852 -0.066355
C42   C     C_R   0.536763 0.015547 0.346044 0.301694
C43   C     C_R   0.390592 0.973302 0.612617 0.270874
C44   C     C_R   0.532138 0.123895 0.359236 0.302134
C45   C     C_R   0.427186 0.872104 0.620024 0.290664
C46   C     C_R   0.455238 0.135298 0.556001 -0.083515
Cu1   Cu    Cu3+1 0.509250 0.507730 0.615930 0.960621
Cu2   Cu    Cu3+1 0.490750 0.492270 0.384070 0.967533
H1    H     H_    0.133355 0.159746 0.323970 0.108493
H2    H     H_    0.327077 0.377881 0.188435 0.119262
H3    H     H_    0.174802 0.715320 0.852551 0.110122
H4    H     H_    0.322733 0.653794 0.832891 0.154621
H5    H     H_    0.188002 0.577096 0.792788 0.078019
H6    H     H_    0.832799 0.325005 0.649811 0.100639
H7    H     H_    0.856326 0.189035 0.583583 0.120044
H8    H     H_    0.705936 0.239011 0.618341 0.139714
H9    H     H_    0.992223 0.857821 0.868698 0.082519
H10   H     H_    0.963836 0.964429 0.787235 0.094530
H11   H     H_    0.099100 0.960977 0.881213 0.148127
H12   H     H_    0.859504 0.842284 0.655625 0.108440
H13   H     H_    0.971345 0.079325 0.183979 0.069134
H14   H     H_    0.828099 0.156971 0.188348 0.150527
H15   H     H_    0.827342 0.023590 0.204854 0.173651
H16   H     H_    0.688752 0.742656 0.403186 0.107197
H17   H     H_    0.600231 0.771913 0.278899 0.157713
H18   H     H_    0.715426 0.860073 0.356119 0.174082
H19   H     H_    0.515814 0.241861 0.712835 0.132952
H20   H     H_    0.350479 0.249093 0.673478 0.134692
H21   H     H_    0.422486 0.150504 0.745888 0.166020
H22   H     H_    0.453348 0.944314 0.841745 0.118357
H23   H     H_    0.306005 0.364511 0.973952 0.082390
H24   H     H_    0.559887 0.835614 0.795532 0.079011
H25   H     H_    0.431349 0.820209 0.880708 0.115381
H26   H     H_    0.405095 0.180830 0.200538 0.070175
H27   H     H_    0.518580 0.099588 0.112996 0.135690
H28   H     H_    0.527126 0.236669 0.136191 0.139456
H29   H     H_    0.387405 0.976356 0.167734 0.091493
H30   H     H_    0.417546 0.858625 0.226846 0.128656
H31   H     H_    0.481898 0.873523 0.092600 0.121066
H32   H     H_    0.165367 0.960267 0.542829 0.151069
H33   H     H_    0.208573 0.095005 0.551817 0.101413
H34   H     H_    0.691743 0.637967 0.026325 0.085783
H35   H     H_    0.110896 0.059797 0.656336 0.142805
H36   H     H_    0.761049 0.685441 0.567624 0.130162
H37   H     H_    0.235751 0.319495 0.397893 0.139733
H38   H     H_    0.376725 0.416683 0.791489 0.108577
H39   H     H_    0.623746 0.583060 0.208737 0.110635
H40   H     H_    0.669556 0.625463 0.811877 0.123314
N1    N     N_R   0.523180 0.519350 0.790130 -0.235783
N2    N     N_R   0.476820 0.480650 0.209870 -0.229728
O1    O     O_R   0.506570 0.354460 0.582000 -0.524527
O2    O     O_3   0.773041 0.285520 0.474035 -0.515336
O3    O     O_3   0.102754 0.858907 0.725724 -0.500507
O4    O     O_3   0.898290 0.122219 0.348358 -0.544053
O5    O     O_3   0.385424 0.827653 0.709016 -0.447706
O6    O     O_3   0.585643 0.170931 0.277099 -0.498397
O7    O     O_3   0.567143 0.958575 0.239073 -0.573657
O8    O     O_3   0.293343 0.017084 0.678566 -0.546321
O9    O     O_R   0.493430 0.645540 0.418000 -0.517677
O10   O     O_R   0.490940 0.341410 0.386200 -0.462583
O11   O     O_R   0.509060 0.658590 0.613800 -0.459534
O12   O     O_R   0.327470 0.506520 0.597900 -0.477018
O13   O     O_R   0.672530 0.493480 0.402100 -0.496616
O14   O     O_R   0.311840 0.493460 0.402100 -0.523598
O15   O     O_R   0.688160 0.506540 0.597900 -0.515323
O16   O     O_3   0.231528 0.677094 0.680071 -0.470718

loop_
_geom_bond_atom_site_label_1
_geom_bond_atom_site_label_2
_ccdc_geom_bond_type
C38   H22   S    
C33   H10   S    
Cu1   O11   S    
C37   H21   S    
C11   C13   A    
C43   O8    S    
C31   H4    S    
C41   H32   S    
C21   H1    S    
C12   C23   S    
C3    C43   A    
C23   C45   A    
C28   C29   A    
C19   C21   A    
C24   C26   A    
C36   H18   S    
C14   O12   A    
C41   H35   S    
C37   H20   S    
C39   H26   S    
C12   O9    A    
C10   N1    A    
Cu1   O15   S    
C22   C25   A    
C38   O5    S    
C34   C46   A    
C39   H27   S    
C20   H12   S    
C24   H37   S    
C32   H7    S    
C5    C13   A    
C16   O16   S    
C16   C27   A    
C33   H11   S    
Cu1   O12   S    
Cu2   N2    S    
C27   C30   A    
Cu1   N1    S    
C17   O2    S    
C42   C44   A    
C14   C30   S    
C1    O10   A    
C32   H6    S    
C1    C34   S    
C15   C29   S    
C25   C29   A    
Cu2   O10   S    
C38   H24   S    
C34   C44   A    
C42   O7    S    
C40   O7    S    
C5    C7    A    
C36   H17   S    
C6    C8    A    
Cu2   O13   S    
C8    H40   S    
C22   H36   S    
C2    C4    A    
C44   O6    S    
C9    C11   A    
C14   O14   A    
Cu1   Cu2   S    
C41   H33   S    
C40   H31   S    
C35   H13   S    
C39   H28   S    
C31   H5    S    
C43   C45   A    
C19   O4    S    
C20   C22   A    
C26   C30   A    
C31   O16   S    
C40   H30   S    
C3    C4    A    
C45   O5    S    
C6    C11   A    
C35   O4    S    
C2    C36   S    
Cu2   O9    S    
C10   H38   S    
C33   H9    S    
C41   O8    S    
C17   C28   A    
Cu1   O1    S    
C7    H2    S    
C31   H3    S    
C10   C13   A    
C33   O3    S    
C9    N2    A    
C6    H34   S    
C25   C27   A    
C3    C46   A    
C26   C28   A    
C15   O15   A    
C12   O11   A    
C5    H23   S    
C9    H39   S    
C7    N2    A    
C32   O2    S    
C4    C42   A    
C37   H19   S    
C17   C19   A    
C35   H14   S    
C18   C20   A    
C39   O6    S    
C16   C18   A    
C1    O1    A    
C21   C24   A    
C2    C23   A    
C18   O3    S    
C40   H29   S    
C35   H15   S    
C8    N1    A    
C15   O13   A    
C37   C46   S    
C36   H16   S    
C32   H8    S    
C38   H25   S    
Cu2   O14   S    
