data_mof_unit_5928.cif
_audit_creation_date              2012-12-10T17:54:15-0500
_audit_creation_method            fapswitch 2.2
_symmetry_space_group_name_H-M    P1
_symmetry_Int_Tables_number       1
_space_group_crystal_system       triclinic
_cell_length_a                    27.698083
_cell_length_b                    10.657391
_cell_length_c                    9.901361
_cell_angle_alpha                 89.936758
_cell_angle_beta                  91.387135
_cell_angle_gamma                 92.306285
_cell_volume                      2919.55249187

loop_
_atom_site_label
_atom_site_type_symbol
_atom_type_description
_atom_site_fract_x
_atom_site_fract_y
_atom_site_fract_z
_atom_type_partial_charge
C1    C     C_R   0.503036 0.259630 0.501233 0.867257
C2    C     C_R   0.974597 0.402126 0.571614 0.018225
C3    C     C_R   0.976723 0.612263 0.466750 0.054855
C4    C     C_R   0.406033 0.498801 0.498387 0.892499
C5    C     C_R   0.950395 0.507589 0.520845 0.043158
C6    C     C_R   0.948586 0.314004 0.654488 0.080460
C7    C     C_R   0.898016 0.313181 0.650248 -0.181298
C8    C     C_R   0.873382 0.406926 0.581810 -0.045773
C9    C     C_R   0.899530 0.508138 0.523920 -0.060014
C10   C     C_R   0.874739 0.609312 0.468060 -0.009414
C11   C     C_R   0.824201 0.605653 0.468070 0.499477
C12   C     C_R   0.277244 0.486212 0.609566 -0.107204
C13   C     C_R   0.822846 0.404866 0.575408 0.513664
C14   C     C_R   0.721880 0.487107 0.633186 -0.098221
C15   C     C_R   0.671742 0.483288 0.628394 -0.235450
C16   C     C_R   0.493421 0.737927 0.499852 0.929781
C17   C     C_R   0.672551 0.508321 0.384865 -0.218640
C18   C     C_R   0.722764 0.508557 0.389327 -0.098455
C19   C     C_R   0.747621 0.499582 0.513710 0.305837
C20   C     C_R   0.023671 0.391469 0.539557 0.000542
C21   C     C_R   0.050948 0.498399 0.498181 0.066453
C22   C     C_R   0.027833 0.611716 0.467598 0.059829
C23   C     C_R   0.252576 0.487433 0.484739 0.326549
C24   C     C_R   0.045054 0.274868 0.536399 -0.239674
C25   C     C_R   0.106453 0.714315 0.431295 -0.163538
C26   C     C_R   0.950906 0.713035 0.412355 -0.226194
C27   C     C_R   0.900769 0.711271 0.412964 -0.140816
C28   C     C_R   0.593958 0.499082 0.501417 0.868087
C29   C     C_R   0.056631 0.719541 0.436565 -0.235706
C30   C     C_R   0.515747 0.107487 0.756306 -0.159648
C31   C     C_R   0.501917 0.047443 0.875247 -0.227827
C32   C     C_R   0.472279 0.939124 0.868790 -0.209410
C33   C     C_R   0.461227 0.882535 0.744045 0.409517
C34   C     C_R   0.101542 0.491571 0.486542 -0.080363
C35   C     C_R   0.481013 0.934901 0.624236 0.009629
C36   C     C_R   0.500730 0.057582 0.628724 0.048974
C37   C     C_R   0.503666 0.124641 0.504759 -0.095197
C38   C     C_R   0.497758 0.062059 0.381108 -0.217234
C39   C     C_R   0.489820 0.934618 0.379159 -0.208312
C40   C     C_R   0.175482 0.377822 0.505872 0.489636
C41   C     C_R   0.484054 0.869714 0.500617 -0.088069
C42   C     C_R   0.437051 0.333141 0.136483 -0.169632
C43   C     C_R   0.406275 0.249805 0.064535 -0.203040
C44   C     C_R   0.406326 0.249215 0.924720 -0.172367
C45   C     C_R   0.124383 0.375661 0.506308 -0.059586
C46   C     C_R   0.437116 0.332032 0.856045 -0.135499
C47   C     C_R   0.469131 0.417009 0.925656 0.144781
C48   C     C_R   0.469204 0.417100 0.070306 0.154376
C49   C     C_R   0.528303 0.581502 0.075552 -0.133175
C50   C     C_R   0.529676 0.580780 0.932669 0.148934
C51   C     C_R   0.179312 0.596895 0.453311 0.504044
C52   C     C_R   0.277961 0.491812 0.364555 -0.100135
C53   C     C_R   0.328145 0.495525 0.368982 -0.218836
C54   C     C_R   0.327458 0.490036 0.614412 -0.169304
C55   C     C_3   0.564226 0.676096 0.869364 -0.379939
C56   C     C_R   0.094866 0.264291 0.523566 0.118069
C57   C     C_3   0.616710 0.663222 0.920277 -0.422782
C58   C     C_3   0.651546 0.747846 0.840561 -0.825222
C59   C     C_3   0.113257 0.131968 0.528286 -0.354186
C60   C     C_3   0.126389 0.094659 0.674026 -0.314776
C61   C     C_3   0.144392 0.961381 0.681051 -0.826702
C62   C     C_3   0.972173 0.236401 0.766125 -0.417854
C63   C     C_3   0.002838 0.319719 0.864609 -0.320052
C64   C     C_3   0.022615 0.243468 0.982701 -0.881775
C65   C     C_R   0.129185 0.601490 0.456002 -0.003690
C66   C     C_R   0.353243 0.495164 0.494037 -0.037096
C67   C     C_R   0.646720 0.496781 0.504791 -0.041377
Cl1   Cl    Cl    0.415695 0.762094 0.740527 -0.625952
H1    H     H_    0.345980 0.489135 0.712000 0.185314
H2    H     H_    0.538857 0.191256 0.766098 0.174487
H3    H     H_    0.512278 0.088320 0.972261 0.163168
H4    H     H_    0.257416 0.483147 0.702523 0.137787
H5    H     H_    0.458053 0.898883 0.960829 0.172821
H6    H     H_    0.489899 0.886775 0.282625 0.169297
H7    H     H_    0.550424 0.648435 0.134125 0.148893
H8    H     H_    0.434284 0.330091 0.243512 0.207154
H9    H     H_    0.382033 0.185851 0.117724 0.165520
H10   H     H_    0.382266 0.184422 0.868899 0.169251
H11   H     H_    0.434720 0.326394 0.748814 0.201926
H12   H     H_    0.258722 0.492790 0.268055 0.139075
H13   H     H_    0.652620 0.470178 0.721378 0.166541
H14   H     H_    0.740764 0.480139 0.729791 0.151064
H15   H     H_    0.877791 0.242306 0.706492 0.186948
H16   H     H_    0.022429 0.190084 0.536828 0.143856
H17   H     H_    0.347184 0.498926 0.274691 0.172398
H18   H     H_    0.648964 0.724767 0.731243 0.265739
H19   H     H_    0.643029 0.847908 0.854510 0.265267
H20   H     H_    0.689183 0.734279 0.877191 0.256394
H21   H     H_    0.620559 0.690376 0.028321 0.222928
H22   H     H_    0.627077 0.564162 0.911426 0.225528
H23   H     H_    0.127154 0.799785 0.408266 0.188609
H24   H     H_    0.563941 0.667728 0.759776 0.272167
H25   H     H_    0.552535 0.771873 0.893405 0.190592
H26   H     H_    0.115079 0.893082 0.648751 0.253530
H27   H     H_    0.175986 0.951923 0.615335 0.293923
H28   H     H_    0.155485 0.939344 0.786662 0.251021
H29   H     H_    0.154749 0.160435 0.717324 0.262834
H30   H     H_    0.093938 0.099829 0.737429 0.204498
H31   H     H_    0.084644 0.064247 0.489105 0.162626
H32   H     H_    0.143530 0.120435 0.458813 0.244899
H33   H     H_    0.992498 0.199821 0.040743 0.264032
H34   H     H_    0.968402 0.792733 0.364062 0.140811
H35   H     H_    0.045718 0.168774 0.945279 0.256638
H36   H     H_    0.044779 0.306141 0.051390 0.255608
H37   H     H_    0.033848 0.365199 0.811979 0.232169
H38   H     H_    0.980366 0.394628 0.904891 0.228072
H39   H     H_    0.943814 0.186706 0.826042 0.201476
H40   H     H_    0.993682 0.160071 0.727126 0.192819
H41   H     H_    0.654078 0.517623 0.287907 0.157821
H42   H     H_    0.882470 0.789898 0.368691 0.189557
H43   H     H_    0.742421 0.516697 0.296295 0.148057
H44   H     H_    0.041795 0.810446 0.420031 0.136801
H45   H     H_    0.500152 0.110923 0.285295 0.171149
N1    N     N_R   0.201125 0.487092 0.480285 -0.352640
N2    N     N_R   0.799332 0.503231 0.518769 -0.354159
N3    N     N_R   0.499540 0.498800 0.142780 -0.134357
N4    N     N_R   0.499520 0.498720 0.857170 -0.129329
O1    O     O_R   0.500000 0.316780 0.614690 -0.654279
O2    O     O_R   0.571250 0.499990 0.614680 -0.642221
O3    O     O_R   0.571240 0.499970 0.385350 -0.616712
O4    O     O_2   0.199946 0.273708 0.532917 -0.579504
O5    O     O_2   0.797378 0.304653 0.623821 -0.563842
O6    O     O_2   0.206353 0.701832 0.426430 -0.557910
O7    O     O_2   0.800061 0.703877 0.418555 -0.564048
O8    O     O_R   0.500000 0.316750 0.385360 -0.639871
O9    O     O_R   0.428760 0.500030 0.614650 -0.597044
O10   O     O_R   0.428750 0.500010 0.385320 -0.645800
O11   O     O_R   0.500000 0.683250 0.614640 -0.613325
O12   O     O_R   0.500000 0.683220 0.385310 -0.627339
Zn1   Zn    Zn3+2 0.500000 0.500020 0.653130 0.950437
Zn2   Zn    Zn3+2 0.500000 0.499980 0.346870 0.935689

loop_
_geom_bond_atom_site_label_1
_geom_bond_atom_site_label_2
_ccdc_geom_bond_type
C10   C27   A    
C64   H35   S    
C7    H15   S    
C8    C13   A    
C22   C29   A    
C50   N4    A    
C59   H31   S    
C29   H44   S    
C11   O7    S    
C55   H25   S    
C58   H19   S    
C23   C52   A    
C61   H28   S    
C7    C8    A    
C39   C41   A    
C31   C32   A    
C40   O4    S    
C54   H1    S    
C12   C23   A    
C26   C27   A    
C37   C38   A    
C57   H21   S    
C36   C37   A    
C1    O8    A    
C60   H30   S    
C30   C31   A    
C62   H40   S    
O9    Zn1   S    
O3    Zn2   S    
O2    Zn1   S    
C51   O6    S    
C18   C19   A    
C51   C65   A    
C39   H6    S    
C40   N1    A    
C46   H11   S    
C20   C24   A    
C45   C56   A    
C8    C9    A    
C49   H7    S    
C63   H37   S    
C11   N2    A    
C9    C10   A    
C1    C37   S    
C48   N3    A    
C31   H3    S    
C12   H4    S    
C59   C60   S    
C21   C22   A    
C59   H32   S    
C16   O12   A    
C2    C6    A    
C58   H18   S    
C34   C65   A    
C30   H2    S    
C44   C46   A    
C25   C29   A    
C64   H33   S    
C17   C67   A    
C51   N1    A    
C25   H23   S    
C57   H22   S    
C2    C20   A    
C28   C67   S    
C25   C65   A    
C18   H43   S    
C27   H42   S    
C15   H13   S    
C60   H29   S    
C28   O3    A    
C32   H5    S    
C38   H45   S    
C61   H26   S    
C62   H39   S    
C58   H20   S    
C60   C61   S    
C35   C36   A    
C43   C44   A    
C5    C9    A    
C62   C63   S    
O1    Zn1   S    
O8    Zn2   S    
C47   C48   A    
C21   C34   A    
C19   N2    S    
C15   C67   A    
C17   C18   A    
C34   C45   A    
C42   C48   A    
C63   H38   S    
N4    Zn1   S    
C16   O11   A    
C13   N2    A    
C55   H24   S    
C55   C57   S    
C2    C5    A    
C24   C56   A    
C42   C43   A    
C14   H14   S    
C52   C53   A    
C64   H36   S    
C46   C47   A    
C4    O10   A    
C14   C19   A    
C3    C26   A    
C3    C5    A    
C28   O2    A    
O11   Zn1   S    
C61   H27   S    
C6    C7    A    
C54   C66   A    
C4    O9    A    
C43   H9    S    
C42   H8    S    
C50   C55   S    
C56   C59   S    
C30   C36   A    
C40   C45   A    
C32   C33   A    
C6    C62   S    
C44   H10   S    
C24   H16   S    
C53   C66   A    
C26   H34   S    
C23   N1    S    
C4    C66   S    
C13   O5    S    
C57   C58   S    
C38   C39   A    
N3    Zn2   S    
C17   H41   S    
C33   C35   A    
C1    O1    A    
C35   C41   A    
O10   Zn2   S    
C10   C11   A    
C63   C64   S    
C47   N4    A    
C49   N3    A    
C20   C21   A    
C49   C50   A    
C14   C15   A    
C3    C22   A    
C53   H17   S    
C52   H12   S    
C16   C41   S    
C12   C54   A    
C33   Cl1   S    
O12   Zn2   S    
