data_mof_unit_67176.cif
_audit_creation_date              2012-12-11T17:48:50-0500
_audit_creation_method            fapswitch 2.2
_symmetry_space_group_name_H-M    P1
_symmetry_Int_Tables_number       1
_space_group_crystal_system       triclinic
_cell_length_a                    8.305067
_cell_length_b                    12.961795
_cell_length_c                    15.055993
_cell_angle_alpha                 97.592595
_cell_angle_beta                  97.829507
_cell_angle_gamma                 99.068217
_cell_volume                      1565.91380337

loop_
_atom_site_label
_atom_site_type_symbol
_atom_type_description
_atom_site_fract_x
_atom_site_fract_y
_atom_site_fract_z
_atom_type_partial_charge
Ba1   Ba    Ba6+2 0.843750 0.550210 0.455600 1.674019
Ba2   Ba    Ba6+2 0.346090 0.449880 0.544410 1.655377
C1    C     C_3   0.513203 0.886180 0.161128 -0.396821
C2    C     C_R   0.885763 0.469112 0.924454 -0.072227
C3    C     C_R   0.025275 0.466217 0.109069 -0.060399
C4    C     C_3   0.071109 0.773734 0.211635 0.360011
C5    C     C_R   0.862779 0.412633 0.070130 0.201331
C6    C     C_R   0.790548 0.429475 0.985884 -0.088577
C7    C     C_R   0.096832 0.473748 0.203443 0.085214
C8    C     C_R   0.252119 0.538579 0.233327 -0.250942
C9    C     C_R   0.083369 0.541228 0.797972 0.010419
C10   C     C_R   0.149913 0.556827 0.892890 -0.036569
C11   C     C_R   0.051595 0.516034 0.955662 0.006785
C12   C     C_3   0.583704 0.824747 0.231811 0.312514
C13   C     C_R   0.311618 0.608918 0.927082 -0.043240
C14   C     C_R   0.378464 0.613912 0.018147 -0.107847
C15   C     C_R   0.285129 0.570131 0.080210 -0.026805
C16   C     C_3   0.035467 0.802418 0.117043 -0.376686
C17   C     C_R   0.119338 0.519836 0.049260 -0.016814
C18   C     C_R   0.352530 0.576295 0.172431 0.009579
C19   C     C_R   0.923509 0.484721 0.769070 -0.296905
C20   C     C_R   0.759566 0.190137 0.575813 -0.265885
C21   C     C_R   0.436000 0.815911 0.466981 -0.271592
C22   C     C_R   0.390632 0.992199 0.457040 -0.085847
C23   C     C_3   0.406733 0.175937 0.263742 0.370517
C24   C     C_R   0.333089 0.883385 0.437975 -0.035375
C25   C     C_R   0.586688 0.854462 0.525054 0.076448
C26   C     C_R   0.647303 0.967667 0.549166 -0.048213
C27   C     C_R   0.548025 0.036268 0.509370 -0.061303
C28   C     C_3   0.241355 0.766235 0.639216 0.313119
C29   C     C_R   0.605714 0.147874 0.523511 0.074647
C30   C     C_R   0.864546 0.125004 0.609079 0.006871
C31   C     C_R   0.801682 0.017254 0.607644 -0.001176
C32   C     C_3   0.271571 0.885091 0.650138 -0.400681
C33   C     C_3   0.859524 0.216745 0.316674 0.325341
C34   C     C_3   0.236121 0.108525 0.254001 -0.200970
C35   C     C_3   0.809088 0.098989 0.276473 -0.363254
C36   C     C_3   0.791585 0.695925 0.727011 0.320015
C37   C     C_3   0.827378 0.731086 0.829547 -0.379522
C38   C     C_3   0.937224 0.229147 0.415550 -0.278745
C39   C     C_3   0.140567 0.096042 0.157851 -0.443384
C40   C     C_3   0.168151 0.176614 0.947278 -0.366922
C41   C     C_3   0.778658 0.183295 0.873727 -0.363065
C42   C     C_3   0.886385 0.969399 0.683089 -0.355768
C43   C     C_3   0.153388 0.273224 0.807498 0.418385
C44   C     C_3   0.220007 0.277720 0.908761 -0.164221
C45   C     C_3   0.642563 0.191909 0.797917 0.397480
C46   C     C_3   0.527754 0.085570 0.769237 0.039312
C47   C     C_R   0.822757 0.452979 0.830891 0.006229
H1    H     H_    0.681273 0.878308 0.281979 0.073738
H2    H     H_    0.707693 0.617932 0.711330 0.057679
H3    H     H_    0.461626 0.952076 0.194643 0.087284
H4    H     H_    0.909040 0.809928 0.845942 0.130854
H5    H     H_    0.889319 0.674970 0.864482 0.059915
H6    H     H_    0.710033 0.736509 0.856077 0.137549
H7    H     H_    0.483588 0.796241 0.269610 -0.053171
H8    H     H_    0.413356 0.833119 0.111755 0.118782
H9    H     H_    0.460449 0.147967 0.203352 0.093206
H10   H     H_    0.250242 0.028699 0.268909 0.127047
H11   H     H_    0.168732 0.144449 0.304362 0.145939
H12   H     H_    0.404948 0.912093 0.656055 0.098376
H13   H     H_    0.611258 0.918573 0.123897 0.146707
H14   H     H_    0.036160 0.733255 0.065159 0.079756
H15   H     H_    0.215922 0.345815 0.786511 0.080346
H16   H     H_    0.020119 0.275893 0.797477 -0.123150
H17   H     H_    0.177991 0.343003 0.948706 0.057991
H18   H     H_    0.356042 0.298243 0.921201 0.179278
H19   H     H_    0.701442 0.210040 0.738927 -0.049194
H20   H     H_    0.596677 0.031468 0.734788 0.003103
H21   H     H_    0.421839 0.094285 0.719406 0.135651
H22   H     H_    0.978045 0.703476 0.215590 0.099079
H23   H     H_    0.208159 0.912466 0.590660 0.110288
H24   H     H_    0.661544 0.396569 0.964525 0.139049
H25   H     H_    0.505241 0.652906 0.038748 0.109343
H26   H     H_    0.389752 0.645186 0.883839 0.118972
H27   H     H_    0.304519 0.548874 0.304476 0.082960
H28   H     H_    0.873275 0.470097 0.697448 0.060165
H29   H     H_    0.306864 0.041647 0.433192 0.113212
H30   H     H_    0.805018 0.274201 0.583454 0.050242
H31   H     H_    0.196783 0.753781 0.221211 -0.069549
H32   H     H_    0.391444 0.731469 0.450101 0.051491
H33   H     H_    0.912586 0.826399 0.106253 0.152593
H34   H     H_    0.224072 0.918969 0.710521 0.166449
H35   H     H_    0.131312 0.868569 0.108447 0.114523
H36   H     H_    0.336445 0.734456 0.604490 0.009865
H37   H     H_    0.119901 0.738709 0.596475 0.087051
H38   H     H_    0.893735 0.294540 0.454861 0.062324
H39   H     H_    0.913130 0.154101 0.442827 0.035192
H40   H     H_    0.070360 0.252601 0.422600 0.186525
H41   H     H_    0.116899 0.173746 0.141481 0.182583
H42   H     H_    0.211476 0.060743 0.108141 0.131281
H43   H     H_    0.020666 0.041993 0.151096 0.156967
H44   H     H_    0.135089 0.105674 0.894104 0.181885
H45   H     H_    0.748832 0.253710 0.310963 0.128211
H46   H     H_    0.271868 0.165449 0.997737 0.171767
H47   H     H_    0.061783 0.183536 0.983337 0.116665
H48   H     H_    0.729846 0.158246 0.933319 0.192476
H49   H     H_    0.851514 0.124348 0.848295 0.077690
H50   H     H_    0.860320 0.259965 0.897390 0.094260
H51   H     H_    0.982650 0.025741 0.730637 0.103300
H52   H     H_    0.799268 0.946543 0.728795 0.146914
H53   H     H_    0.949831 0.906596 0.658030 0.145815
H54   H     H_    0.755821 0.089516 0.203682 0.146934
H55   H     H_    0.717757 0.058539 0.313091 0.105498
H56   H     H_    0.914331 0.056687 0.284089 0.125847
H57   H     H_    0.909042 0.691253 0.701367 0.000874
I1    I     I_    0.411153 0.336364 0.253182 -0.416626
I2    I     I_    0.441468 0.009819 0.877997 -0.527833
I3    I     I_    0.716623 0.278565 0.104081 -0.506634
O1    O     O_2   0.827880 0.435260 0.277750 -0.426320
O2    O     O_2   0.194314 0.120026 0.581650 -0.494091
O3    O     O_3   0.184781 0.183134 0.754139 -0.589948
O4    O     O_3   0.100280 0.438960 0.391170 -0.488443
O5    O     O_3   0.587780 0.631850 0.546230 -0.477183
O6    O     O_2   0.332590 0.233690 0.456160 -0.484793
O7    O     O_3   0.512396 0.156784 0.337866 -0.691238
O8    O     O_2   0.492440 0.457395 0.821677 -0.504833
O9    O     O_3   0.549393 0.268120 0.825784 -0.584702
O10   O     O_3   0.625580 0.634130 0.333250 -0.455782
O11   O     O_2   0.681073 0.546843 0.174684 -0.451595
O12   O     O_3   0.715266 0.772050 0.689839 -0.635225
O13   O     O_3   0.970656 0.265145 0.266466 -0.616602
O14   O     O_3   0.656702 0.745315 0.188383 -0.605811
O15   O     O_2   0.857130 0.766340 0.543890 -0.494959
O16   O     O_3   0.056550 0.691050 0.379010 -0.497840
O17   O     O_2   0.995262 0.879728 0.440213 -0.470823
O18   O     O_3   0.060244 0.859695 0.276717 -0.606885
O19   O     O_2   0.361830 0.564780 0.722310 -0.448762
O20   O     O_3   0.089430 0.561130 0.608830 -0.520389
O21   O     O_3   0.564130 0.365960 0.666760 -0.477733
O22   O     O_3   0.244785 0.734290 0.724641 -0.610649
O23   O     O_3   0.601940 0.368240 0.453770 -0.446899
O24   O     O_3   0.133170 0.309040 0.621000 -0.485355
P1    P     P_3+3 0.998730 0.403530 0.291970 1.026416
P2    P     P_3+3 0.687380 0.751030 0.571310 0.976890
P3    P     P_3+3 0.114572 0.828346 0.385261 0.930910
P4    P     P_3+3 0.190990 0.596560 0.708040 0.967118
P5    P     P_3+3 0.091582 0.180626 0.641733 0.942824
P6    P     P_3+3 0.576226 0.623178 0.216129 0.992868
P7    P     P_3+3 0.516447 0.231097 0.444866 0.960230
P8    P     P_3+3 0.609472 0.386948 0.785173 0.940412

loop_
_geom_bond_atom_site_label_1
_geom_bond_atom_site_label_2
_ccdc_geom_bond_type
C12   H7    S    
C40   H44   S    
C42   H51   S    
C13   H26   S    
C41   H49   S    
C46   H20   S    
C2    C6    A    
C34   H10   S    
Ba2   O20   S    
C19   C47   A    
C43   O3    S    
C5    C6    A    
C46   I2    S    
C43   C44   S    
C35   H56   S    
C37   H4    S    
C23   I1    S    
C20   C30   A    
C40   H47   S    
C18   P6    S    
C26   C27   A    
C33   C35   S    
C22   C24   A    
C4    O18   S    
C44   H17   S    
Ba1   O20   S    
Ba1   O10   S    
C36   C37   S    
Ba2   O4    S    
C16   H14   S    
C33   H45   S    
C37   H5    S    
C13   C14   A    
O14   P6    S    
C15   C18   A    
Ba1   Ba2   S    
C40   C44   S    
C21   C24   A    
C2    C11   A    
O21   P8    S    
C22   C27   A    
O13   P1    S    
Ba2   O21   S    
C8    H27   S    
C45   O9    S    
C37   H6    S    
C8    C18   A    
C14   C15   A    
C47   P8    S    
Ba2   O23   S    
O5    P2    S    
C21   C25   A    
C38   H40   S    
C28   H37   S    
C7    C8    A    
C7    P1    S    
Ba1   O23   S    
C39   H41   S    
O17   P3    D    
O24   P5    S    
Ba2   P4    S    
C34   C39   S    
Ba1   O4    S    
C16   H33   S    
C4    H22   S    
C4    C16   S    
Ba2   O24   S    
C30   P5    S    
C20   C29   A    
C28   C32   S    
C40   H46   S    
C9    C10   A    
O3    P5    S    
O18   P3    S    
C32   H34   S    
C23   O7    S    
C3    C5    A    
C42   H53   S    
C11   C17   A    
C36   H2    S    
O9    P8    S    
C9    C19   A    
C32   H12   S    
C5    I3    S    
C36   H57   S    
O8    P8    D    
O19   P4    D    
C3    C7    A    
O22   P4    S    
Ba1   O1    S    
Ba2   O6    S    
C16   H35   S    
C45   C46   S    
C10   C13   A    
C42   H52   S    
O11   P6    D    
O12   P2    S    
C28   H36   S    
C1    C12   S    
C1    H8    S    
O16   P3    S    
C22   H29   S    
C39   H42   S    
C26   C31   A    
O4    P1    S    
C43   H16   S    
C4    H31   S    
C14   H25   S    
O1    P1    D    
Ba1   O5    S    
Ba1   P1    S    
C32   H23   S    
C45   H19   S    
C38   H38   S    
C35   H54   S    
C1    H13   S    
C12   O14   S    
C21   H32   S    
O15   P2    D    
C31   C42   S    
C33   O13   S    
C41   H48   S    
C46   H21   S    
C34   H11   S    
C20   H30   S    
C35   H55   S    
C1    H3    S    
C3    C17   A    
O23   P7    S    
C43   H15   S    
C2    C47   A    
Ba1   O16   S    
O10   P6    S    
C30   C31   A    
C38   H39   S    
C33   C38   S    
C9    P4    S    
Ba1   O15   S    
C25   P2    S    
C44   H18   S    
C27   C29   A    
C41   H50   S    
Ba2   O5    S    
C12   H1    S    
C6    H24   S    
C15   C17   A    
C36   O12   S    
C24   P3    S    
C23   C34   S    
C39   H43   S    
O20   P4    S    
C10   C11   A    
C23   H9    S    
C19   H28   S    
C25   C26   A    
C29   P7    S    
Ba1   P2    S    
O6    P7    D    
C41   C45   S    
C28   O22   S    
O2    P5    D    
O7    P7    S    
Ba2   O19   S    
