data_mof_unit_24449.cif
_audit_creation_date              2012-12-10T18:59:58-0500
_audit_creation_method            fapswitch 2.2
_symmetry_space_group_name_H-M    P1
_symmetry_Int_Tables_number       1
_space_group_crystal_system       triclinic
_cell_length_a                    10.789119
_cell_length_b                    10.771984
_cell_length_c                    9.815319
_cell_angle_alpha                 88.996563
_cell_angle_beta                  91.162039
_cell_angle_gamma                 90.010052
_cell_volume                      1140.32898267

loop_
_atom_site_label
_atom_site_type_symbol
_atom_type_description
_atom_site_fract_x
_atom_site_fract_y
_atom_site_fract_z
_atom_type_partial_charge
C1    C     C_R   0.496770 0.259778 0.501241 0.926540
C2    C     C_R   0.499084 0.059391 0.626354 0.553816
C3    C     C_R   0.488287 0.872756 0.495928 -0.212205
C4    C     C_R   0.489433 0.127281 0.503214 -0.208362
C5    C     C_R   0.546835 0.598408 0.071249 -0.057637
C6    C     C_R   0.453295 0.401432 0.928860 -0.075148
C7    C     C_R   0.546212 0.598760 0.927218 -0.078163
C8    C     C_R   0.453385 0.401401 0.072830 -0.070091
C9    C     C_R   0.259890 0.502991 0.498276 0.866302
C10   C     C_R   0.740252 0.500921 0.501785 0.864327
C11   C     C_R   0.209438 0.708730 0.084812 -0.107592
C12   C     C_R   0.495847 0.740208 0.498519 0.925056
C13   C     C_R   0.836323 0.314740 0.943439 -0.168133
C14   C     C_R   0.160583 0.682319 0.213069 -0.099709
C15   C     C_R   0.873529 0.337103 0.809586 -0.147527
C16   C     C_R   0.112893 0.563766 0.242266 0.125461
C17   C     C_R   0.890525 0.459283 0.761879 0.163776
C18   C     C_R   0.115153 0.472107 0.142669 -0.124901
C19   C     C_R   0.871928 0.558593 0.849778 -0.118471
C20   C     C_R   0.164121 0.498802 0.014940 -0.127066
C21   C     C_R   0.835112 0.535780 0.983529 -0.136000
C22   C     C_R   0.210776 0.617154 0.985613 -0.130189
C23   C     C_R   0.872749 0.505701 0.505037 -0.082095
C24   C     C_R   0.816143 0.413971 0.030005 -0.102876
C25   C     C_R   0.930963 0.533766 0.382332 -0.261503
C26   C     C_R   0.069296 0.483286 0.618946 -0.254315
C27   C     C_3   0.495932 0.937921 0.134655 -0.373249
C28   C     C_3   0.613571 0.100273 0.818466 -0.351343
C29   C     C_R   0.127499 0.507784 0.495872 -0.078567
C30   C     C_R   0.942631 0.483028 0.625897 -0.014894
C31   C     C_R   0.058104 0.535315 0.375979 -0.007926
C32   C     C_R   0.472042 0.068350 0.378534 -0.393904
C33   C     C_R   0.496002 0.932138 0.621253 -0.376703
C34   C     C_R   0.473339 0.939800 0.371937 0.559645
H1    H     H_    0.248729 0.637568 0.886468 0.146346
H2    H     H_    0.888000 0.653197 0.815349 0.113675
H3    H     H_    0.166625 0.427087 0.939441 0.124263
H4    H     H_    0.821650 0.612652 0.051135 0.112594
H5    H     H_    0.877514 0.555477 0.290395 0.159860
H6    H     H_    0.122555 0.462600 0.711139 0.163138
H7    H     H_    0.455714 0.123176 0.286724 0.181920
H8    H     H_    0.499640 0.880043 0.716662 0.186124
H9    H     H_    0.586454 0.675761 0.125482 0.145396
H10   H     H_    0.414608 0.323344 0.875042 0.173640
H11   H     H_    0.500306 0.870522 0.050877 0.179230
H12   H     H_    0.787243 0.396301 0.133458 0.142823
H13   H     H_    0.591639 0.973537 0.153075 0.155277
H14   H     H_    0.432485 0.013157 0.098165 0.180804
H15   H     H_    0.614455 0.156677 0.911875 0.189429
H16   H     H_    0.690961 0.132776 0.753591 0.167268
H17   H     H_    0.628370 0.002044 0.851239 0.142386
H18   H     H_    0.584393 0.677258 0.872214 0.117537
H19   H     H_    0.415035 0.323028 0.127864 0.123306
H20   H     H_    0.246041 0.800159 0.062207 0.154447
H21   H     H_    0.824737 0.220438 0.980717 0.114892
H22   H     H_    0.159583 0.753841 0.289237 0.125629
H23   H     H_    0.891345 0.259582 0.743992 0.111400
H24   H     H_    0.078997 0.380160 0.164094 0.125501
N1    N     N_R   0.499970 0.499970 0.857200 -0.077821
N2    N     N_R   0.500030 0.500030 0.142800 -0.074677
O1    O     O_R   0.499990 0.316750 0.614620 -0.569985
O2    O     O_3   0.497808 0.116865 0.751466 -0.603276
O3    O     O_R   0.500010 0.683250 0.385380 -0.568366
O4    O     O_R   0.499990 0.316780 0.385290 -0.647161
O5    O     O_R   0.500010 0.683220 0.614710 -0.650029
O6    O     O_R   0.316760 0.500000 0.614660 -0.639362
O7    O     O_R   0.683240 0.500000 0.385340 -0.640229
O8    O     O_R   0.316760 0.500020 0.385330 -0.607364
O9    O     O_R   0.683240 0.499980 0.614670 -0.609850
O10   O     O_3   0.448018 0.877048 0.251028 -0.594588
Zn1   Zn    Zn3+2 0.500000 0.499980 0.653120 0.957350
Zn2   Zn    Zn3+2 0.500000 0.500020 0.346880 0.962119

loop_
_geom_bond_atom_site_label_1
_geom_bond_atom_site_label_2
_ccdc_geom_bond_type
C8    H19   S    
C27   H14   S    
C14   H22   S    
C32   H7    S    
C23   C30   A    
C25   C31   A    
C20   H3    S    
C10   C23   S    
C5    C7    A    
C28   H15   S    
C34   O10   S    
C11   C22   A    
C2    C4    A    
O6    Zn1   S    
C3    C34   A    
C9    C29   S    
O8    Zn2   S    
C1    C4    S    
C24   H12   S    
N1    Zn1   S    
O1    Zn1   S    
C23   C25   A    
C5    H9    S    
C9    O8    A    
C29   C31   A    
C16   C18   A    
C6    H10   S    
C10   O7    A    
C25   H5    S    
C16   C31   S    
C22   H1    S    
C15   H23   S    
C32   C34   A    
C27   H11   S    
C4    C32   A    
C27   O10   S    
C17   C30   S    
C33   H8    S    
C2    C33   A    
C11   H20   S    
C17   C19   A    
C20   C22   A    
C7    H18   S    
C26   C30   A    
C18   C20   A    
C19   H2    S    
C13   C15   A    
C11   C14   A    
C14   C16   A    
C3    C33   A    
C27   H13   S    
C1    O4    A    
C2    O2    S    
C26   H6    S    
O3    Zn2   S    
C13   C24   A    
C26   C29   A    
O9    Zn1   S    
O7    Zn2   S    
C12   O5    A    
C21   C24   A    
C7    N1    A    
C15   C17   A    
C12   O3    A    
N2    Zn2   S    
C10   O9    A    
C6    C8    A    
C3    C12   S    
C5    N2    A    
C19   C21   A    
C28   H17   S    
C9    O6    A    
C28   H16   S    
C6    N1    A    
C18   H24   S    
C8    N2    A    
C21   H4    S    
O5    Zn1   S    
O4    Zn2   S    
C1    O1    A    
C13   H21   S    
C28   O2    S    
