data_mof_unit_36863.cif
_audit_creation_date              2012-10-26T18:26:39-0400
_audit_creation_method            fapswitch 2.2
_symmetry_space_group_name_H-M    P1
_symmetry_Int_Tables_number       1
_space_group_crystal_system       triclinic
_cell_length_a                    15.85356
_cell_length_b                    8.909421
_cell_length_c                    7.625135
_cell_angle_alpha                 101.664696
_cell_angle_beta                  96.866019
_cell_angle_gamma                 98.238556
_cell_volume                      1031.56345934

loop_
_atom_site_label
_atom_site_type_symbol
_atom_type_description
_atom_site_fract_x
_atom_site_fract_y
_atom_site_fract_z
_atom_type_partial_charge
C1    C     C_R   0.497001 0.201575 0.456314 0.564419
C2    C     C_3   0.989213 0.627068 0.617744 -0.073990
C3    C     C_1   0.250522 0.501394 0.492066 0.032630
C4    C     C_1   0.749478 0.498606 0.507934 0.032630
C5    C     C_3   0.041012 0.502097 0.664942 0.048935
C6    C     C_3   0.958988 0.497903 0.335058 0.048935
C7    C     C_3   0.083562 0.503116 0.493364 -0.024103
C8    C     C_3   0.916438 0.496884 0.506635 -0.024103
C9    C     C_1   0.175064 0.502754 0.490375 0.036110
C10   C     C_1   0.824936 0.497246 0.509625 0.036110
C11   C     C_3   0.024751 0.228804 0.250649 -0.317509
C12   C     C_R   0.502999 0.798425 0.543686 0.564419
C13   C     C_3   0.975249 0.771196 0.749351 -0.317509
C14   C     C_2   0.932997 0.227621 0.612687 0.635580
C15   C     C_2   0.067003 0.772379 0.387312 0.635580
C16   C     C_2   0.910181 0.497930 0.153754 0.612413
C17   C     C_2   0.089819 0.502069 0.846245 0.612413
C18   C     C_3   0.579419 0.003516 0.322208 -0.344671
C19   C     C_3   0.420581 0.996484 0.677792 -0.344671
C20   C     C_2   0.400386 0.345237 0.954871 0.719915
C21   C     C_2   0.599614 0.654763 0.045129 0.719915
C22   C     C_R   0.340229 0.499824 0.497438 0.552425
C23   C     C_R   0.659771 0.500175 0.502562 0.552425
C24   C     C_2   0.514666 0.045222 0.443777 -0.026714
C25   C     C_2   0.485334 0.954778 0.556223 -0.026714
C26   C     C_3   0.967871 0.371924 0.553753 0.053328
C27   C     C_3   0.032128 0.628075 0.446247 0.053328
C28   C     C_3   0.010787 0.372932 0.382256 -0.073990
Cu1   Cu    Cu3+1 0.509330 0.517380 0.684380 1.081082
Cu2   Cu    Cu3+1 0.490670 0.482620 0.315620 1.081082
H1    H     H_    0.961934 0.151288 0.195282 0.189072
H2    H     H_    0.169062 0.397791 0.990200 0.345211
H3    H     H_    0.608990 0.103889 0.271136 0.144723
H4    H     H_    0.633325 0.968542 0.401921 0.155898
H5    H     H_    0.546258 0.914030 0.201901 0.186564
H6    H     H_    0.391010 0.896111 0.728863 0.144723
H7    H     H_    0.453742 0.085970 0.798099 0.186564
H8    H     H_    0.366675 0.031458 0.598079 0.155898
H9    H     H_    0.313135 0.234306 0.739010 0.319244
H10   H     H_    0.686865 0.765694 0.260990 0.319244
H11   H     H_    0.054943 0.263513 0.137783 0.181455
H12   H     H_    0.067917 0.165537 0.322354 0.180557
H13   H     H_    0.038066 0.848712 0.804718 0.189072
H14   H     H_    0.932083 0.834463 0.677646 0.180557
H15   H     H_    0.945057 0.736487 0.862217 0.181455
H16   H     H_    0.829832 0.092926 0.665129 0.340963
H17   H     H_    0.170168 0.907074 0.334871 0.340963
H18   H     H_    0.830938 0.602209 0.009799 0.345211
N1    N     N_2   0.476600 0.456420 0.038510 -0.159908
N2    N     N_2   0.523400 0.543580 0.961490 -0.159908
O1    O     O_R   0.506070 0.286130 0.619780 -0.479632
O2    O     O_R   0.845320 0.193446 0.624211 -0.683152
O3    O     O_2   0.018310 0.859817 0.350130 -0.479188
O4    O     O_R   0.154680 0.806554 0.375788 -0.683152
O5    O     O_2   0.911154 0.394138 0.022428 -0.498783
O6    O     O_R   0.862685 0.616182 0.137148 -0.670304
O7    O     O_2   0.088846 0.605862 0.977572 -0.498783
O8    O     O_R   0.137315 0.383818 0.862852 -0.670304
O9    O     O_2   0.357382 0.284746 0.052510 -0.501192
O10   O     O_R   0.374382 0.294520 0.770687 -0.685859
O11   O     O_2   0.642618 0.715254 0.947489 -0.501192
O12   O     O_R   0.493930 0.713870 0.380220 -0.479632
O13   O     O_R   0.625618 0.705480 0.229313 -0.685859
O14   O     O_R   0.490300 0.256770 0.308360 -0.494260
O15   O     O_R   0.509700 0.743230 0.691640 -0.494260
O16   O     O_R   0.386960 0.514660 0.655680 -0.469913
O17   O     O_R   0.613040 0.485340 0.344320 -0.469913
O18   O     O_R   0.371190 0.485310 0.344260 -0.471345
O19   O     O_R   0.628810 0.514690 0.655740 -0.471345
O20   O     O_2   0.981690 0.140182 0.649870 -0.479188

loop_
_geom_bond_atom_site_label_1
_geom_bond_atom_site_label_2
_ccdc_geom_bond_type
C16   O6    S    
C2    C27   S    
C3    C9    T    
C19   H8    S    
Cu2   O14   S    
C5    C26   S    
C20   O10   S    
C20   N1    S    
C14   O20   D    
C12   O15   A    
C23   O19   A    
C7    C27   S    
C15   C27   S    
C6    C27   S    
C1    O1    A    
H2    O8    S    
C12   C25   S    
C19   H6    S    
C7    C9    S    
C16   O5    D    
C11   H1    S    
C26   C28   S    
C14   C26   S    
C20   O9    D    
C13   H15   S    
C18   H4    S    
C22   O18   A    
Cu1   Cu2   S    
H10   O13   S    
C11   C28   S    
C1    C24   S    
H17   O4    S    
Cu1   O15   S    
H9    O10   S    
C15   O3    D    
C14   O2    S    
C21   N2    S    
Cu2   N1    S    
C11   H11   S    
Cu1   O19   S    
Cu1   N2    S    
Cu2   O12   S    
Cu1   O1    S    
C19   C25   S    
C18   H3    S    
C18   C24   S    
C21   O13   S    
C2    C5    S    
C5    C17   S    
C12   O12   A    
C4    C10   T    
Cu1   O16   S    
C15   O4    S    
H16   O2    S    
C6    C28   S    
C13   H13   S    
C8    C26   S    
C24   C25   D    
C11   H12   S    
C8    C10   S    
N1    N2    D    
C18   H5    S    
C23   O17   A    
H18   O6    S    
C2    C13   S    
C19   H7    S    
C5    C7    S    
C22   O16   A    
C3    C22   S    
C6    C8    S    
C17   O8    S    
C2    C8    S    
C4    C23   S    
C21   O11   D    
C1    O14   A    
C6    C16   S    
C13   H14   S    
Cu2   O18   S    
C7    C28   S    
Cu2   O17   S    
C17   O7    D    
