data_mof_unit_35878.cif
_audit_creation_date              2012-12-10T17:57:50-0500
_audit_creation_method            fapswitch 2.2
_symmetry_space_group_name_H-M    P1
_symmetry_Int_Tables_number       1
_space_group_crystal_system       triclinic
_cell_length_a                    10.904792
_cell_length_b                    9.713984
_cell_length_c                    15.004593
_cell_angle_alpha                 91.018574
_cell_angle_beta                  92.103501
_cell_angle_gamma                 90.136872
_cell_volume                      1588.09178973

loop_
_atom_site_label
_atom_site_type_symbol
_atom_type_description
_atom_site_fract_x
_atom_site_fract_y
_atom_site_fract_z
_atom_type_partial_charge
C1    C     C_R   0.262781 0.499256 0.500733 0.983435
C2    C     C_R   0.737218 0.500741 0.499273 0.983442
C3    C     C_R   0.274077 0.523038 0.037044 0.329661
C4    C     C_R   0.725919 0.476965 0.962952 0.329704
C5    C     C_R   0.060386 0.393363 0.455322 0.349872
C6    C     C_R   0.939610 0.606592 0.544726 0.349886
C7    C     C_R   0.932757 0.399688 0.450348 0.312843
C8    C     C_R   0.067238 0.600254 0.549714 0.312847
C9    C     C_R   0.871368 0.503070 0.497711 -0.317187
C10   C     C_R   0.128629 0.496903 0.502321 -0.317219
C11   C     C_R   0.459486 0.069678 0.426329 0.083993
C12   C     C_R   0.540528 0.930321 0.573665 0.084002
C13   C     C_R   0.552618 0.076504 0.569293 0.043297
C14   C     C_R   0.447389 0.923497 0.430704 0.043290
C15   C     C_R   0.497661 0.499269 0.329603 0.937940
C16   C     C_R   0.502343 0.500731 0.670396 0.937921
C17   C     C_R   0.615404 0.511268 0.815874 0.302090
C18   C     C_R   0.384595 0.488750 0.184127 0.302021
C19   C     C_R   0.503713 0.501256 0.766961 -0.222851
C20   C     C_R   0.496291 0.498742 0.233037 -0.222824
C21   C     C_R   0.392869 0.486404 0.808852 0.335534
C22   C     C_R   0.607136 0.513579 0.191146 0.335538
C23   C     C_R   0.390005 0.504953 0.901698 -0.104538
C24   C     C_R   0.609994 0.495041 0.098298 -0.104526
C25   C     C_R   0.501741 0.500241 0.952952 -0.113522
C26   C     C_R   0.498256 0.499768 0.047045 -0.113485
C27   C     C_R   0.616643 0.497533 0.910039 -0.118103
C28   C     C_R   0.383353 0.502482 0.089959 -0.118094
C29   C     C_R   0.279371 0.531371 0.944259 0.365272
C30   C     C_R   0.720625 0.468616 0.055735 0.365269
Cu1   Cu    Cu3+1 0.500000 0.640660 0.500000 1.043984
Cu2   Cu    Cu3+1 0.500000 0.359340 0.500000 1.044005
N1    N     N_R   0.500000 0.852070 0.500000 -0.201549
N2    N     N_R   0.500000 0.147930 0.500000 -0.201524
O1    O     O_R   0.319640 0.618740 0.499990 -0.575539
O2    O     O_R   0.680360 0.381260 0.500010 -0.575480
O3    O     O_R   0.680360 0.618740 0.500010 -0.528521
O4    O     O_R   0.319640 0.381260 0.499990 -0.528537
O5    O     O_R   0.499970 0.618800 0.370260 -0.582161
O6    O     O_R   0.500030 0.381200 0.629740 -0.582182
O7    O     O_R   0.500030 0.618800 0.629740 -0.558738
O8    O     O_R   0.499970 0.381200 0.370260 -0.558733
Cl1   Cl    Cl    0.747737 0.545937 0.754510 -0.513341
Cl2   Cl    Cl    0.252260 0.454116 0.245499 -0.513430
Cl3   Cl    Cl    0.263660 0.424179 0.744342 -0.520896
Cl4   Cl    Cl    0.736362 0.575755 0.255662 -0.520896
Cl5   Cl    Cl    0.152146 0.604214 0.884664 -0.368212
Cl6   Cl    Cl    0.847837 0.395723 0.115322 -0.368228
Cl7   Cl    Cl    0.128296 0.553168 0.081642 -0.397695
Cl8   Cl    Cl    0.871677 0.446802 0.918355 -0.397671
Cl9   Cl    Cl    0.130542 0.251358 0.403117 -0.524118
Cl10  Cl    Cl    0.869458 0.748685 0.596833 -0.524207
Cl11  Cl    Cl    0.852271 0.285167 0.376198 -0.515551
Cl12  Cl    Cl    0.147722 0.714747 0.623887 -0.515583
C31   C     C_R   0.475649 0.118657 0.334631 0.090941
C32   C     C_R   0.375586 0.138733 0.274580 -0.058730
C33   C     C_R   0.394680 0.159577 0.184099 -0.118601
C34   C     C_R   0.513702 0.162521 0.152877 -0.187090
C35   C     C_R   0.613730 0.141817 0.211788 -0.070152
C36   C     C_R   0.594628 0.117626 0.301787 -0.076824
H1    H     H_    0.283041 0.128493 0.296062 0.214499
H2    H     H_    0.316990 0.172494 0.138044 0.189172
H3    H     H_    0.528289 0.179317 0.082925 0.152693
H4    H     H_    0.705857 0.140985 0.187337 0.205827
H5    H     H_    0.671894 0.092072 0.345548 0.179080
C37   C     C_R   0.524366 0.881337 0.665359 0.090963
C38   C     C_R   0.624415 0.861309 0.725426 -0.058684
C39   C     C_R   0.605298 0.840438 0.815904 -0.118611
C40   C     C_R   0.486266 0.837400 0.847097 -0.187083
C41   C     C_R   0.386250 0.858060 0.788170 -0.070152
C42   C     C_R   0.405376 0.882304 0.698181 -0.076829
H6    H     H_    0.716964 0.871622 0.703975 0.214420
H7    H     H_    0.682974 0.827571 0.861977 0.189126
H8    H     H_    0.471659 0.820576 0.917042 0.152697
H9    H     H_    0.294105 0.858815 0.812579 0.205906
H10   H     H_    0.328126 0.907848 0.654408 0.179026
C43   C     C_R   0.648483 0.141521 0.628368 0.136404
C44   C     C_R   0.768981 0.145476 0.598457 -0.100345
C45   C     C_R   0.866931 0.179539 0.657280 -0.106883
C46   C     C_R   0.845973 0.204568 0.747283 0.030378
C47   C     C_R   0.726572 0.199551 0.778032 -0.122097
C48   C     C_R   0.627812 0.170374 0.718706 -0.172353
H11   H     H_    0.787369 0.117426 0.530096 0.183255
H12   H     H_    0.959478 0.182191 0.633619 0.178061
H13   H     H_    0.922564 0.226279 0.793242 0.208111
H14   H     H_    0.710487 0.216334 0.848077 0.160522
H15   H     H_    0.536267 0.162864 0.743912 0.158715
C49   C     C_R   0.351511 0.858486 0.371646 0.136388
C50   C     C_R   0.372132 0.829661 0.281299 -0.172412
C51   C     C_R   0.273345 0.800396 0.222014 -0.121988
C52   C     C_R   0.153973 0.795256 0.252814 0.030472
C53   C     C_R   0.133070 0.820281 0.342824 -0.106973
C54   C     C_R   0.231044 0.854436 0.401607 -0.100202
H16   H     H_    0.463653 0.837227 0.256058 0.158680
H17   H     H_    0.289386 0.783611 0.151963 0.160560
H18   H     H_    0.077360 0.773440 0.206894 0.208182
H19   H     H_    0.040545 0.817517 0.366526 0.178027
H20   H     H_    0.212682 0.882447 0.469978 0.183198

loop_
_geom_bond_atom_site_label_1
_geom_bond_atom_site_label_2
_ccdc_geom_bond_type
C31   C32   A    
C14   N1    A    
C47   C48   A    
C3    Cl7   S    
C33   H2    S    
C43   C44   A    
C35   H4    S    
C29   Cl5   S    
Cu2   O2    S    
C30   Cl6   S    
C3    C28   A    
C19   C21   A    
C24   C26   A    
C45   H12   S    
C11   C14   A    
C48   H15   S    
C32   C33   A    
C38   H6    S    
C50   H16   S    
C3    C29   A    
C52   H18   S    
C44   H11   S    
Cu1   Cu2   S    
C39   C40   A    
Cu1   N1    S    
C41   C42   A    
Cu2   O4    S    
C18   C20   A    
C47   H14   S    
C23   C25   A    
C37   C38   A    
C35   C36   A    
C31   C36   A    
C6    C9    A    
C53   H19   S    
C21   Cl3   S    
C15   C20   S    
C13   C43   S    
C38   C39   A    
C17   C27   A    
C51   H17   S    
C18   C28   A    
C8    Cl12  S    
C52   C53   A    
C5    C7    A    
C44   C45   A    
C6    C8    A    
C39   H7    S    
C12   C37   S    
Cu1   O3    S    
C4    Cl8   S    
Cu2   N2    S    
C17   Cl1   S    
C46   H13   S    
C18   Cl2   S    
C37   C42   A    
C40   H8    S    
C12   C13   A    
C15   O5    A    
C1    O4    A    
C16   O6    A    
C22   Cl4   S    
C20   C22   A    
C36   H5    S    
C21   C23   A    
C22   C24   A    
C34   C35   A    
C7    Cl11  S    
C51   C52   A    
C23   C29   A    
C4    C27   A    
C11   C31   S    
C1    O1    A    
C2    O2    A    
C34   H3    S    
C7    C9    A    
C49   C54   A    
Cu1   O7    S    
C11   N2    A    
C1    C10   S    
C15   O8    A    
C46   C47   A    
C25   C27   A    
C26   C28   A    
C25   C26   A    
C14   C49   S    
C5    C10   A    
C2    O3    A    
C33   C34   A    
C42   H10   S    
C43   C48   A    
C12   N1    A    
C16   C19   S    
C54   H20   S    
C53   C54   A    
C17   C19   A    
Cu1   O5    S    
Cu1   O1    S    
Cu2   O6    S    
C40   C41   A    
C24   C30   A    
C45   C46   A    
C13   N2    A    
C49   C50   A    
C8    C10   A    
C41   H9    S    
Cu2   O8    S    
C32   H1    S    
C5    Cl9   S    
C6    Cl10  S    
C50   C51   A    
C2    C9    S    
C16   O7    A    
C4    C30   A    
