data_mof_unit_45186.cif
_audit_creation_date              2012-12-11T15:56:03-0500
_audit_creation_method            fapswitch 2.2
_symmetry_space_group_name_H-M    P1
_symmetry_Int_Tables_number       1
_space_group_crystal_system       triclinic
_cell_length_a                    10.998652
_cell_length_b                    11.086423
_cell_length_c                    18.706658
_cell_angle_alpha                 91.155204
_cell_angle_beta                  91.076578
_cell_angle_gamma                 59.593234
_cell_volume                      1966.76831528

loop_
_atom_site_label
_atom_site_type_symbol
_atom_type_description
_atom_site_fract_x
_atom_site_fract_y
_atom_site_fract_z
_atom_type_partial_charge
C1    C     C_R   0.356850 0.775199 0.399502 0.541749
C2    C     C_R   0.607574 0.092723 0.189052 0.021207
C3    C     C_R   0.330556 0.280857 0.177023 0.023683
C4    C     C_R   0.439909 0.186883 0.290124 -0.164410
C5    C     C_R   0.454608 0.181997 0.216109 -0.034764
C6    C     C_R   0.014729 0.653807 0.300743 -0.082578
C7    C     C_R   0.908055 0.760499 0.341955 -0.123647
C8    C     C_R   0.653040 0.998983 0.129115 -0.066772
C9    C     C_R   0.794677 0.920365 0.109673 -0.114773
C10   C     C_R   0.212235 0.387585 0.213920 -0.139215
C11   C     C_R   0.214475 0.404013 0.287916 -0.027721
C12   C     C_R   0.379228 0.347192 0.392281 0.527837
C13   C     C_R   0.875712 0.732202 0.409008 -0.101916
C14   C     C_R   0.947959 0.596308 0.434800 -0.053975
C15   C     C_R   0.051287 0.488422 0.393195 -0.055472
C16   C     C_R   0.089449 0.516432 0.326568 0.048105
C17   C     C_R   0.336490 0.308513 0.324907 -0.010381
C18   C     C_R   0.872683 0.336056 0.184092 0.025233
C19   C     C_R   0.733897 0.418912 0.204487 0.010481
C20   C     C_R   0.700394 0.433304 0.275894 -0.027848
C21   C     C_R   0.947467 0.291859 0.307834 -0.167755
C22   C     C_R   0.980464 0.282855 0.235889 -0.164078
C23   C     C_R   0.769922 0.382439 0.401391 0.552016
C24   C     C_3   0.606858 0.412825 0.180920 -0.059141
C25   C     C_3   0.563887 0.437918 0.259533 -0.254484
C26   C     C_R   0.806291 0.359904 0.327577 0.024801
C27   C     C_R   0.328122 0.882715 0.183935 0.042398
C28   C     C_R   0.457611 0.789450 0.214970 0.038946
C29   C     C_R   0.465554 0.768099 0.287938 0.018426
C30   C     C_R   0.215251 0.919777 0.299656 -0.168128
C31   C     C_R   0.207449 0.945738 0.227185 -0.161084
C32   C     C_3   0.588973 0.796270 0.219090 -0.286880
C33   C     C_3   0.598488 0.769785 0.297962 -0.256844
C34   C     C_R   0.345894 0.765392 0.605948 0.535667
C35   C     C_R   0.346009 0.832932 0.330605 0.019388
C36   C     C_R   0.277692 0.282993 0.804069 0.000655
C37   C     C_R   0.352875 0.169985 0.757682 0.003172
C38   C     C_R   0.365785 0.189602 0.685850 0.005962
C39   C     C_R   0.224923 0.438958 0.704411 -0.146833
C40   C     C_R   0.209493 0.418050 0.776218 -0.166020
C41   C     C_3   0.503811 0.057091 0.763482 -0.235978
C42   C     C_3   0.513477 0.069877 0.684081 -0.256437
C43   C     C_R   0.311867 0.324865 0.659535 0.010056
C44   C     C_R   0.791321 0.350658 0.840129 0.017444
C45   C     C_R   0.368530 0.350372 0.595274 0.530179
C46   C     C_R   0.763208 0.474379 0.805678 0.015591
C47   C     C_R   0.735121 0.491208 0.733691 0.003608
C48   C     C_R   0.724967 0.280165 0.728919 -0.162871
C49   C     C_R   0.758038 0.260030 0.802554 -0.167561
C50   C     C_3   0.849955 0.543933 0.801666 -0.225059
C51   C     C_3   0.823667 0.556068 0.722319 -0.243406
C52   C     C_R   0.724419 0.391243 0.692943 0.012543
C53   C     C_R   0.309984 0.816874 0.831150 0.008933
C54   C     C_R   0.202325 0.817198 0.789787 -0.008854
C55   C     C_R   0.210851 0.806934 0.716167 0.007403
C56   C     C_R   0.702193 0.411614 0.615921 0.563564
C57   C     C_R   0.443062 0.777335 0.723609 -0.162946
C58   C     C_R   0.437052 0.780017 0.798099 -0.151891
C59   C     C_3   0.047386 0.919848 0.788384 -0.062302
C60   C     C_3   0.055710 0.909936 0.706382 -0.071920
C61   C     C_R   0.326767 0.799555 0.681700 -0.002218
C62   C     C_R   0.910887 0.316603 0.110953 0.567641
C63   C     C_R   0.306971 0.260554 0.101880 0.566008
C64   C     C_R   0.303756 0.907353 0.107626 0.555756
C65   C     C_R   0.877520 0.312344 0.906032 0.545038
C66   C     C_R   0.271154 0.257208 0.879483 0.557443
C67   C     C_R   0.897577 0.924822 0.151708 -0.085311
C68   C     C_R   0.277004 0.889701 0.899486 0.536335
C69   C     C_R   0.858553 0.005884 0.213736 -0.129371
C70   C     C_R   0.717726 0.086353 0.232464 -0.137009
Cr1   Cr    Cr6+3 0.601740 0.606840 0.505840 0.984755
Cr2   Cr    Cr6+3 0.291500 0.601560 0.495070 1.066346
Cr3   Cr    Cr6+3 0.606780 0.291630 0.499130 1.008095
Cr4   Cr    Cr6+3 0.062440 0.063060 0.008240 1.050908
Cr5   Cr    Cr6+3 0.062950 0.375000 0.998920 1.032859
Cr6   Cr    Cr6+3 0.374550 0.061770 0.992470 0.991649
H1    H     H_    0.525230 0.106094 0.321289 0.133112
H2    H     H_    0.794428 0.815673 0.440896 0.105948
H3    H     H_    0.923749 0.574330 0.487083 0.138734
H4    H     H_    0.106363 0.383768 0.414625 0.085842
H5    H     H_    0.031080 0.244274 0.347431 0.107049
H6    H     H_    0.089861 0.229410 0.220300 0.109714
H7    H     H_    0.634615 0.308978 0.159010 0.132754
H8    H     H_    0.469273 0.540501 0.270654 0.160619
H9    H     H_    0.556237 0.353982 0.284828 0.136491
H10   H     H_    0.120228 0.965789 0.331243 0.124890
H11   H     H_    0.825248 0.849444 0.064154 0.110341
H12   H     H_    0.106012 0.015161 0.203798 0.143242
H13   H     H_    0.560786 0.903309 0.211066 0.141873
H14   H     H_    0.677211 0.713252 0.187415 0.173544
H15   H     H_    0.689525 0.667357 0.313186 0.182744
H16   H     H_    0.585104 0.859456 0.331615 0.129038
H17   H     H_    0.182938 0.544861 0.686897 0.202844
H18   H     H_    0.153969 0.507396 0.811252 0.197990
H19   H     H_    0.519218 0.955704 0.779314 0.141099
H20   H     H_    0.568819 0.090612 0.794892 0.178500
H21   H     H_    0.591233 0.100165 0.670597 0.198819
H22   H     H_    0.850966 0.866057 0.322957 0.118459
H23   H     H_    0.521918 0.979861 0.652628 0.129315
H24   H     H_    0.710793 0.203736 0.699440 0.160042
H25   H     H_    0.768495 0.168884 0.827912 0.183215
H26   H     H_    0.962048 0.472683 0.814961 0.171542
H27   H     H_    0.799810 0.646640 0.830191 0.166842
H28   H     H_    0.764730 0.665922 0.704462 0.142992
H29   H     H_    0.920292 0.487213 0.691069 0.164980
H30   H     H_    0.537005 0.761861 0.698475 0.130424
H31   H     H_    0.525803 0.769323 0.829309 0.127283
H32   H     H_    0.023764 0.024269 0.808689 0.106586
H33   H     H_    0.007703 0.858935 0.138653 0.160559
H34   H     H_    0.035888 0.009013 0.681894 0.079570
H35   H     H_    0.936622 0.001069 0.250767 0.108417
H36   H     H_    0.698438 0.138680 0.283577 0.120498
H37   H     H_    0.041872 0.679330 0.250163 0.120772
H38   H     H_    0.585439 0.969107 0.101759 0.166673
H39   H     H_    0.115931 0.457291 0.185226 0.145553
O1    O     O_R   0.748670 0.497520 0.427970 -0.527712
O2    O     O_R   0.300170 0.471020 0.567120 -0.487112
O3    O     O_R   0.491630 0.259030 0.574940 -0.537103
O4    O     O_R   0.718640 0.304340 0.577850 -0.500365
O5    O     O_3   0.500010 0.500010 0.500020 -0.274105
O6    O     O_R   0.186620 0.923750 0.087000 -0.512487
O7    O     O_R   0.957350 0.194160 0.084660 -0.508605
O8    O     O_R   0.935120 0.407280 0.085350 -0.511587
O9    O     O_R   0.203800 0.365060 0.067090 -0.477205
O10   O     O_R   0.417470 0.174910 0.067830 -0.521116
O11   O     O_R   0.375160 0.946380 0.070880 -0.543399
O12   O     O_R   0.476470 0.723930 0.429450 -0.507203
O13   O     O_R   0.160500 0.919670 0.926690 -0.481258
O14   O     O_R   0.933140 0.190380 0.936050 -0.472704
O15   O     O_R   0.909010 0.403210 0.925030 -0.528974
O16   O     O_R   0.179590 0.361290 0.918480 -0.495026
O17   O     O_R   0.391360 0.170840 0.907510 -0.499984
O18   O     O_R   0.350950 0.942600 0.922260 -0.524401
O19   O     O_3   0.166650 0.166610 0.999880 -0.302913
O20   O     O_R   0.264730 0.744140 0.416740 -0.504917
O21   O     O_R   0.309440 0.472410 0.418220 -0.483836
O22   O     O_R   0.501630 0.260530 0.414310 -0.538735
O23   O     O_R   0.727920 0.305730 0.428950 -0.498683
O24   O     O_R   0.738670 0.496020 0.588600 -0.528757
O25   O     O_R   0.467190 0.722540 0.578350 -0.531549
O26   O     O_R   0.254720 0.742640 0.577370 -0.462214
C71   C     C_2   0.511861 0.526682 0.130499 0.575768
O27   O     O_2   0.385058 0.570492 0.130291 -0.512960
O28   O     O_R   0.569889 0.575240 0.080691 -0.695769
H40   H     H_    0.496652 0.645327 0.046591 0.342082
C72   C     C_2   0.966407 0.863969 0.826919 0.622328
O29   O     O_2   0.976665 0.752760 0.808913 -0.550208
O30   O     O_R   0.883131 0.938276 0.885394 -0.696969
H41   H     H_    0.834818 0.890709 0.907252 0.319457
C73   C     C_2   0.972978 0.851374 0.669027 0.604100
O31   O     O_2   0.026610 0.761145 0.622614 -0.512397
O32   O     O_R   0.831941 0.904937 0.685832 -0.724729
H42   H     H_    0.788770 0.856718 0.657547 0.318311

loop_
_geom_bond_atom_site_label_1
_geom_bond_atom_site_label_2
_ccdc_geom_bond_type
C45   O3    A    
C44   C49   A    
C7    C13   A    
C21   C26   A    
C34   O26   A    
Cr3   O4    S    
C7    H22   S    
Cr6   O11   S    
C41   C42   S    
C23   O23   A    
C19   C20   A    
C62   O7    A    
C65   O15   A    
C66   O16   A    
Cr5   O19   S    
C53   C54   A    
C20   C26   A    
Cr1   O5    S    
Cr5   O8    S    
C22   H6    S    
C21   C22   A    
C68   O18   A    
C24   H7    S    
C38   C42   S    
C33   H15   S    
C49   H25   S    
C30   C31   A    
C36   C66   S    
Cr2   O21   S    
C41   H20   S    
C20   C25   S    
C15   C16   A    
C29   C33   S    
C18   C19   A    
C23   C26   S    
C4    H1    S    
C53   C68   S    
C39   H17   S    
C36   C40   A    
C23   O1    A    
C46   C47   A    
C67   H33   S    
Cr4   O13   S    
C15   H4    S    
C24   C71   S    
C8    C9    A    
Cr2   O2    S    
C25   H8    S    
C31   H12   S    
C30   H10   S    
C68   O13   A    
C72   O30   S    
Cr5   O15   S    
C8    H38   S    
C57   H30   S    
C50   H27   S    
Cr3   O5    S    
C13   C14   A    
Cr6   O10   S    
Cr1   O12   S    
C44   C65   S    
C62   O8    A    
Cr5   O16   S    
C63   O9    A    
C66   O17   A    
C54   C59   S    
C39   C43   A    
Cr2   O26   S    
C48   H24   S    
C32   H14   S    
C27   C31   A    
Cr5   O9    S    
C28   C32   S    
O30   H41   S    
C10   C11   A    
C42   H21   S    
C39   C40   A    
C56   O24   A    
Cr6   O19   S    
C4    C5    A    
Cr2   O20   S    
C47   C51   S    
C44   C46   A    
C51   H28   S    
C34   C61   S    
C67   C69   A    
C12   C17   S    
C47   C52   A    
C9    C67   A    
C6    H37   S    
C37   C38   A    
C11   C16   S    
C65   O14   A    
C32   H13   S    
C14   C15   A    
C48   C52   A    
C51   H29   S    
Cr2   O5    S    
C25   H9    S    
C50   C51   S    
C60   C73   S    
C14   H3    S    
C24   C25   S    
C43   C45   S    
C63   O10   A    
C70   H36   S    
C53   C58   A    
C4    C17   A    
C30   C35   A    
C48   C49   A    
Cr4   O7    S    
C21   H5    S    
C50   H26   S    
C64   O11   A    
C12   O21   A    
C56   O4    A    
C71   O28   S    
C33   H16   S    
C2    C5    S    
C55   C61   A    
C58   H31   S    
C1    C35   S    
C72   O29   D    
C45   O2    A    
C46   C50   S    
C54   C55   A    
C28   C29   A    
Cr1   O25   S    
Cr3   O3    S    
C18   C22   A    
C12   O22   A    
C2    C8    A    
C1    O12   A    
C40   H18   S    
O28   H40   S    
C3    C5    A    
C11   C17   A    
Cr1   O24   S    
Cr6   O18   S    
C57   C61   A    
C6    C7    A    
C3    C63   S    
C29   C35   A    
C59   H32   S    
C32   C33   S    
C19   C24   S    
C38   C43   A    
C3    C10   A    
C2    C70   A    
C42   H23   S    
C9    H11   S    
Cr6   O17   S    
C57   C58   A    
C41   H19   S    
Cr3   O22   S    
Cr4   O19   S    
C34   O25   A    
Cr1   O1    S    
C73   O32   S    
C37   C41   S    
C69   C70   A    
C69   H35   S    
C60   H34   S    
C27   C64   S    
C13   H2    S    
C6    C16   A    
C59   C72   S    
C52   C56   S    
C59   C60   S    
Cr4   O6    S    
O32   H42   S    
C36   C37   A    
Cr3   O23   S    
Cr4   O14   S    
C1    O20   A    
C27   C28   A    
C71   O27   D    
C73   O31   D    
C18   C62   S    
C55   C60   S    
C10   H39   S    
C64   O6    A    
