data_mof_unit_57337.cif
_audit_creation_date              2012-12-10T17:49:34-0500
_audit_creation_method            fapswitch 2.2
_symmetry_space_group_name_H-M    P1
_symmetry_Int_Tables_number       1
_space_group_crystal_system       triclinic
_cell_length_a                    14.816389
_cell_length_b                    14.828885
_cell_length_c                    15.86697
_cell_angle_alpha                 75.249511
_cell_angle_beta                  102.292483
_cell_angle_gamma                 115.275917
_cell_volume                      3026.7783668

loop_
_atom_site_label
_atom_site_type_symbol
_atom_type_description
_atom_site_fract_x
_atom_site_fract_y
_atom_site_fract_z
_atom_type_partial_charge
C1    C     C_R   0.880446 0.312340 0.514191 0.806999
C2    C     C_3   0.893142 0.453652 0.039267 -0.411170
C3    C     C_3   0.002067 0.504078 0.082609 0.184254
C4    C     C_3   0.062304 0.443013 0.075714 -0.512811
C5    C     C_3   0.056482 0.434634 0.978419 -0.058892
C6    C     C_1   0.001693 0.502770 0.175074 -0.019131
C7    C     C_1   0.001432 0.502811 0.823962 -0.016885
C8    C     C_1   0.000245 0.501490 0.748568 -0.186216
C9    C     C_R   0.812707 0.204294 0.520528 -0.107372
C10   C     C_R   0.187013 0.796885 0.480781 -0.075999
C11   C     C_R   0.784283 0.024988 0.554162 0.148095
C12   C     C_R   0.999851 0.500103 0.659344 0.816039
C13   C     C_R   0.849768 0.128112 0.546254 -0.175206
C14   C     C_R   0.709519 0.178351 0.500912 -0.259666
C15   C     C_R   0.640901 0.077282 0.502636 0.069620
C16   C     C_R   0.679100 0.999719 0.529363 0.095999
C17   C     C_R   0.535025 0.051601 0.482171 0.083670
C18   C     C_R   0.467522 0.947708 0.491113 0.076779
C19   C     C_R   0.508170 0.872920 0.515452 -0.217695
C20   C     C_R   0.611010 0.898421 0.532743 -0.240850
C21   C     C_R   0.494061 0.126504 0.454558 -0.225934
C22   C     C_R   0.391750 0.100998 0.447921 -0.230983
C23   C     C_R   0.119393 0.687971 0.487025 0.784170
C24   C     C_R   0.325482 0.999915 0.462631 0.133607
C25   C     C_R   0.361559 0.922263 0.478608 0.086125
C26   C     C_R   0.223263 0.976339 0.461603 -0.234760
C27   C     C_R   0.153553 0.875435 0.474751 0.151491
C28   C     C_R   0.290104 0.822006 0.482199 -0.293641
C29   C     C_R   0.725955 0.683730 0.364961 -0.293148
C30   C     C_R   0.796848 0.640915 0.374687 0.300269
C31   C     C_R   0.712350 0.511859 0.490581 0.228791
C32   C     C_R   0.626419 0.538053 0.462243 -0.026299
C33   C     C_R   0.641422 0.633088 0.408809 0.083133
C34   C     C_R   0.000453 0.500475 0.340523 0.819438
C35   C     C_R   0.528687 0.477512 0.489310 0.092401
C36   C     C_R   0.457979 0.522130 0.482226 0.096047
C37   C     C_R   0.482508 0.623164 0.437436 -0.235261
C38   C     C_R   0.570621 0.675722 0.397773 -0.191498
C39   C     C_R   0.496178 0.371812 0.514955 -0.242042
C40   C     C_R   0.408427 0.314958 0.553472 -0.187814
C41   C     C_R   0.345466 0.360517 0.559433 0.076901
C42   C     C_R   0.365180 0.462818 0.519175 -0.018442
C43   C     C_R   0.260985 0.303040 0.603102 -0.288007
C44   C     C_R   0.193130 0.344270 0.604184 0.587824
C45   C     C_3   0.893145 0.461412 0.939659 0.216601
C46   C     C_R   0.289327 0.498917 0.516165 -0.067557
C47   C     C_3   0.062777 0.614754 0.937034 -0.067681
C48   C     C_3   0.051413 0.615332 0.032857 0.246744
C49   C     C_1   0.001325 0.501575 0.250823 -0.183713
C50   C     C_3   0.003618 0.504190 0.916412 0.140514
Cu1   Cu    Cu3+1 0.081750 0.475690 0.522550 0.940762
Cu2   Cu    Cu3+1 0.918250 0.524310 0.477450 0.911175
H1    H     H_    0.845820 0.491365 0.048022 0.198854
H2    H     H_    0.859118 0.373201 0.072849 0.162413
H3    H     H_    0.141583 0.480808 0.104252 0.186519
H4    H     H_    0.635941 0.836595 0.550542 0.147880
H5    H     H_    0.313067 0.761653 0.484741 0.152986
H6    H     H_    0.364290 0.161201 0.430916 0.150472
H7    H     H_    0.930088 0.150368 0.561198 0.201390
H8    H     H_    0.684669 0.239415 0.485606 0.156143
H9    H     H_    0.857413 0.514331 0.904272 0.174821
H10   H     H_    0.462609 0.792791 0.524482 0.139861
H11   H     H_    0.538485 0.206309 0.437904 0.136969
H12   H     H_    0.198301 0.037378 0.453172 0.129086
H13   H     H_    0.584127 0.751002 0.359109 0.144073
H14   H     H_    0.294108 0.571999 0.478707 0.138280
H15   H     H_    0.389380 0.234605 0.578271 0.147080
H16   H     H_    0.731764 0.753219 0.319112 0.162512
H17   H     H_    0.143616 0.631541 0.938913 0.084044
H18   H     H_    0.433107 0.661953 0.428689 0.127620
H19   H     H_    0.539684 0.332574 0.506456 0.130650
H20   H     H_    0.247171 0.225607 0.636506 0.158118
H21   H     H_    0.128144 0.651389 0.067995 0.054518
H22   H     H_    0.008422 0.354870 0.971249 0.181334
H23   H     H_    0.032021 0.365289 0.115731 0.182317
N1    N     N_R   0.795410 0.560790 0.443550 -0.206108
N2    N     N_R   0.204590 0.439170 0.556520 -0.225982
O1    O     O_R   0.977910 0.338120 0.529720 -0.565682
O2    O     O_R   0.839850 0.379180 0.491640 -0.602071
O3    O     O_R   0.069060 0.479460 0.639610 -0.598190
O4    O     O_R   0.931000 0.520530 0.601530 -0.575588
O5    O     O_R   0.160150 0.620820 0.508360 -0.587624
O6    O     O_R   0.022090 0.661880 0.470280 -0.596576
O7    O     O_R   0.069000 0.479470 0.398470 -0.567924
O8    O     O_R   0.930940 0.520540 0.360390 -0.598560
O9    O     O_3   0.832026 0.368532 0.911588 -0.737594
H24   H     H_    0.846409 0.312947 0.953768 0.323705
C51   C     C_3   0.046836 0.856624 0.484442 -0.376447
C52   C     C_3   0.022175 0.807099 0.578360 -0.801223
H25   H     H_    0.033575 0.735194 0.600634 0.256877
H26   H     H_    0.071062 0.859495 0.623916 0.239469
H27   H     H_    0.942340 0.790107 0.581832 0.236242
H28   H     H_    0.036207 0.929201 0.468795 0.185289
H29   H     H_    0.991726 0.811305 0.436543 0.221890
C53   C     C_3   0.824691 0.941854 0.591372 -0.425209
C54   C     C_3   0.935116 0.977454 0.631040 -0.834867
H30   H     H_    0.985352 0.020334 0.578861 0.253791
H31   H     H_    0.950024 0.024815 0.680564 0.269989
H32   H     H_    0.952378 0.910618 0.665191 0.236499
H33   H     H_    0.780496 0.888264 0.645110 0.208278
H34   H     H_    0.813835 0.899385 0.539017 0.202995
O10   O     O_3   0.112615 0.283855 0.650324 -0.759225
H35   H     H_    0.088672 0.328424 0.667255 0.356580
C55   C     C_3   0.867738 0.678817 0.304405 -0.338633
C56   C     C_3   0.871713 0.775785 0.238664 -0.948609
H36   H     H_    0.798246 0.763489 0.197447 0.264696
H37   H     H_    0.893619 0.839656 0.273448 0.250329
H38   H     H_    0.929046 0.796899 0.194147 0.265013
H39   H     H_    0.945687 0.694824 0.333621 0.240571
H40   H     H_    0.843335 0.618332 0.265278 0.225776
C57   C     C_3   0.722888 0.456592 0.585071 -0.335329
C58   C     C_3   0.760304 0.531019 0.648546 -0.789300
H41   H     H_    0.825974 0.600439 0.626888 0.261469
H42   H     H_    0.699599 0.554538 0.652224 0.233111
H43   H     H_    0.781603 0.493678 0.715187 0.254946
H44   H     H_    0.652969 0.397119 0.608108 0.175795
H45   H     H_    0.768755 0.412462 0.594180 0.238501
C59   C     C_3   0.052759 0.705581 0.865735 -0.353182
C60   C     C_3   0.946706 0.701043 0.831127 -0.797948
H46   H     H_    0.906761 0.642504 0.789447 0.234385
H47   H     H_    0.902732 0.686971 0.884913 0.285396
H48   H     H_    0.952080 0.775014 0.789078 0.227245
H49   H     H_    0.096699 0.776811 0.892057 0.196097
H50   H     H_    0.089337 0.713520 0.808341 0.189218
O11   O     O_3   0.993429 0.669411 0.033745 -0.732989
H51   H     H_    0.040309 0.741071 0.034710 0.319382
C61   C     C_3   0.161364 0.454781 0.955496 -0.392826
C62   C     C_3   0.195250 0.368476 0.001530 -0.834744
H52   H     H_    0.202200 0.359794 0.073926 0.253952
H53   H     H_    0.140750 0.295914 0.981497 0.250860
H54   H     H_    0.269758 0.385502 0.982869 0.246509
H55   H     H_    0.159229 0.461793 0.883850 0.218561
H56   H     H_    0.219713 0.526271 0.974527 0.202294

loop_
_geom_bond_atom_site_label_1
_geom_bond_atom_site_label_2
_ccdc_geom_bond_type
C10   C27   A    
C43   H20   S    
C23   O5    A    
C41   C42   A    
C36   C42   A    
C53   C54   S    
C20   H4    S    
C3    C6    S    
C62   H52   S    
C58   H42   S    
C7    C8    T    
C28   H5    S    
C25   C28   A    
C56   H37   S    
C26   C27   A    
C29   C30   A    
C23   O6    A    
Cu2   O8    S    
C24   C26   A    
C46   H14   S    
C55   H39   S    
C19   H10   S    
C10   C28   A    
C15   C16   A    
C54   H32   S    
C29   C33   A    
C3    C48   S    
C18   C19   A    
C42   C46   A    
C5    H22   S    
C9    C13   A    
Cu1   O3    S    
C55   C56   S    
C4    H23   S    
C26   H12   S    
O10   H35   S    
C48   O11   S    
C61   H55   S    
C47   C59   S    
C47   H17   S    
C35   C36   A    
C40   H15   S    
C54   H31   S    
C47   C48   S    
C57   H44   S    
C52   H26   S    
Cu2   O2    S    
C16   C20   A    
C21   C22   A    
C59   C60   S    
C1    O1    A    
C41   C43   A    
Cu2   O4    S    
C18   C25   A    
C34   O7    A    
C58   H41   S    
C47   C50   S    
C60   H47   S    
C2    C45   S    
C56   H38   S    
C51   H29   S    
Cu1   Cu2   S    
C32   C35   A    
C1    C9    S    
C24   C25   A    
C2    H2    S    
C39   C40   A    
C9    C14   A    
C44   O10   S    
O9    H24   S    
C17   C21   A    
C3    C4    S    
C34   O8    A    
Cu2   O6    S    
C35   C39   A    
C43   C44   A    
Cu1   N2    S    
C37   C38   A    
C29   H16   S    
C30   N1    A    
C11   C16   A    
C31   C32   A    
C38   H13   S    
C8    C12   S    
C54   H30   S    
C5    C61   S    
C17   C18   A    
C59   H50   S    
C52   H27   S    
Cu1   O5    S    
C40   C41   A    
C4    H3    S    
O11   H51   S    
C1    O2    A    
C22   C24   A    
C5    C50   S    
C61   C62   S    
C62   H54   S    
C60   H48   S    
C11   C53   S    
C15   C17   A    
C51   H28   S    
C44   N2    A    
C34   C49   S    
C31   C57   S    
C57   C58   S    
C53   H33   S    
C48   H21   S    
C61   H56   S    
C7    C50   S    
C4    C5    S    
Cu2   N1    S    
C2    H1    S    
C62   H53   S    
C22   H6    S    
C46   N2    A    
C60   H46   S    
C13   H7    S    
C10   C23   S    
C14   H8    S    
C56   H36   S    
C33   C38   A    
C57   H45   S    
C32   C33   A    
C19   C20   A    
C2    C3    S    
Cu1   O1    S    
C55   H40   S    
C11   C13   A    
C31   N1    A    
C45   C50   S    
C12   O3    A    
C45   H9    S    
C12   O4    A    
C45   O9    S    
C59   H49   S    
C6    C49   T    
C27   C51   S    
C21   H11   S    
C51   C52   S    
C36   C37   A    
C30   C55   S    
C39   H19   S    
C14   C15   A    
C52   H25   S    
C37   H18   S    
Cu1   O7    S    
C58   H43   S    
C53   H34   S    
