data_mof_unit_15766.cif
_audit_creation_date              2012-12-10T20:49:08-0500
_audit_creation_method            fapswitch 2.2
_symmetry_space_group_name_H-M    P1
_symmetry_Int_Tables_number       1
_space_group_crystal_system       triclinic
_cell_length_a                    8.895182
_cell_length_b                    8.217102
_cell_length_c                    10.558369
_cell_angle_alpha                 88.910614
_cell_angle_beta                  90.060146
_cell_angle_gamma                 90.06148
_cell_volume                      771.598486

loop_
_atom_site_label
_atom_site_type_symbol
_atom_type_description
_atom_site_fract_x
_atom_site_fract_y
_atom_site_fract_z
_atom_type_partial_charge
C1    C     C_R   0.218515 0.499947 0.499986 0.921775
C2    C     C_3   0.628793 0.548254 0.048305 -0.380930
C3    C     C_3   0.508250 0.499458 0.877497 -0.293877
C4    C     C_3   0.486590 0.501193 0.122822 -0.292766
C5    C     C_1   0.065379 0.499922 0.500006 -0.087986
C6    C     C_1   0.934625 0.500075 0.500041 -0.088831
C7    C     C_R   0.781485 0.500052 0.500047 0.926848
C8    C     C_R   0.491578 0.500965 0.257505 0.965864
C9    C     C_R   0.506236 0.499148 0.742707 0.956952
C10   C     C_3   0.387954 0.603593 0.034294 0.333702
C11   C     C_3   0.606233 0.396827 0.966430 0.339508
C12   C     C_3   0.529376 0.650545 0.957679 0.315947
C13   C     C_3   0.464515 0.350300 0.042870 0.378220
C14   C     C_3   0.365716 0.452648 0.951866 -0.443500
H1    H     H_    0.258474 0.413974 0.907512 0.210722
H2    H     H_    0.736045 0.588240 0.092012 0.232356
H3    H     H_    0.110828 0.705180 0.904043 0.361885
H4    H     H_    0.870534 0.276139 0.104318 0.360754
H5    H     H_    0.391787 0.874026 0.804935 0.357795
H6    H     H_    0.225438 0.118231 0.955087 0.388713
N1    N     N_1   0.500000 0.073640 0.500000 0.045261
N2    N     N_1   0.500000 0.926360 0.500000 0.039261
O1    O     O_R   0.285350 0.636850 0.500000 -0.615053
O2    O     O_2   0.260828 0.828025 0.183700 -0.150915
O3    O     O_3   0.134588 0.794727 0.962284 -0.465149
O4    O     O_2   0.732891 0.174267 0.815108 -0.153582
O5    O     O_2   0.883023 0.412521 0.866499 -0.324168
O6    O     O_3   0.847762 0.190880 0.042025 -0.427698
O7    O     O_2   0.654488 0.935882 0.007489 -0.128543
O8    O     O_2   0.744224 0.796764 0.820755 -0.221258
O9    O     O_3   0.485193 0.939647 0.804930 -0.468485
O10   O     O_2   0.495178 0.072252 0.181093 -0.201474
O11   O     O_2   0.252716 0.210928 0.189266 -0.255233
O12   O     O_R   0.714650 0.363150 0.500000 -0.607722
O13   O     O_3   0.317011 0.060150 0.984354 -0.441154
O14   O     O_R   0.714650 0.636850 0.500000 -0.602366
O15   O     O_R   0.285350 0.363150 0.500000 -0.607603
O16   O     O_R   0.499970 0.636850 0.313950 -0.584497
O17   O     O_R   0.500030 0.363150 0.686050 -0.579855
O18   O     O_R   0.500030 0.636850 0.686050 -0.618309
O19   O     O_R   0.499970 0.363150 0.313950 -0.583995
O20   O     O_2   0.117663 0.580843 0.145138 -0.303315
S1    S     S_3+6 0.222056 0.704554 0.086086 0.115424
S2    S     S_3+6 0.770956 0.291155 0.917747 0.119778
S3    S     S_3+6 0.607221 0.835858 0.897558 0.173281
S4    S     S_3+6 0.382457 0.168477 0.104926 0.152236
Zn1   Zn    Zn3+2 0.500000 0.682780 0.500000 1.107789
Zn2   Zn    Zn3+2 0.500000 0.317220 0.500000 1.124192

loop_
_geom_bond_atom_site_label_1
_geom_bond_atom_site_label_2
_ccdc_geom_bond_type
O18   Zn1   S    
C2    C4    S    
C6    C7    S    
C3    C9    S    
C2    H2    S    
C7    O14   A    
O8    S3    D    
C3    C11   S    
C1    O15   A    
C4    C8    S    
N1    Zn2   S    
C2    C12   S    
O3    S1    S    
O1    Zn1   S    
N2    Zn1   S    
H5    O9    S    
C11   S2    S    
C13   C14   S    
O15   Zn2   S    
O11   S4    D    
C11   C13   S    
O16   Zn1   S    
C5    C6    T    
C3    C14   S    
C8    O16   A    
C1    C5    S    
C2    C11   S    
C10   C12   S    
O19   Zn2   S    
O6    S2    S    
C1    O1    A    
C10   C14   S    
C13   S4    S    
C7    O12   A    
O12   Zn2   S    
O20   S1    D    
O4    S2    D    
C9    O17   A    
H4    O6    S    
C8    O19   A    
O14   Zn1   S    
O9    S3    S    
C4    C13   S    
C12   S3    S    
O2    S1    D    
C14   H1    S    
O17   Zn2   S    
O10   S4    D    
C3    C12   S    
C10   S1    S    
N1    N2    T    
O13   S4    S    
C4    C10   S    
O5    S2    D    
H6    O13   S    
C9    O18   A    
O7    S3    D    
H3    O3    S    
