data_mof_unit_41762.cif
_audit_creation_date              2012-12-11T15:26:01-0500
_audit_creation_method            fapswitch 2.2
_symmetry_space_group_name_H-M    P1
_symmetry_Int_Tables_number       1
_space_group_crystal_system       triclinic
_cell_length_a                    24.396341
_cell_length_b                    17.017767
_cell_length_c                    15.452258
_cell_angle_alpha                 90.004864
_cell_angle_beta                  50.752416
_cell_angle_gamma                 89.993544
_cell_volume                      4968.15787473

loop_
_atom_site_label
_atom_site_type_symbol
_atom_type_description
_atom_site_fract_x
_atom_site_fract_y
_atom_site_fract_z
_atom_type_partial_charge
C1    C     C_R   0.335518 0.117459 0.795599 -0.173708
C2    C     C_2   0.344150 0.754882 0.885605 0.168722
C3    C     C_2   0.660848 0.210034 0.682146 0.528110
C4    C     C_2   0.205183 0.429312 0.676613 0.464086
C5    C     C_2   0.839382 0.710262 0.317707 0.526739
C6    C     C_2   0.795082 0.429102 0.322962 0.463734
C7    C     C_2   0.161284 0.709187 0.680400 0.524151
C8    C     C_3   0.337283 0.748362 0.991009 -0.313057
C9    C     C_3   0.378053 0.808307 0.004251 -0.863768
C10   C     C_3   0.663129 0.252837 0.009071 -0.359704
C11   C     C_3   0.588608 0.282517 0.104453 -0.776679
C12   C     C_3   0.634154 0.731453 0.051523 -0.293004
C13   C     C_2   0.312654 0.179737 0.965271 0.166648
C14   C     C_3   0.582527 0.663639 0.089693 -0.902584
C15   C     C_3   0.336766 0.252393 0.991455 -0.360599
C16   C     C_3   0.411333 0.281997 0.896250 -0.775162
C17   C     C_3   0.865989 0.231356 0.948258 -0.296537
C18   C     C_3   0.917504 0.163354 0.909932 -0.892359
C19   C     C_3   0.163994 0.753702 0.009657 -0.355762
C20   C     C_3   0.087747 0.780131 0.102057 -0.769206
C21   C     C_3   0.134018 0.231284 0.051773 -0.298875
C22   C     C_3   0.082468 0.163359 0.090032 -0.888487
C23   C     C_3   0.836675 0.752376 0.991449 -0.360041
C24   C     C_2   0.647444 0.745702 0.133974 0.171331
C25   C     C_3   0.911303 0.781860 0.896287 -0.775731
C26   C     C_2   0.187340 0.679495 0.034322 0.175831
C27   C     C_2   0.852517 0.245748 0.866053 0.170535
C28   C     C_2   0.812564 0.679666 0.965348 0.170475
C29   C     C_2   0.147419 0.245634 0.134074 0.165525
C30   C     C_2   0.754040 0.152752 0.960479 -0.223022
C31   C     C_2   0.309984 0.702865 0.868479 -0.242121
C32   C     C_2   0.245824 0.152494 0.039786 -0.209197
C33   C     C_R   0.651171 0.858986 0.238169 -0.149496
C34   C     C_2   0.691323 0.699784 0.137018 -0.167773
C35   C     C_2   0.254240 0.652449 0.959754 -0.219788
C36   C     C_2   0.808458 0.199994 0.863255 -0.165292
C37   C     C_2   0.745734 0.652440 0.039871 -0.223053
C38   C     C_2   0.191400 0.199799 0.136985 -0.159010
C39   C     C_R   0.592918 0.140668 0.593108 -0.106141
C40   C     C_R   0.382279 0.902563 0.409478 -0.096287
C41   C     C_R   0.406956 0.140577 0.406945 -0.109700
C42   C     C_R   0.617846 0.902713 0.590378 -0.087761
C43   C     C_R   0.091658 0.641420 0.593519 -0.101384
C44   C     C_R   0.664423 0.117595 0.204563 -0.174918
C45   C     C_R   0.882127 0.402728 0.409660 -0.086697
C46   C     C_R   0.907135 0.640732 0.406920 -0.106254
C47   C     C_R   0.117904 0.402719 0.590289 -0.086704
C48   C     C_R   0.672765 0.135979 0.407328 -0.123696
C49   C     C_R   0.309729 0.902183 0.593628 -0.132990
C50   C     C_R   0.327159 0.135907 0.592753 -0.124941
C51   C     C_R   0.690366 0.902420 0.406210 -0.147269
C52   C     C_R   0.171499 0.637532 0.407721 -0.129597
C53   C     C_R   0.809641 0.402411 0.593822 -0.146903
C54   C     C_R   0.827271 0.636048 0.592688 -0.124093
C55   C     C_R   0.345758 0.862894 0.770181 -0.172572
C56   C     C_R   0.190363 0.402403 0.406124 -0.145618
C57   C     C_R   0.574137 0.114803 0.202679 -0.137916
C58   C     C_R   0.438462 0.862825 0.767786 -0.121624
C59   C     C_R   0.425798 0.114624 0.797479 -0.136530
C60   C     C_R   0.559533 0.859769 0.237879 -0.121164
C61   C     C_R   0.074183 0.614245 0.202298 -0.132594
C62   C     C_R   0.940487 0.359759 0.762077 -0.121155
C63   C     C_R   0.925666 0.614449 0.797683 -0.139078
C64   C     C_R   0.059498 0.359729 0.237963 -0.120908
C65   C     C_R   0.357850 0.142913 0.854008 0.119807
C66   C     C_R   0.835486 0.617423 0.795615 -0.174493
C67   C     C_R   0.619361 0.817585 0.202658 0.048746
C68   C     C_R   0.642049 0.143166 0.146262 0.119846
C69   C     C_R   0.375821 0.823791 0.810478 0.112072
C70   C     C_R   0.857758 0.642803 0.854120 0.120250
C71   C     C_R   0.119327 0.317535 0.202747 0.051297
C72   C     C_R   0.142231 0.642186 0.145306 0.113137
C73   C     C_R   0.880641 0.317603 0.797331 0.049873
C74   C     C_R   0.651673 0.178763 0.500664 0.031753
C75   C     C_R   0.311571 0.893444 0.503185 0.090119
C76   C     C_R   0.348172 0.178618 0.499457 0.031092
C77   C     C_R   0.151151 0.358965 0.238214 -0.148826
C78   C     C_R   0.688489 0.893666 0.496535 0.107977
C79   C     C_R   0.149445 0.680465 0.501508 0.025651
C80   C     C_R   0.811495 0.393652 0.503526 0.107719
C81   C     C_R   0.848389 0.678862 0.499365 0.032404
C82   C     C_R   0.188531 0.393627 0.496375 0.108036
C83   C     C_R   0.281981 0.306648 0.586717 -0.076098
C84   C     C_R   0.809384 0.846861 0.389962 -0.103375
C85   C     C_R   0.717954 0.306721 0.413238 -0.076660
C86   C     C_R   0.190683 0.846191 0.610521 -0.083743
C87   C     C_R   0.782034 0.806811 0.586870 -0.076597
C88   C     C_R   0.164586 0.616948 0.203819 -0.184116
C89   C     C_R   0.309191 0.346194 0.389764 -0.101753
C90   C     C_R   0.211334 0.810986 0.418189 -0.106801
C91   C     C_R   0.690672 0.346679 0.610135 -0.102515
C92   C     C_R   0.744266 0.869881 0.585975 -0.054492
C93   C     C_R   0.326672 0.270509 0.398102 -0.052794
C94   C     C_R   0.253773 0.870114 0.415282 -0.053086
C95   C     C_R   0.672930 0.271032 0.602151 -0.049284
C96   C     C_R   0.244416 0.369841 0.585589 -0.055516
C97   C     C_R   0.827206 0.771219 0.397838 -0.048030
C98   C     C_R   0.755671 0.369819 0.414182 -0.054656
C99   C     C_R   0.848825 0.359022 0.761842 -0.149023
C100  C     C_R   0.172065 0.771168 0.602477 -0.043512
C101  C     C_R   0.751288 0.880848 0.489052 -0.021903
C102  C     C_R   0.317066 0.251707 0.496360 -0.075895
C103  C     C_R   0.248624 0.879861 0.510974 -0.042323
C104  C     C_R   0.682684 0.251964 0.503806 -0.077082
C105  C     C_R   0.251363 0.380639 0.488708 -0.022215
C106  C     C_R   0.817394 0.752097 0.496219 -0.076804
C107  C     C_R   0.748686 0.380755 0.511077 -0.022002
C108  C     C_R   0.179322 0.754036 0.505759 -0.083612
C109  C     C_2   0.288041 0.299500 0.676174 0.424636
C110  C     C_2   0.687233 0.180071 0.035082 0.170470
C111  C     C_2   0.853634 0.893487 0.285131 0.608579
C112  C     C_2   0.711856 0.299535 0.323819 0.425105
C113  C     C_2   0.146838 0.892631 0.715573 0.603017
C114  C     C_2   0.788065 0.799602 0.676352 0.426152
C115  C     C_2   0.353623 0.392408 0.284573 0.605378
C116  C     C_2   0.194761 0.811370 0.339958 0.452668
C117  C     C_2   0.646384 0.393228 0.715059 0.605543
C118  C     C_2   0.704746 0.929094 0.677307 0.464336
C119  C     C_2   0.338386 0.209261 0.318618 0.535063
C120  C     C_2   0.299839 0.923243 0.318214 0.555638
H1    H     H_    0.282071 0.119315 0.824185 0.107118
H2    H     H_    0.403481 0.906456 0.323613 0.097291
H3    H     H_    0.438313 0.158061 0.320703 0.092008
H4    H     H_    0.597111 0.907116 0.676024 0.108214
H5    H     H_    0.060067 0.658868 0.679805 0.090926
H6    H     H_    0.902840 0.407118 0.324024 0.109129
H7    H     H_    0.938649 0.658308 0.320696 0.091495
H8    H     H_    0.097218 0.407095 0.675916 0.109270
H9    H     H_    0.718295 0.145962 0.321205 0.119629
H10   H     H_    0.263745 0.906857 0.680395 0.087716
H11   H     H_    0.281633 0.145874 0.678896 0.120036
H12   H     H_    0.699810 0.844967 0.222948 0.104651
H13   H     H_    0.736457 0.907623 0.319566 0.089563
H14   H     H_    0.216230 0.649548 0.321642 0.091124
H15   H     H_    0.763565 0.407608 0.680479 0.089558
H16   H     H_    0.781752 0.646061 0.678817 0.119361
H17   H     H_    0.236421 0.407629 0.319467 0.088962
H18   H     H_    0.545651 0.111803 0.170588 0.114786
H19   H     H_    0.476585 0.848539 0.779154 0.107171
H20   H     H_    0.454284 0.111518 0.829566 0.115161
H21   H     H_    0.522323 0.845091 0.224436 0.100762
H22   H     H_    0.045509 0.611139 0.170543 0.113288
H23   H     H_    0.717868 0.119482 0.175982 0.107557
H24   H     H_    0.977732 0.345065 0.775451 0.103285
H25   H     H_    0.954028 0.611191 0.829974 0.114667
H26   H     H_    0.022251 0.345034 0.224600 0.103140
H27   H     H_    0.312691 0.707784 0.795718 0.158339
H28   H     H_    0.771453 0.102175 0.980345 0.144614
H29   H     H_    0.698993 0.710978 0.197912 0.138785
H30   H     H_    0.228409 0.101987 0.019816 0.145794
H31   H     H_    0.800685 0.211249 0.802498 0.138999
H32   H     H_    0.271130 0.600456 0.978134 0.140432
H33   H     H_    0.199128 0.211044 0.197799 0.140499
H34   H     H_    0.295981 0.850004 0.788453 0.109966
H35   H     H_    0.728308 0.601927 0.019925 0.144480
H36   H     H_    0.339106 0.286311 0.653899 0.046349
H37   H     H_    0.837824 0.952721 0.283454 -0.032199
H38   H     H_    0.660788 0.286297 0.346143 0.046268
H39   H     H_    0.162411 0.952063 0.716961 -0.030951
H40   H     H_    0.839116 0.786398 0.654107 0.047901
H41   H     H_    0.338203 0.451778 0.282555 -0.034815
H42   H     H_    0.153466 0.773786 0.355742 0.049221
H43   H     H_    0.662105 0.452482 0.716832 -0.032207
H44   H     H_    0.685519 0.916201 0.760778 0.097833
H45   H     H_    0.782052 0.619291 0.824146 0.107290
H46   H     H_    0.335099 0.147459 0.337978 0.072912
H47   H     H_    0.326661 0.902353 0.233898 0.053268
H48   H     H_    0.664081 0.148201 0.663074 0.076322
H49   H     H_    0.186230 0.416700 0.760030 0.098744
H50   H     H_    0.836119 0.648417 0.336728 0.076032
H51   H     H_    0.814276 0.416262 0.239464 0.098480
H52   H     H_    0.164158 0.647584 0.660593 0.077137
H53   H     H_    0.435756 0.797199 0.942351 0.238126
H54   H     H_    0.364964 0.869249 0.997248 0.274987
H55   H     H_    0.362963 0.801431 0.088337 0.252869
H56   H     H_    0.199792 0.344951 0.222989 0.104230
H57   H     H_    0.280486 0.754294 0.065311 0.215709
H58   H     H_    0.354898 0.688805 0.993692 0.180549
H59   H     H_    0.547985 0.241322 0.120077 0.262997
H60   H     H_    0.581947 0.290976 0.181922 0.240583
H61   H     H_    0.580053 0.340045 0.080711 0.269755
H62   H     H_    0.700197 0.301879 0.986290 0.189684
H63   H     H_    0.666042 0.240239 0.935702 0.240763
H64   H     H_    0.604016 0.608435 0.096142 0.262675
H65   H     H_    0.530960 0.677287 0.172398 0.258404
H66   H     H_    0.573624 0.654638 0.028230 0.259194
H67   H     H_    0.218094 0.618709 0.175015 0.092793
H68   H     H_    0.611701 0.784796 0.042935 0.195079
H69   H     H_    0.684508 0.719057 0.966805 0.221183
H70   H     H_    0.451884 0.240731 0.880733 0.262817
H71   H     H_    0.418110 0.290530 0.818704 0.240434
H72   H     H_    0.419881 0.339471 0.920115 0.269836
H73   H     H_    0.299764 0.301509 0.014200 0.189006
H74   H     H_    0.333754 0.239699 0.064884 0.242210
H75   H     H_    0.895612 0.108157 0.904463 0.261234
H76   H     H_    0.968842 0.176595 0.826779 0.260309
H77   H     H_    0.926946 0.154584 0.970750 0.259098
H78   H     H_    0.800169 0.345053 0.777101 0.104409
H79   H     H_    0.888628 0.284600 0.956647 0.196320
H80   H     H_    0.815684 0.219079 0.033091 0.221217
H81   H     H_    0.049766 0.738007 0.111006 0.262400
H82   H     H_    0.077414 0.786728 0.182768 0.243612
H83   H     H_    0.078998 0.838056 0.079468 0.271295
H84   H     H_    0.198981 0.803095 0.994240 0.193777
H85   H     H_    0.170845 0.744254 0.932147 0.239979
H86   H     H_    0.104197 0.108164 0.095891 0.262633
H87   H     H_    0.031048 0.176777 0.172994 0.259813
H88   H     H_    0.073229 0.154484 0.028973 0.258519
H89   H     H_    0.561446 0.158206 0.679351 0.090948
H90   H     H_    0.111436 0.284561 0.043320 0.197037
H91   H     H_    0.184345 0.218958 0.966977 0.220621
H92   H     H_    0.951772 0.740551 0.880972 0.262256
H93   H     H_    0.918181 0.790318 0.818641 0.241413
H94   H     H_    0.919876 0.839354 0.920077 0.269918
H95   H     H_    0.799733 0.801507 0.013963 0.189981
H96   H     H_    0.833555 0.739794 0.065005 0.240588
N1    N     N_R   0.388930 0.078160 0.705470 -0.040555
N2    N     N_R   0.419500 0.922160 0.443350 -0.047747
N3    N     N_R   0.419500 0.077840 0.443350 -0.035716
N4    N     N_R   0.580500 0.922160 0.556650 -0.050919
N5    N     N_R   0.080500 0.577840 0.556650 -0.035967
N6    N     N_R   0.919500 0.422160 0.443350 -0.050337
N7    N     N_R   0.919500 0.577840 0.443350 -0.036053
N8    N     N_R   0.080500 0.422160 0.556650 -0.050503
N9    N     N_R   0.626210 0.077590 0.443410 -0.041818
N10   N     N_R   0.373790 0.922410 0.556590 -0.042211
N11   N     N_R   0.373790 0.077590 0.556590 -0.041941
N12   N     N_R   0.611070 0.921840 0.294530 -0.036975
N13   N     N_R   0.626210 0.922410 0.443410 -0.042124
N14   N     N_R   0.126210 0.577590 0.443410 -0.037842
N15   N     N_R   0.873790 0.422410 0.556590 -0.041959
N16   N     N_R   0.873790 0.577590 0.556590 -0.041894
N17   N     N_R   0.126210 0.422410 0.443410 -0.042041
N18   N     N_R   0.554800 0.077270 0.294580 -0.044889
N19   N     N_R   0.445200 0.922730 0.705420 -0.045141
N20   N     N_R   0.445200 0.077270 0.705420 -0.045042
N21   N     N_R   0.554800 0.922730 0.294580 -0.041657
N22   N     N_R   0.054800 0.577270 0.294580 -0.044920
N23   N     N_R   0.611070 0.078160 0.294530 -0.041094
N24   N     N_R   0.945200 0.422730 0.705420 -0.042074
N25   N     N_R   0.945200 0.577270 0.705420 -0.045238
N26   N     N_R   0.054800 0.422730 0.294580 -0.042233
N27   N     N_R   0.388930 0.921840 0.705470 -0.037488
N28   N     N_R   0.888930 0.578160 0.705470 -0.041069
N29   N     N_R   0.111070 0.421840 0.294530 -0.036757
N30   N     N_R   0.111070 0.578160 0.294530 -0.037779
N31   N     N_R   0.888930 0.421840 0.705470 -0.036957
N32   N     N_R   0.580500 0.077840 0.556650 -0.035582
Ni1   Ni    Ni4+2 0.382710 0.000000 0.629850 0.215088
Ni2   Ni    Ni4+2 0.617290 0.000000 0.370150 0.214588
Ni3   Ni    Ni4+2 0.882710 0.500000 0.629850 0.214822
Ni4   Ni    Ni4+2 0.117290 0.500000 0.370150 0.214694
Ni5   Ni    Ni4+2 0.513020 0.000000 0.629850 0.225688
Ni6   Ni    Ni4+2 0.486980 0.000000 0.370150 0.226052
Ni7   Ni    Ni4+2 0.013020 0.500000 0.629850 0.226954
Ni8   Ni    Ni4+2 0.986980 0.500000 0.370150 0.227161
O1    O     O_2   0.236181 0.303665 0.774781 -0.633738
O2    O     O_2   0.347309 0.226641 0.233832 -0.560358
O3    O     O_2   0.308629 0.991344 0.331890 -0.606379
O4    O     O_2   0.651679 0.227650 0.767067 -0.561707
O5    O     O_2   0.194274 0.494897 0.658342 -0.610356
O6    O     O_2   0.848663 0.727926 0.232716 -0.562100
O7    O     O_2   0.805898 0.494774 0.341148 -0.610431
O8    O     O_2   0.153506 0.725792 0.764450 -0.559218
O9    O     O_2   0.910007 0.868421 0.201743 -0.539791
O10   O     O_2   0.763678 0.303739 0.225194 -0.634051
O11   O     O_2   0.091079 0.867077 0.799626 -0.540185
O12   O     O_2   0.736212 0.803755 0.774934 -0.635146
O13   O     O_2   0.409735 0.366825 0.201226 -0.540788
O14   O     O_2   0.223662 0.855940 0.260420 -0.608815
O15   O     O_2   0.590070 0.368076 0.798422 -0.540555
O16   O     O_2   0.693873 0.994765 0.659244 -0.610065

loop_
_geom_bond_atom_site_label_1
_geom_bond_atom_site_label_2
_ccdc_geom_bond_type
C58   H19   S    
C55   H34   S    
C96   C105  A    
N5    Ni7   S    
N9    Ni2   S    
N27   Ni1   S    
N28   Ni3   S    
C51   N13   A    
C34   C37   S    
C26   C72   S    
C37   H35   S    
C13   C32   D    
C59   N20   A    
C11   H61   S    
C47   N8    A    
C85   C112  S    
N15   Ni3   S    
C43   H5    S    
C89   C115  S    
C57   N18   A    
C42   H4    S    
C47   H8    S    
C13   C65   S    
C117  H43   S    
C12   H69   S    
C66   N28   A    
C80   C107  S    
C39   H89   S    
C55   N27   A    
N4    N13   A    
C30   C110  D    
C86   C113  S    
C45   N6    A    
C6    C98   S    
C116  H42   S    
C25   H94   S    
C83   C102  A    
C20   H81   S    
C111  O9    D    
C114  O12   D    
C14   H66   S    
C116  O14   D    
C47   C82   A    
C64   N26   A    
C5    C97   S    
C43   C79   A    
C15   C16   S    
C63   N25   A    
C84   C101  A    
C62   N24   A    
C21   H90   S    
C22   H86   S    
C17   H80   S    
C39   C74   A    
C109  H36   S    
C19   C26   S    
C92   C118  S    
C87   C114  S    
C85   C98   A    
C16   H72   S    
C24   C67   S    
C72   C88   A    
C4    C96   S    
C15   H74   S    
C94   C120  S    
C8    H57   S    
C88   H67   S    
C78   C101  S    
C19   C20   S    
C60   C67   A    
C4    O5    D    
C53   H15   S    
C29   C38   D    
C79   C108  S    
N24   N31   A    
C1    C65   A    
C5    H50   S    
C91   C117  S    
C62   C73   A    
C9    H53   S    
C6    O7    D    
N25   Ni7   S    
C32   C38   S    
N20   Ni5   S    
C93   C119  S    
C2    C69   S    
C86   C100  A    
C83   C109  S    
N18   Ni6   S    
N10   Ni1   S    
N12   Ni2   S    
N13   Ni2   S    
C23   H96   S    
C40   N2    A    
C33   N12   A    
N9    N32   A    
C64   C71   A    
C7    H52   S    
N23   Ni2   S    
C75   C103  S    
C10   H63   S    
C50   N11   A    
N1    Ni1   S    
C10   C110  S    
N14   Ni4   S    
C86   C103  A    
N7    Ni8   S    
N1    N20   A    
C54   N16   A    
C117  O15   D    
C34   H29   S    
C3    H48   S    
C90   C94   A    
C118  O16   D    
C6    H51   S    
C76   C102  S    
C2    C8    S    
C100  C108  A    
N26   N29   A    
C4    H49   S    
C18   H76   S    
C84   C111  S    
C48   C74   A    
N21   Ni6   S    
C9    H54   S    
C53   C80   A    
C48   N9    A    
N19   Ni5   S    
C58   N19   A    
C7    C100  S    
C26   C35   D    
C14   H65   S    
N32   Ni5   S    
C8    C9    S    
N30   Ni4   S    
N31   Ni3   S    
C118  H44   S    
N3    Ni6   S    
C21   C29   S    
C31   H27   S    
C24   C34   D    
C46   N7    A    
C21   H91   S    
N22   Ni8   S    
C2    C31   D    
C17   C27   S    
C115  H41   S    
C25   H92   S    
N8    N17   A    
C113  O11   D    
C40   C75   A    
C95   C104  A    
C16   H71   S    
C50   C76   A    
C60   H21   S    
C46   C81   A    
C41   N3    A    
C61   H22   S    
C63   C70   A    
C45   H6    S    
C23   H95   S    
C54   H16   S    
N4    Ni5   S    
N22   N30   A    
C18   H77   S    
C49   C75   A    
C17   C18   S    
N2    Ni6   S    
C22   H88   S    
C7    O8    D    
C58   C69   A    
N16   Ni3   S    
C68   C110  S    
C23   C28   S    
C113  H39   S    
C56   C82   A    
C119  H46   S    
N19   N27   A    
C55   C69   A    
C85   C104  A    
C112  H38   S    
C92   C101  A    
C53   N15   A    
C97   C106  A    
C33   H12   S    
N29   Ni4   S    
C12   C14   S    
C94   C103  A    
C42   C78   A    
C77   H56   S    
C90   C116  S    
C57   H18   S    
C13   C15   S    
C5    O6    D    
C10   H62   S    
C31   C35   S    
C56   N17   A    
C44   C68   A    
C90   C108  A    
C11   H59   S    
C35   H32   S    
C84   C97   A    
C57   C68   A    
C99   N31   A    
C52   C79   A    
C44   N23   A    
C112  O10   D    
C71   C77   A    
N5    N14   A    
N7    N16   A    
C61   C72   A    
C74   C104  S    
C73   C99   A    
C82   C105  S    
C81   C106  S    
C16   H70   S    
N24   Ni7   S    
C59   H20   S    
C66   H45   S    
C43   N5    A    
C18   H75   S    
C28   C70   S    
C20   H83   S    
C62   H24   S    
C93   C102  A    
N6    N15   A    
C14   H64   S    
C115  O13   D    
C36   H31   S    
C30   H28   S    
C11   H60   S    
N6    Ni8   S    
C27   C36   D    
C120  O3    D    
C40   H2    S    
C49   H10   S    
C12   C24   S    
C42   N4    A    
C46   H7    S    
C64   H26   S    
N11   Ni1   S    
C88   N30   A    
N25   N28   A    
C10   C11   S    
C21   C22   S    
C41   H3    S    
C25   H93   S    
C114  H40   S    
C51   C78   A    
C20   H82   S    
N12   N21   A    
C30   C36   S    
C33   C67   A    
C27   C73   S    
C59   C65   A    
C41   C76   A    
C56   H17   S    
C51   H13   S    
C52   N14   A    
C66   C70   A    
C87   C106  A    
C111  H37   S    
C28   C37   D    
C44   H23   S    
C61   N22   A    
C83   C96   A    
C99   H78   S    
C19   H84   S    
C63   H25   S    
C22   H87   S    
C9    H55   S    
C45   C80   A    
C77   N29   A    
N18   N23   A    
C23   C25   S    
C89   C93   A    
C48   H9    S    
C1    H1    S    
C50   H11   S    
C98   C107  A    
C91   C95   A    
C39   N32   A    
C15   H73   S    
C8    H58   S    
C52   H14   S    
C119  O2    D    
C32   H30   S    
C120  H47   S    
C3    C95   S    
N26   Ni8   S    
C89   C105  A    
C19   H85   S    
N8    Ni7   S    
C1    N1    A    
C60   N21   A    
C109  O1    D    
C38   H33   S    
N3    N11   A    
C49   N10   A    
C87   C92   A    
C17   H79   S    
N2    N10   A    
C54   C81   A    
C3    O4    D    
N17   Ni4   S    
C29   C71   S    
C91   C107  A    
C12   H68   S    
