data_mof_unit_28723.cif
_audit_creation_date              2012-12-10T19:00:01-0500
_audit_creation_method            fapswitch 2.2
_symmetry_space_group_name_H-M    P1
_symmetry_Int_Tables_number       1
_space_group_crystal_system       triclinic
_cell_length_a                    10.756305
_cell_length_b                    10.742855
_cell_length_c                    9.815212
_cell_angle_alpha                 89.764324
_cell_angle_beta                  91.065865
_cell_angle_gamma                 89.282051
_cell_volume                      1133.88537691

loop_
_atom_site_label
_atom_site_type_symbol
_atom_type_description
_atom_site_fract_x
_atom_site_fract_y
_atom_site_fract_z
_atom_type_partial_charge
C1    C     C_R   0.499945 0.259796 0.500746 0.934300
C2    C     C_R   0.502161 0.740025 0.499520 0.926340
C3    C     C_R   0.872504 0.494392 0.503363 -0.066176
C4    C     C_R   0.127435 0.501538 0.496661 -0.071909
C5    C     C_R   0.942273 0.447372 0.615453 0.001236
C6    C     C_R   0.057688 0.547190 0.384168 0.009406
C7    C     C_R   0.544662 0.065632 0.387439 -0.349167
C8    C     C_R   0.465869 0.933822 0.615174 -0.333031
C9    C     C_R   0.549514 0.937539 0.385581 0.478184
C10   C     C_R   0.467746 0.061467 0.620121 0.499557
C11   C     C_R   0.505779 0.872208 0.498936 -0.199874
C12   C     C_R   0.503186 0.127325 0.503201 -0.204404
C13   C     C_R   0.582590 0.570539 0.073421 -0.054049
C14   C     C_R   0.416722 0.430266 0.926618 -0.096254
C15   C     C_R   0.582229 0.570997 0.929340 -0.070360
C16   C     C_R   0.417002 0.429999 0.070706 -0.071045
C17   C     C_R   0.259877 0.502081 0.498648 0.883765
C18   C     C_R   0.740084 0.496248 0.501441 0.861039
C19   C     C_R   0.194067 0.785698 0.145681 -0.157044
C20   C     C_R   0.829052 0.201577 0.860759 -0.222465
C21   C     C_R   0.154751 0.729396 0.265986 0.051849
C22   C     C_R   0.861753 0.259177 0.738370 0.056554
C23   C     C_R   0.112324 0.605740 0.262761 0.091280
C24   C     C_R   0.888421 0.387514 0.736834 0.103864
C25   C     C_R   0.112166 0.540062 0.139330 -0.185325
C26   C     C_R   0.879193 0.456265 0.857726 -0.169773
C27   C     C_R   0.153377 0.596654 0.020361 -0.148469
C28   C     C_R   0.843533 0.398430 0.978378 -0.141923
C29   C     C_R   0.194168 0.719381 0.023438 -0.107912
C30   C     C_R   0.818892 0.271216 0.980038 -0.134992
C31   C     C_R   0.930325 0.542870 0.388932 -0.258679
C32   C     C_R   0.069804 0.451817 0.610532 -0.235835
H1    H     H_    0.224108 0.763532 0.930591 0.139740
H2    H     H_    0.792606 0.226391 0.073994 0.135970
H3    H     H_    0.648142 0.627490 0.875716 0.123791
H4    H     H_    0.350634 0.374158 0.124450 0.130034
H5    H     H_    0.220369 0.882317 0.146173 0.136266
H6    H     H_    0.811683 0.102565 0.863963 0.130391
H7    H     H_    0.079296 0.445251 0.135309 0.144655
H8    H     H_    0.901362 0.554355 0.858807 0.134786
H9    H     H_    0.152633 0.545685 0.925477 0.140240
H10   H     H_    0.836753 0.451980 0.071156 0.134653
H11   H     H_    0.876237 0.580534 0.303521 0.146682
H12   H     H_    0.124284 0.413767 0.695484 0.160793
H13   H     H_    0.574961 0.116355 0.298673 0.183992
H14   H     H_    0.432449 0.883381 0.702806 0.196080
H15   H     H_    0.649325 0.625580 0.129503 0.134240
H16   H     H_    0.350015 0.374773 0.870727 0.149307
N1    N     N_R   0.499970 0.499970 0.857200 -0.079894
N2    N     N_R   0.500030 0.500030 0.142800 -0.075325
O1    O     O_R   0.499990 0.316750 0.614620 -0.598320
O2    O     O_R   0.500010 0.683250 0.385380 -0.569446
O3    O     O_R   0.499990 0.316780 0.385290 -0.635910
O4    O     O_R   0.500010 0.683220 0.614710 -0.639393
O5    O     O_R   0.316760 0.500000 0.614660 -0.628915
O6    O     O_R   0.683240 0.500000 0.385340 -0.639291
O7    O     O_R   0.316760 0.500020 0.385330 -0.616891
O8    O     O_R   0.683240 0.499980 0.614670 -0.624063
Zn1   Zn    Zn3+2 0.500000 0.499980 0.653120 0.952968
Zn2   Zn    Zn3+2 0.500000 0.500020 0.346880 0.964784
C33   C     C_1   0.154040 0.801247 0.389975 0.111591
N3    N     N_1   0.153555 0.858765 0.489399 -0.195658
C34   C     C_1   0.870205 0.184906 0.616590 0.116590
N4    N     N_1   0.876823 0.125475 0.518870 -0.224601
O9    O     O_3   0.587473 0.877413 0.268849 -0.635409
C35   C     C_3   0.718764 0.876665 0.262328 0.082206
H17   H     H_    0.754158 0.785384 0.301370 0.151037
H18   H     H_    0.764411 0.951454 0.323381 0.142812
C36   C     C_3   0.755847 0.893153 0.113728 -0.366439
H19   H     H_    0.704464 0.826681 0.048050 0.218052
H20   H     H_    0.731019 0.989042 0.079575 0.212704
C37   C     C_3   0.894657 0.871303 0.095754 -0.955427
H21   H     H_    0.948988 0.935251 0.161845 0.274839
H22   H     H_    0.919047 0.888510 0.987930 0.266141
H23   H     H_    0.919184 0.773326 0.121954 0.269025
O10   O     O_3   0.427389 0.120262 0.736711 -0.608867
C38   C     C_3   0.525970 0.121584 0.834584 0.106835
H24   H     H_    0.599109 0.048356 0.819443 0.101842
H25   H     H_    0.572010 0.213258 0.830135 0.163350
C39   C     C_3   0.474855 0.106011 0.977344 -0.371689
H26   H     H_    0.549594 0.126819 0.053069 0.172152
H27   H     H_    0.396800 0.172523 0.993089 0.219445
C40   C     C_3   0.429093 0.974412 0.000933 -0.772792
H28   H     H_    0.344125 0.957926 0.938044 0.255400
H29   H     H_    0.407159 0.963748 0.110059 0.268722
H30   H     H_    0.501317 0.904271 0.974861 0.247526

loop_
_geom_bond_atom_site_label_1
_geom_bond_atom_site_label_2
_ccdc_geom_bond_type
C35   H18   S    
O5    Zn1   S    
C27   C29   A    
C20   C30   A    
C38   H24   S    
C31   H11   S    
C7    H13   S    
C19   C21   A    
C24   C26   A    
C39   C40   S    
C35   C36   S    
C29   H1    S    
C3    C18   S    
C36   H20   S    
C1    O3    A    
O2    Zn2   S    
C22   C34   S    
C10   O10   S    
C18   O8    A    
C19   H5    S    
C17   O5    A    
C21   C33   S    
C18   O6    A    
C9    C11   A    
C5    C32   A    
C15   N1    A    
C6    C31   A    
C33   N3    T    
C1    C12   S    
C37   H23   S    
C2    C11   S    
C10   C12   A    
C15   H3    S    
O3    Zn2   S    
C9    O9    S    
O4    Zn1   S    
C38   H25   S    
C21   C23   A    
C7    C12   A    
C30   H2    S    
O10   C38   S    
C37   H22   S    
C2    O4    A    
C13   H15   S    
C39   H26   S    
O7    Zn2   S    
C14   H16   S    
O8    Zn1   S    
O6    Zn2   S    
C36   C37   S    
C20   H6    S    
C27   H9    S    
C40   H28   S    
C32   H12   S    
C3    C31   A    
C1    O1    A    
C4    C32   A    
C2    O2    A    
C4    C17   S    
C39   H27   S    
C40   H29   S    
C20   C22   A    
C13   C15   A    
C14   C16   A    
C4    C6    A    
O1    Zn1   S    
C19   C29   A    
C38   C39   S    
C7    C9    A    
C16   N2    A    
C37   H21   S    
C3    C5    A    
C25   C27   A    
C26   C28   A    
N1    Zn1   S    
N2    Zn2   S    
C28   C30   A    
C25   H7    S    
C26   H8    S    
C5    C24   S    
C8    C11   A    
C6    C23   S    
C28   H10   S    
C13   N2    A    
C35   H17   S    
C22   C24   A    
C23   C25   A    
C36   H19   S    
C8    H14   S    
C34   N4    T    
C14   N1    A    
C40   H30   S    
C8    C10   A    
O9    C35   S    
C16   H4    S    
C17   O7    A    
