data_mof_unit_53060.cif
_audit_creation_date              2012-12-10T18:39:00-0500
_audit_creation_method            fapswitch 2.2
_symmetry_space_group_name_H-M    P1
_symmetry_Int_Tables_number       1
_space_group_crystal_system       triclinic
_cell_length_a                    10.664254
_cell_length_b                    11.563313
_cell_length_c                    10.785972
_cell_angle_alpha                 90.105541
_cell_angle_beta                  89.565972
_cell_angle_gamma                 89.988802
_cell_volume                      1330.02205684

loop_
_atom_site_label
_atom_site_type_symbol
_atom_type_description
_atom_site_fract_x
_atom_site_fract_y
_atom_site_fract_z
_atom_type_partial_charge
C1    C     C_R   0.499508 0.281208 0.499886 0.843148
C2    C     C_R   0.499978 0.718799 0.500076 0.928022
C3    C     C_1   0.499301 0.161130 0.499577 -0.202160
C4    C     C_3   0.066385 0.414843 0.622462 0.262146
C5    C     C_3   0.073636 0.394323 0.392386 0.334827
C6    C     C_3   0.926146 0.446774 0.631653 0.301943
C7    C     C_3   0.927577 0.384625 0.403207 0.258583
C8    C     C_1   0.499296 0.059224 0.499540 -0.014132
C9    C     C_3   0.073904 0.598534 0.484894 -0.368663
C10   C     C_3   0.933279 0.598445 0.460906 -0.376831
C11   C     C_3   0.195376 0.347442 0.782398 0.156791
C12   C     C_3   0.122171 0.472611 0.501320 -0.123755
C13   C     C_3   0.108050 0.254696 0.839732 -0.458855
C14   C     C_3   0.161695 0.133200 0.822597 -0.926885
C15   C     C_3   0.142161 0.350833 0.189062 0.122264
C16   C     C_3   0.267894 0.290406 0.215042 -0.372311
C17   C     C_3   0.307215 0.209881 0.109970 -0.988166
C18   C     C_3   0.871329 0.506671 0.833166 0.172143
C19   C     C_3   0.870403 0.611690 0.919354 -0.376393
C20   C     C_3   0.852837 0.576140 0.054480 -0.876174
C21   C     C_3   0.778691 0.310130 0.262325 0.167026
C22   C     C_3   0.831488 0.204395 0.194513 -0.446693
C23   C     C_3   0.879069 0.479569 0.498096 -0.128346
C24   C     C_3   0.728645 0.115820 0.169177 -0.923203
C25   C     C_1   0.499745 0.838959 0.500109 -0.195652
C26   C     C_1   0.499504 0.940895 0.499826 -0.003091
C27   C     C_R   0.259184 0.480315 0.500611 0.882809
C28   C     C_R   0.742600 0.489843 0.499397 0.891536
C29   C     C_1   0.499861 0.500012 0.069764 0.011890
C30   C     C_1   0.499928 0.499993 0.930224 0.006377
H1    H     H_    0.067974 0.319166 0.606891 -0.026143
H2    H     H_    0.257217 0.309032 0.709408 0.149214
H3    H     H_    0.094265 0.272020 0.939784 0.201611
H4    H     H_    0.013458 0.255981 0.797845 0.216964
H5    H     H_    0.258977 0.128370 0.858007 0.271186
H6    H     H_    0.162382 0.109601 0.722697 0.261444
H7    H     H_    0.102617 0.069891 0.873699 0.267031
H8    H     H_    0.148653 0.392842 0.096867 0.155397
H9    H     H_    0.066859 0.285520 0.184142 0.137123
H10   H     H_    0.340872 0.356203 0.226085 0.281607
H11   H     H_    0.263859 0.238276 0.301085 0.205549
H12   H     H_    0.111751 0.306004 0.408025 -0.038765
H13   H     H_    0.233103 0.144400 0.093067 0.278461
H14   H     H_    0.395057 0.164368 0.135342 0.276573
H15   H     H_    0.325486 0.260336 0.024440 0.263142
H16   H     H_    0.937031 0.441301 0.870849 0.150582
H17   H     H_    0.775489 0.468816 0.830784 0.132281
H18   H     H_    0.960772 0.658937 0.909998 0.248115
H19   H     H_    0.793250 0.670942 0.892283 0.224220
H20   H     H_    0.765573 0.525040 0.066060 0.262427
H21   H     H_    0.846563 0.654415 0.113968 0.262473
H22   H     H_    0.934014 0.523531 0.084993 0.300626
H23   H     H_    0.873095 0.368412 0.663018 -0.017252
H24   H     H_    0.706155 0.349872 0.202687 0.174727
H25   H     H_    0.729798 0.282202 0.348731 0.130296
H26   H     H_    0.873361 0.231774 0.104557 0.218378
H27   H     H_    0.904879 0.163052 0.252051 0.216335
H28   H     H_    0.654479 0.154393 0.110427 0.260537
H29   H     H_    0.686070 0.085548 0.257676 0.269480
H30   H     H_    0.769380 0.040199 0.119690 0.266848
H31   H     H_    0.908135 0.298077 0.445385 -0.040573
H32   H     H_    0.093990 0.649412 0.570211 0.219241
H33   H     H_    0.121937 0.642776 0.406146 0.202447
H34   H     H_    0.888482 0.669964 0.514556 0.192195
H35   H     H_    0.915518 0.615304 0.360953 0.222803
H36   H     H_    0.259155 0.379476 0.855555 0.142475
N1    N     N_1   0.500000 0.500010 0.180630 -0.108836
N2    N     N_1   0.500000 0.500010 0.819370 -0.094585
O1    O     O_R   0.500000 0.334450 0.602530 -0.633295
O2    O     O_3   0.113172 0.439611 0.275863 -0.575711
O3    O     O_3   0.908771 0.542666 0.713235 -0.580761
O4    O     O_3   0.872798 0.394954 0.283572 -0.608162
O5    O     O_R   0.500000 0.334450 0.397470 -0.655425
O6    O     O_R   0.314800 0.499980 0.602530 -0.580894
O7    O     O_R   0.314800 0.499980 0.397470 -0.588001
O8    O     O_R   0.685200 0.499980 0.602530 -0.606469
O9    O     O_R   0.685200 0.499980 0.397470 -0.599071
O10   O     O_R   0.500000 0.665550 0.602530 -0.597481
O11   O     O_R   0.500000 0.665550 0.397470 -0.600910
O12   O     O_3   0.128435 0.443935 0.734790 -0.584055
Zn1   Zn    Zn3+2 0.500000 0.500000 0.636920 0.964749
Zn2   Zn    Zn3+2 0.500000 0.500000 0.363080 0.951657

loop_
_geom_bond_atom_site_label_1
_geom_bond_atom_site_label_2
_ccdc_geom_bond_type
C5    H12   S    
C8    C26   S    
C19   C20   S    
C18   H17   S    
C22   H27   S    
C29   C30   S    
N2    Zn1   S    
C17   H15   S    
C4    O12   S    
C20   H21   S    
C14   H6    S    
C21   H24   S    
C15   C16   S    
C18   C19   S    
C7    H31   S    
C20   H20   S    
C2    O11   A    
C29   N1    T    
C16   C17   S    
C4    C12   S    
C27   O6    A    
C9    C10   S    
C11   H36   S    
C13   C14   S    
C27   O7    A    
C18   H16   S    
C6    O3    S    
C12   C27   S    
C9    H32   S    
C5    C12   S    
C4    C6    S    
C3    C8    T    
C14   H5    S    
C21   H25   S    
C19   H18   S    
C22   H26   S    
C21   O4    S    
C25   C26   T    
C1    O1    A    
C1    C3    S    
C17   H13   S    
C15   H8    S    
C13   H3    S    
C5    O2    S    
C2    O10   A    
C19   H19   S    
C24   H30   S    
C23   C28   S    
C28   O9    A    
C15   H9    S    
C16   H10   S    
C11   H2    S    
C22   C24   S    
C6    H23   S    
C28   O8    A    
O5    Zn2   S    
C7    O4    S    
C5    C7    S    
C10   H35   S    
C18   O3    S    
C15   O2    S    
C9    H33   S    
C10   H34   S    
O8    Zn1   S    
O11   Zn2   S    
O7    Zn2   S    
C10   C23   S    
C1    O5    A    
C17   H14   S    
C13   H4    S    
C20   H22   S    
C14   H7    S    
C11   C13   S    
O10   Zn1   S    
O9    Zn2   S    
C24   H29   S    
C7    C23   S    
C6    C23   S    
C2    C25   S    
C9    C12   S    
C4    H1    S    
O1    Zn1   S    
C11   O12   S    
N1    Zn2   S    
C24   H28   S    
O6    Zn1   S    
C21   C22   S    
C16   H11   S    
C30   N2    T    
