data_mof_unit_15482.cif
_audit_creation_date              2012-12-10T21:11:30-0500
_audit_creation_method            fapswitch 2.2
_symmetry_space_group_name_H-M    P1
_symmetry_Int_Tables_number       1
_space_group_crystal_system       triclinic
_cell_length_a                    17.162734
_cell_length_b                    16.6224
_cell_length_c                    10.650255
_cell_angle_alpha                 90.001761
_cell_angle_beta                  89.280239
_cell_angle_gamma                 90.001893
_cell_volume                      3038.12709308

loop_
_atom_site_label
_atom_site_type_symbol
_atom_type_description
_atom_site_fract_x
_atom_site_fract_y
_atom_site_fract_z
_atom_type_partial_charge
C1    C     C_R   0.358348 0.499999 0.538638 0.927914
C2    C     C_R   0.647595 0.500001 0.483394 0.895343
C3    C     C_R   0.890318 0.500000 0.521464 -0.170638
C4    C     C_R   0.117014 0.499997 0.619473 -0.174807
C5    C     C_1   0.968967 0.500000 0.563188 -0.033417
C6    C     C_1   0.035871 0.500000 0.592394 -0.026581
C7    C     C_R   0.458816 0.832515 0.409325 -0.270382
C8    C     C_R   0.541399 0.167597 0.590818 -0.269443
C9    C     C_R   0.541403 0.832409 0.590813 -0.269437
C10   C     C_R   0.458819 0.167479 0.409320 -0.270378
C11   C     C_R   0.459427 0.747996 0.411003 -0.002932
C12   C     C_R   0.540702 0.252112 0.588968 -0.013837
C13   C     C_R   0.540707 0.747894 0.588963 -0.013877
C14   C     C_R   0.459431 0.251998 0.410999 -0.002977
C15   C     C_R   0.500116 0.875574 0.500125 0.164153
C16   C     C_R   0.500116 0.124426 0.500125 0.164155
C17   C     C_1   0.500148 0.963366 0.500188 -0.047031
C18   C     C_1   0.500148 0.036634 0.500188 -0.047032
C19   C     C_R   0.516310 0.499999 0.262055 0.902094
C20   C     C_R   0.491914 0.500001 0.742209 0.872089
C21   C     C_R   0.555713 0.646817 0.115629 -0.127025
C22   C     C_R   0.472086 0.350526 0.894667 -0.142573
C23   C     C_R   0.472150 0.649490 0.894683 -0.142577
C24   C     C_R   0.555655 0.353163 0.115609 -0.127019
C25   C     C_R   0.537767 0.720182 0.059969 -0.153326
C26   C     C_R   0.493275 0.278461 0.951852 -0.165811
C27   C     C_R   0.493368 0.721546 0.951880 -0.165834
C28   C     C_R   0.537678 0.279807 0.059938 -0.153361
C29   C     C_R   0.496057 0.574244 0.943968 0.093748
C30   C     C_R   0.529716 0.426455 0.062810 0.094222
C31   C     C_R   0.529746 0.573536 0.062817 0.094205
C32   C     C_R   0.496025 0.425762 0.943962 0.093731
C33   C     C_R   0.486982 0.500004 0.879421 -0.253740
C34   C     C_R   0.534122 0.499995 0.127779 -0.276042
C35   C     C_R   0.852901 0.573886 0.495636 0.427119
C36   C     C_R   0.157328 0.426414 0.626711 0.428885
C37   C     C_R   0.157336 0.573579 0.626749 0.428873
C38   C     C_R   0.852889 0.426115 0.495648 0.427164
C39   C     C_R   0.775441 0.573370 0.455082 0.101902
C40   C     C_R   0.239120 0.426514 0.623333 0.101152
C41   C     C_R   0.239128 0.573473 0.623370 0.101150
C42   C     C_R   0.775433 0.426637 0.455073 0.101868
C43   C     C_R   0.733091 0.500004 0.459728 -0.329300
C44   C     C_R   0.278734 0.499995 0.595991 -0.336861
H1    H     H_    0.556270 0.224057 0.102718 0.138542
H2    H     H_    0.476008 0.778427 0.911375 0.138459
H3    H     H_    0.475892 0.221588 0.911339 0.138464
H4    H     H_    0.556380 0.775923 0.102758 0.138546
H5    H     H_    0.589918 0.647641 0.200176 0.138838
H6    H     H_    0.435271 0.346254 0.813806 0.155587
H7    H     H_    0.435336 0.653780 0.813824 0.155595
H8    H     H_    0.589863 0.352324 0.200152 0.138839
H9    H     H_    0.426355 0.863911 0.337835 0.143810
H10   H     H_    0.573930 0.136298 0.662326 0.143366
H11   H     H_    0.573937 0.863713 0.662318 0.143363
H12   H     H_    0.426362 0.136078 0.337826 0.143808
H13   H     H_    0.427421 0.714922 0.341009 0.149182
H14   H     H_    0.572797 0.285273 0.658757 0.147872
H15   H     H_    0.572804 0.714738 0.658748 0.147866
H16   H     H_    0.427427 0.285067 0.341001 0.149181
N1    N     N_R   0.500000 0.707230 0.500000 -0.102092
N2    N     N_R   0.500000 0.292770 0.500000 -0.102091
O1    O     O_R   0.389110 0.566570 0.499990 -0.615934
O2    O     O_R   0.610890 0.433430 0.500010 -0.623552
O3    O     O_R   0.610890 0.566570 0.500010 -0.623559
O4    O     O_R   0.389110 0.433430 0.499990 -0.615940
O5    O     O_R   0.499990 0.566540 0.316770 -0.614533
O6    O     O_R   0.500010 0.433460 0.683230 -0.632193
O7    O     O_R   0.500010 0.566540 0.683230 -0.632208
O8    O     O_R   0.499990 0.433460 0.316770 -0.614548
Zn1   Zn    Zn3+2 0.500000 0.588860 0.500000 0.916816
Zn2   Zn    Zn3+2 0.500000 0.411140 0.500000 0.916815
O9    O     O_3   0.888839 0.647938 0.510564 -0.766862
H17   H     H_    0.944577 0.641497 0.529989 0.349406
O10   O     O_3   0.119044 0.353118 0.631703 -0.765608
H18   H     H_    0.064429 0.361185 0.659758 0.338334
O11   O     O_3   0.119060 0.646876 0.631779 -0.765613
H19   H     H_    0.064437 0.638807 0.659793 0.338361
O12   O     O_3   0.888810 0.352060 0.510604 -0.766863
H20   H     H_    0.944533 0.358495 0.530134 0.349401
C45   C     C_3   0.742246 0.650465 0.398897 -0.307565
C46   C     C_3   0.786536 0.675406 0.279451 -0.836548
H21   H     H_    0.847536 0.692602 0.299397 0.304558
H22   H     H_    0.786541 0.625326 0.210325 0.247251
H23   H     H_    0.757352 0.728173 0.236625 0.236775
H24   H     H_    0.681481 0.643958 0.368396 0.201809
H25   H     H_    0.744016 0.699795 0.469218 0.233136
C47   C     C_3   0.280883 0.348687 0.658388 -0.314107
C48   C     C_3   0.263778 0.324831 0.794852 -0.857142
H26   H     H_    0.280513 0.374482 0.858987 0.247422
H27   H     H_    0.201366 0.310296 0.810342 0.303036
H28   H     H_    0.298348 0.270637 0.819091 0.238679
H29   H     H_    0.262998 0.299436 0.594354 0.238129
H30   H     H_    0.344736 0.353036 0.652749 0.208348
C49   C     C_3   0.280903 0.651292 0.658459 -0.314114
C50   C     C_3   0.263806 0.675127 0.794936 -0.857117
H31   H     H_    0.201396 0.689658 0.810442 0.303038
H32   H     H_    0.280543 0.625467 0.859046 0.247420
H33   H     H_    0.298380 0.729318 0.819195 0.238676
H34   H     H_    0.344755 0.646937 0.652812 0.208341
H35   H     H_    0.263024 0.700555 0.594450 0.238128
C51   C     C_3   0.742228 0.349546 0.398876 -0.307520
C52   C     C_3   0.786548 0.324568 0.279476 -0.836496
H36   H     H_    0.786640 0.374652 0.210362 0.247267
H37   H     H_    0.847518 0.307304 0.299494 0.304582
H38   H     H_    0.757329 0.271834 0.236601 0.236745
H39   H     H_    0.743948 0.300225 0.469212 0.233108
H40   H     H_    0.681477 0.356082 0.368310 0.201780

loop_
_geom_bond_atom_site_label_1
_geom_bond_atom_site_label_2
_ccdc_geom_bond_type
C24   H8    S    
C4    C36   A    
C29   C33   A    
O9    H17   S    
C49   C50   S    
C2    O3    A    
C21   H5    S    
C45   C46   S    
O11   H19   S    
C7    C11   A    
C21   C31   A    
C22   C32   A    
C23   C29   A    
C38   C42   A    
C5    C6    T    
C38   O12   S    
C14   N2    A    
C50   H33   S    
C1    O1    A    
O7    Zn1   S    
C9    C13   A    
O4    Zn2   S    
C3    C38   A    
C50   H32   S    
C51   H40   S    
C9    H11   S    
C23   C27   A    
C48   H27   S    
C10   H12   S    
C45   H24   S    
O6    Zn2   S    
C22   H6    S    
C12   H14   S    
N1    Zn1   S    
C7    C15   A    
C8    C16   A    
C42   C51   S    
C2    O2    A    
C17   C18   T    
C47   H30   S    
C28   H1    S    
C30   C34   A    
C36   C40   A    
C39   C45   S    
C4    C6    S    
C10   C14   A    
C8    H10   S    
C49   H34   S    
C39   C43   A    
C3    C5    S    
O3    Zn1   S    
C37   O11   S    
C35   C39   A    
O10   H18   S    
C36   O10   S    
C12   N2    A    
C1    C44   S    
C23   H7    S    
C3    C35   A    
C2    C43   S    
C8    C12   A    
C50   H31   S    
C1    O4    A    
C31   C34   A    
N2    Zn2   S    
C51   H39   S    
C52   H37   S    
C4    C37   A    
C48   H28   S    
C19   O5    A    
C25   H4    S    
C45   H25   S    
C26   H3    S    
C20   C33   S    
C27   H2    S    
O1    Zn1   S    
C46   H22   S    
C41   C44   A    
C20   O7    A    
C42   C43   A    
C7    H9    S    
C15   C17   S    
C21   C25   A    
C47   H29   S    
C35   O9    S    
C20   O6    A    
C24   C28   A    
C11   N1    A    
C19   C34   S    
C13   H15   S    
C25   C27   A    
C46   H23   S    
C14   H16   S    
C26   C28   A    
C32   C33   A    
C40   C47   S    
C9    C15   A    
C29   C31   A    
C10   C16   A    
C30   C32   A    
C41   C49   S    
C52   H38   S    
O5    Zn1   S    
O2    Zn2   S    
C37   C41   A    
C51   C52   S    
C24   C30   A    
O12   H20   S    
C40   C44   A    
C13   N1    A    
C47   C48   S    
C16   C18   S    
C46   H21   S    
C22   C26   A    
C52   H36   S    
C19   O8    A    
O8    Zn2   S    
C48   H26   S    
C11   H13   S    
C49   H35   S    
