data_mof_unit_42657.cif
_audit_creation_date              2012-12-11T14:45:54-0500
_audit_creation_method            fapswitch 2.2
_symmetry_space_group_name_H-M    P1
_symmetry_Int_Tables_number       1
_space_group_crystal_system       triclinic
_cell_length_a                    10.892742
_cell_length_b                    10.870809
_cell_length_c                    18.72682
_cell_angle_alpha                 89.841361
_cell_angle_beta                  90.167794
_cell_angle_gamma                 119.247175
_cell_volume                      1934.8004737

loop_
_atom_site_label
_atom_site_type_symbol
_atom_type_description
_atom_site_fract_x
_atom_site_fract_y
_atom_site_fract_z
_atom_type_partial_charge
C1    C     C_R   0.864843 0.637088 0.603518 0.527100
C2    C     C_R   0.958598 0.158140 0.707119 -0.035929
C3    C     C_R   0.952929 0.165402 0.782175 -0.044953
C4    C     C_R   0.210480 0.595944 0.611307 0.567755
C5    C     C_R   0.709084 0.080513 0.697991 0.012036
C6    C     C_R   0.702289 0.102330 0.771424 0.015452
C7    C     C_R   0.585294 0.015155 0.656172 -0.088106
C8    C     C_R   0.456630 0.985789 0.684867 -0.098657
C9    C     C_R   0.450679 0.025066 0.754449 -0.111160
C10   C     C_R   0.572043 0.087635 0.796383 -0.081467
C11   C     C_R   0.840376 0.136036 0.665802 -0.034834
C12   C     C_R   0.430854 0.669833 0.774009 -0.118014
C13   C     C_R   0.739329 0.529579 0.715504 -0.142797
C14   C     C_R   0.731993 0.541190 0.788937 -0.163801
C15   C     C_R   0.804127 0.674041 0.820293 0.020030
C16   C     C_R   0.860854 0.219248 0.600131 0.529603
C17   C     C_R   0.875867 0.795363 0.777760 -0.133406
C18   C     C_R   0.882791 0.784092 0.705053 -0.147145
C19   C     C_R   0.819835 0.651252 0.673940 0.016568
C20   C     C_R   0.233441 0.509630 0.267268 0.117189
C21   C     C_R   0.251959 0.534518 0.194311 -0.095743
C22   C     C_R   0.305216 0.670669 0.166896 0.000172
C23   C     C_R   0.387198 0.641524 0.704005 -0.117203
C24   C     C_R   0.302028 0.774915 0.208753 -0.155849
C25   C     C_R   0.257776 0.744412 0.279560 -0.170829
C26   C     C_R   0.233411 0.616324 0.311180 0.012380
C27   C     C_R   0.752604 0.027610 0.309925 0.127786
C28   C     C_R   0.866442 0.642117 0.397765 0.551249
C29   C     C_R   0.727178 0.985582 0.238466 -0.112862
C30   C     C_R   0.795610 0.084260 0.183919 -0.008526
C31   C     C_R   0.879646 0.226782 0.199889 -0.122180
C32   C     C_R   0.897895 0.270074 0.270297 -0.148245
C33   C     C_R   0.841129 0.170962 0.325389 0.026430
C34   C     C_R   0.258571 0.630846 0.684129 0.031060
C35   C     C_R   0.920376 0.805438 0.293855 0.122129
C36   C     C_R   0.895899 0.822064 0.223398 -0.131507
C37   C     C_R   0.781315 0.716997 0.187117 -0.037611
C38   C     C_R   0.678592 0.599984 0.223903 -0.129901
C39   C     C_R   0.697745 0.581194 0.296088 0.098691
C40   C     C_R   0.206533 0.595084 0.388701 0.555933
C41   C     C_R   0.823503 0.679069 0.330369 0.074423
C42   C     C_R   0.802346 0.098013 0.892577 0.543540
C43   C     C_R   0.391715 0.700229 0.897766 0.542659
C44   C     C_R   0.795214 0.694784 0.895741 0.553126
C45   C     C_R   0.824247 0.136492 0.815531 -0.023572
C46   C     C_R   0.766510 0.041189 0.110077 0.535098
C47   C     C_R   0.388480 0.701989 0.101556 0.530878
C48   C     C_R   0.773292 0.735569 0.110926 0.549528
C49   C     C_R   0.860505 0.225530 0.397121 0.524096
C50   C     C_R   0.175671 0.652753 0.734252 -0.144273
C51   C     C_R   0.219334 0.680116 0.805234 -0.147799
C52   C     C_R   0.345811 0.685847 0.824808 0.044235
C53   C     C_3   0.248609 0.287871 0.252624 -0.339962
C54   C     C_3   0.557785 0.903387 0.390637 -0.284123
C55   C     C_3   0.049546 0.009019 0.371350 -0.266962
C56   C     C_R   0.075673 0.198156 0.821825 -0.113317
C57   C     C_3   0.514853 0.495238 0.384274 -0.238275
C58   C     C_3   0.387211 0.328723 0.872058 -0.281294
C59   C     C_3   0.344273 0.224974 0.606328 -0.323338
C60   C     C_R   0.194354 0.204474 0.789664 0.146230
C61   C     C_R   0.200063 0.194636 0.715156 0.186705
C62   C     C_R   0.080846 0.169264 0.674797 -0.090148
Cr1   Cr    Cr6+3 0.791660 0.390250 0.499930 0.996010
Cr2   Cr    Cr6+3 0.098520 0.708290 0.500540 0.988698
Cr3   Cr    Cr6+3 0.109770 0.401430 0.499480 0.956178
Cr4   Cr    Cr6+3 0.874790 0.925890 0.000070 0.994096
Cr5   Cr    Cr6+3 0.574120 0.948670 0.999300 1.001377
Cr6   Cr    Cr6+3 0.551420 0.625320 0.000920 0.979385
H1    H     H_    0.076499 0.645333 0.718724 0.128076
H2    H     H_    0.255621 0.826250 0.311271 0.149134
H3    H     H_    0.655491 0.876314 0.225569 0.114397
H4    H     H_    0.926663 0.304568 0.157787 0.141035
H5    H     H_    0.971454 0.917070 0.195951 0.135876
H6    H     H_    0.585407 0.522223 0.196397 0.135217
H7    H     H_    0.530215 0.676747 0.789047 0.125758
H8    H     H_    0.453627 0.627745 0.665538 0.134552
H9    H     H_    0.081329 0.216932 0.878553 0.142230
H10   H     H_    0.560447 0.129997 0.846184 0.153508
H11   H     H_    0.146336 0.331669 0.334126 0.287391
H12   H     H_    0.362660 0.938588 0.652224 0.154143
H13   H     H_    0.266196 0.215492 0.287503 0.132079
H14   H     H_    0.345366 0.347247 0.220383 0.147839
H15   H     H_    0.156909 0.224675 0.217363 0.148814
H16   H     H_    0.240197 0.450716 0.159192 0.141606
H17   H     H_    0.339191 0.880361 0.188083 0.131009
H18   H     H_    0.758906 0.938667 0.406681 0.232428
H19   H     H_    0.502150 0.799724 0.417923 0.171220
H20   H     H_    0.492773 0.905638 0.345795 0.163425
H21   H     H_    0.573147 0.986681 0.429481 0.155218
H22   H     H_    0.954737 0.381625 0.282107 0.122017
H23   H     H_    0.589078 0.989587 0.600601 0.116206
H24   H     H_    0.132909 0.954320 0.286176 0.224831
H25   H     H_    0.154942 0.072812 0.396000 0.123611
H26   H     H_    0.972978 0.956514 0.415014 0.159202
H27   H     H_    0.022714 0.080138 0.341416 0.139951
H28   H     H_    0.529422 0.377577 0.300709 0.244898
H29   H     H_    0.469645 0.555243 0.357568 0.198612
H30   H     H_    0.429139 0.396633 0.407618 0.147820
H31   H     H_    0.584146 0.560707 0.428316 0.147527
H32   H     H_    0.260183 0.113601 0.865797 0.243267
H33   H     H_    0.474168 0.320056 0.898292 0.132902
H34   H     H_    0.351581 0.008382 0.775708 0.152999
H35   H     H_    0.324576 0.343858 0.914278 0.163124
H36   H     H_    0.432995 0.420269 0.835083 0.183834
H37   H     H_    0.415948 0.263220 0.711630 0.275105
H38   H     H_    0.449530 0.239678 0.591984 0.146629
H39   H     H_    0.338555 0.319744 0.588879 0.167147
H40   H     H_    0.264579 0.129648 0.577890 0.133680
H41   H     H_    0.079484 0.148289 0.618487 0.131217
H42   H     H_    0.690754 0.425098 0.692243 0.147559
H43   H     H_    0.675326 0.447285 0.821115 0.114827
H44   H     H_    0.928137 0.899672 0.800850 0.153528
H45   H     H_    0.944452 0.878172 0.673690 0.134170
H46   H     H_    0.153965 0.693135 0.844624 0.116112
N1    N     N_2   0.222136 0.382262 0.296403 -0.520145
N2    N     N_2   0.691629 0.924985 0.365007 -0.535049
N3    N     N_2   0.052913 0.907267 0.323095 -0.491584
N4    N     N_2   0.592919 0.461525 0.333029 -0.499582
N5    N     N_2   0.299949 0.201132 0.833057 -0.562043
N6    N     N_2   0.324468 0.206098 0.682818 -0.516098
O1    O     O_R   0.766500 0.250040 0.579790 -0.518005
O2    O     O_R   0.413330 0.603360 0.920440 -0.540805
O3    O     O_R   0.676110 0.626250 0.926750 -0.505685
O4    O     O_R   0.798570 0.516780 0.574780 -0.510657
O5    O     O_R   0.895350 0.809870 0.080950 -0.515818
O6    O     O_R   0.872490 0.049760 0.073800 -0.515998
O7    O     O_R   0.691680 0.088070 0.079070 -0.500110
O8    O     O_R   0.451720 0.825250 0.074050 -0.516593
O9    O     O_R   0.413580 0.606370 0.080960 -0.540219
O10   O     O_R   0.676340 0.629040 0.075550 -0.494288
O11   O     O_3   0.666780 0.833290 0.000090 -0.278477
O12   O     O_R   0.218690 0.701900 0.425960 -0.506339
O13   O     O_R   0.984000 0.732950 0.581090 -0.535213
O14   O     O_R   0.218600 0.700890 0.574760 -0.505815
O15   O     O_R   0.249390 0.515350 0.579940 -0.527662
O16   O     O_R   0.982790 0.280900 0.573700 -0.521740
O17   O     O_R   0.766600 0.251130 0.419260 -0.499988
O18   O     O_R   0.798660 0.517790 0.425980 -0.472942
O19   O     O_R   0.984100 0.734040 0.420570 -0.500973
O20   O     O_R   0.249490 0.516440 0.419420 -0.533243
O21   O     O_R   0.982880 0.281910 0.424890 -0.553287
O22   O     O_3   0.999980 0.499990 0.499980 -0.269136
O23   O     O_R   0.895110 0.806860 0.920430 -0.521113
O24   O     O_R   0.872260 0.046970 0.925000 -0.505978
O25   O     O_R   0.691430 0.085060 0.918550 -0.527827
O26   O     O_R   0.451490 0.822460 0.925250 -0.497355

loop_
_geom_bond_atom_site_label_1
_geom_bond_atom_site_label_2
_ccdc_geom_bond_type
C59   N6    S    
C6    C45   A    
H11   N1    S    
C27   C29   A    
C35   C36   A    
C23   H8    S    
C55   H25   S    
Cr1   O4    S    
C10   H10   S    
C7    C8    A    
C39   C41   A    
C27   C33   A    
C12   C23   A    
C37   C38   A    
Cr2   O22   S    
C47   O9    A    
H18   N2    S    
C36   C37   A    
C50   H1    S    
C15   C44   S    
C5    C11   A    
C49   O17   A    
C38   H6    S    
C54   H19   S    
C43   C52   S    
H32   N5    S    
Cr4   O24   S    
C33   C49   S    
C57   H31   S    
C28   C41   S    
Cr6   O3    S    
C60   N5    S    
C53   H13   S    
C18   C19   A    
C3    C56   A    
C12   C52   A    
C48   O5    A    
Cr3   O20   S    
C32   H22   S    
Cr2   O12   S    
C9    H34   S    
C49   O21   A    
Cr5   O25   S    
H37   N6    S    
C29   C30   A    
C24   H17   S    
C27   N2    S    
C22   C47   S    
C40   O12   A    
C7    H23   S    
C13   C14   A    
C61   N6    S    
Cr1   O17   S    
C48   O10   A    
C61   C62   A    
C28   O19   A    
C55   H26   S    
C1    O13   A    
C2    C11   A    
C18   H45   S    
Cr1   O1    S    
C46   O6    A    
C50   C51   A    
Cr2   O14   S    
C14   H43   S    
C4    C34   S    
C34   C50   A    
C59   H38   S    
C1    C19   S    
C13   C19   A    
C51   C52   A    
C51   H46   S    
C46   O7    A    
C47   O8    A    
C28   O18   A    
C24   C25   A    
C54   H21   S    
C55   H27   S    
Cr6   O2    S    
C5    C7    A    
C8    C9    A    
Cr4   O23   S    
C25   C26   A    
C3    C45   A    
C59   H39   S    
C56   H9    S    
Cr4   O6    S    
C54   N2    S    
C60   C61   A    
C42   C45   S    
C38   C39   A    
Cr6   O11   S    
H24   N3    S    
C13   H42   S    
Cr5   O7    S    
Cr3   O21   S    
C11   C16   S    
C31   C32   A    
C21   H16   S    
C30   C31   A    
C23   C34   A    
C57   H29   S    
Cr5   O26   S    
C17   C18   A    
C58   H33   S    
C37   C48   S    
Cr6   O10   S    
C43   O2    A    
Cr3   O15   S    
C4    O15   A    
C31   H4    S    
C42   O24   A    
Cr1   O18   S    
C22   C24   A    
C35   N3    S    
C58   H36   S    
C16   O16   A    
C17   H44   S    
C4    O14   A    
Cr4   O11   S    
C55   N3    S    
H28   N4    S    
C15   C17   A    
C16   O1    A    
Cr2   O13   S    
C30   C46   S    
Cr5   O11   S    
C6    C10   A    
C20   N1    S    
C53   N1    S    
C25   H2    S    
C39   N4    S    
C44   O3    A    
C59   H40   S    
Cr4   O5    S    
C53   H15   S    
C32   C33   A    
C2    C3    A    
C1    O4    A    
C43   O26   A    
Cr5   O8    S    
C54   H20   S    
Cr3   O22   S    
C26   C40   S    
C5    C6    A    
C62   H41   S    
C20   C26   A    
C44   O23   A    
C57   H30   S    
C40   O20   A    
C58   N5    S    
Cr1   O22   S    
C9    C10   A    
Cr6   O9    S    
C35   C41   A    
Cr3   O16   S    
C36   H5    S    
C56   C60   A    
C20   C21   A    
C12   H7    S    
C8    H12   S    
C14   C15   A    
C53   H14   S    
C58   H35   S    
C21   C22   A    
C42   O25   A    
C2    C62   A    
C57   N4    S    
C29   H3    S    
Cr2   O19   S    
