data_mof_unit_18127.cif
_audit_creation_date              2012-12-10T17:10:24-0500
_audit_creation_method            fapswitch 2.2
_symmetry_space_group_name_H-M    P1
_symmetry_Int_Tables_number       1
_space_group_crystal_system       triclinic
_cell_length_a                    10.918651
_cell_length_b                    12.950779
_cell_length_c                    11.756287
_cell_angle_alpha                 99.351658
_cell_angle_beta                  96.617792
_cell_angle_gamma                 93.777187
_cell_volume                      1623.2935531

loop_
_atom_site_label
_atom_site_type_symbol
_atom_type_description
_atom_site_fract_x
_atom_site_fract_y
_atom_site_fract_z
_atom_type_partial_charge
C1    C     C_R   0.503954 0.299763 0.478212 0.896270
C2    C     C_R   0.500494 0.700771 0.521453 0.856019
C3    C     C_R   0.507798 0.814783 0.534881 -0.191378
C4    C     C_R   0.504445 0.186091 0.461266 -0.211562
C5    C     C_R   0.403050 0.017797 0.367194 -0.219521
C6    C     C_R   0.619737 0.981648 0.621477 -0.209330
C7    C     C_R   0.425262 0.124673 0.368282 0.494451
C8    C     C_R   0.593484 0.875405 0.623153 0.456315
C9    C     C_R   0.580757 0.138030 0.537590 0.028748
C10   C     C_R   0.434944 0.863415 0.456102 0.032774
C11   C     C_R   0.556705 0.030047 0.537132 0.037484
C12   C     C_R   0.463567 0.970163 0.453565 0.027584
C13   C     C_R   0.366344 0.411383 0.020469 0.070065
C14   C     C_R   0.629521 0.594368 0.979992 0.052648
C15   C     C_R   0.384008 0.416584 0.141760 -0.061946
C16   C     C_R   0.607040 0.591488 0.859162 -0.078629
C17   C     C_R   0.551300 0.546617 0.160224 0.679671
C18   C     C_R   0.452681 0.451346 0.840889 0.685994
C19   C     C_R   0.546635 0.536095 0.036056 -0.175004
C20   C     C_R   0.453426 0.465926 0.965013 -0.173560
C21   C     C_R   0.262118 0.493181 0.496686 0.879411
C22   C     C_R   0.738663 0.502834 0.503190 0.832079
C23   C     C_R   0.157805 0.676920 0.594054 -0.197752
C24   C     C_R   0.835998 0.323197 0.377655 -0.220243
C25   C     C_R   0.116858 0.758951 0.667831 0.120976
C26   C     C_R   0.879339 0.233472 0.319831 0.122803
C27   C     C_R   0.004792 0.742737 0.711754 0.157406
C28   C     C_R   0.006196 0.222706 0.330039 0.164369
C29   C     C_R   0.930202 0.648124 0.671319 0.413736
C30   C     C_R   0.089248 0.304086 0.396689 0.387677
C31   C     C_R   0.958672 0.576762 0.574649 -0.087464
C32   C     C_R   0.046641 0.402514 0.441171 -0.075650
C33   C     C_R   0.081539 0.582866 0.551075 -0.014524
C34   C     C_R   0.917586 0.408605 0.439539 0.006317
C35   C     C_R   0.873260 0.495334 0.508143 -0.077076
C36   C     C_R   0.127866 0.493081 0.492202 -0.086060
Cu1   Cu    Cu3+1 0.509250 0.507730 0.615930 1.030252
Cu2   Cu    Cu3+1 0.490750 0.492270 0.384070 1.031262
H1    H     H_    0.250304 0.687448 0.571590 0.170726
H2    H     H_    0.737150 0.322165 0.376181 0.181439
H3    H     H_    0.336770 0.973734 0.298366 0.203695
H4    H     H_    0.688870 0.025149 0.688202 0.201906
H5    H     H_    0.662440 0.643192 0.819126 0.243596
H6    H     H_    0.318845 0.373094 0.182755 0.202171
N1    N     N_R   0.523180 0.519350 0.790130 -0.232222
N2    N     N_R   0.476820 0.480650 0.209870 -0.239323
O1    O     O_R   0.506570 0.354460 0.582000 -0.546412
O2    O     O_R   0.493430 0.645540 0.418000 -0.556767
O3    O     O_R   0.490940 0.341410 0.386200 -0.557545
O4    O     O_R   0.509060 0.658590 0.613800 -0.562577
O5    O     O_R   0.327470 0.506520 0.597900 -0.572720
O6    O     O_R   0.672530 0.493480 0.402100 -0.563388
O7    O     O_R   0.311840 0.493460 0.402100 -0.560176
O8    O     O_R   0.688160 0.506540 0.597900 -0.533080
I1    I     I_    0.072552 0.079056 0.256302 -0.159913
I2    I     I_    0.954125 0.852743 0.849443 -0.156530
I3    I     I_    0.194213 0.333667 0.934421 -0.329977
I4    I     I_    0.802195 0.675517 0.062353 -0.256194
I5    I     I_    0.236756 0.898791 0.720423 -0.351068
I6    I     I_    0.746062 0.111522 0.230976 -0.359015
O9    O     O_3   0.849503 0.616282 0.743011 -0.570620
C37   C     C_3   0.903681 0.540017 0.801893 -0.191200
H7    H     H_    0.988436 0.574977 0.861005 0.185214
H8    H     H_    0.925363 0.470332 0.741216 0.173967
H9    H     H_    0.836841 0.509895 0.855161 0.202310
O10   O     O_3   0.207337 0.280836 0.432378 -0.569366
C38   C     C_3   0.203957 0.241189 0.537296 -0.188227
H10   H     H_    0.131787 0.174555 0.529277 0.177659
H11   H     H_    0.189607 0.304366 0.609519 0.198697
H12   H     H_    0.293134 0.209856 0.560209 0.182219
I7    I     I_    0.270289 0.779659 0.354919 -0.334379
I8    I     I_    0.740811 0.226914 0.639915 -0.411057
O11   O     O_3   0.657487 0.829760 0.707747 -0.553963
C39   C     C_3   0.607555 0.858212 0.812982 -0.216298
H13   H     H_    0.612951 0.944869 0.841099 0.164002
H14   H     H_    0.662359 0.826543 0.882727 0.204925
H15   H     H_    0.510302 0.823837 0.805737 0.172908
O12   O     O_3   0.356458 0.170982 0.287091 -0.522152
C40   C     C_3   0.402870 0.149181 0.179423 -0.220919
H16   H     H_    0.411628 0.063966 0.151255 0.159544
H17   H     H_    0.492988 0.195327 0.182830 0.177863
H18   H     H_    0.337190 0.174202 0.112056 0.202047
O13   O     O_3   0.391148 0.362704 0.771170 -0.564490
C41   C     C_3   0.454683 0.274461 0.793252 -0.243168
H19   H     H_    0.556646 0.289555 0.797326 0.176079
H20   H     H_    0.424189 0.207174 0.722571 0.186917
H21   H     H_    0.433572 0.249327 0.875158 0.170728
O14   O     O_3   0.623549 0.628410 0.232422 -0.538791
C42   C     C_3   0.567556 0.723138 0.224074 -0.188358
H22   H     H_    0.608820 0.783982 0.298629 0.200238
H23   H     H_    0.466167 0.713895 0.225519 0.165445
H24   H     H_    0.583546 0.753426 0.143750 0.160990

loop_
_geom_bond_atom_site_label_1
_geom_bond_atom_site_label_2
_ccdc_geom_bond_type
C21   O7    A    
C27   C29   A    
C17   O14   S    
O11   C39   S    
C19   C20   A    
C41   H21   S    
C22   O8    A    
C21   C36   S    
C22   C35   S    
Cu1   Cu2   S    
C39   H14   S    
C32   C36   A    
C24   C26   A    
C15   H6    S    
Cu1   O5    S    
Cu2   O6    S    
C33   C36   A    
C34   C35   A    
C37   H8    S    
C2    O4    A    
C17   C19   A    
C23   C33   A    
C39   H15   S    
C9    I8    S    
Cu1   O1    S    
Cu2   O2    S    
C37   H9    S    
C10   I7    S    
O10   C38   S    
C4    C7    A    
C28   I1    S    
C5    C7    A    
C14   I4    S    
C29   O9    S    
C39   H13   S    
C38   H10   S    
C41   H19   S    
C5    C12   A    
C3    C8    A    
C6    C11   A    
C40   H17   S    
C27   I2    S    
C1    O1    A    
C6    C8    A    
C2    O2    A    
C24   C34   A    
C38   H11   S    
C32   C34   A    
C37   H7    S    
O13   C41   S    
C31   C33   A    
C18   O13   S    
C17   N2    A    
C42   H24   S    
C9    C11   A    
C16   H5    S    
C30   O10   S    
C10   C12   A    
C7    O12   S    
Cu1   O8    S    
C13   C15   A    
C14   C16   A    
C42   H23   S    
Cu1   N1    S    
C18   N1    A    
C21   O5    A    
Cu2   O3    S    
C22   O6    A    
C5    H3    S    
C13   C20   A    
O12   C40   S    
C14   C19   A    
C41   H20   S    
C16   N1    A    
C40   H18   S    
C11   C12   A    
C25   C27   A    
C26   C28   A    
C38   H12   S    
C1    C4    S    
C28   C30   A    
C2    C3    S    
C4    C9    A    
C29   C31   A    
C3    C10   A    
C30   C32   A    
Cu1   O4    S    
Cu2   O7    S    
C26   I6    S    
C23   H1    S    
C31   C35   A    
C8    O11   S    
C24   H2    S    
C18   C20   A    
C23   C25   A    
O9    C37   S    
Cu2   N2    S    
C40   H16   S    
C13   I3    S    
O14   C42   S    
C6    H4    S    
C25   I5    S    
C15   N2    A    
C42   H22   S    
C1    O3    A    
