data_mof_unit_11004.cif
_audit_creation_date              2013-03-05T15:57:42-0500
_audit_creation_method            fapswitch 2.2
_symmetry_space_group_name_H-M    P1
_symmetry_Int_Tables_number       1
_space_group_crystal_system       triclinic
_cell_length_a                    19.407065
_cell_length_b                    17.657042
_cell_length_c                    12.620089
_cell_angle_alpha                 89.234805
_cell_angle_beta                  100.122588
_cell_angle_gamma                 89.284388
_cell_volume                      4256.36388365

loop_
_atom_site_label
_atom_site_type_symbol
_atom_site_description
_atom_site_fract_x
_atom_site_fract_y
_atom_site_fract_z
_atom_type_partial_charge
O1    O     O_R   0.448200 0.076800 0.373930 -0.608086
O2    O     O_R   0.448200 0.923200 0.373930 -0.596301
O3    O     O_R   0.948200 0.576800 0.373930 -0.620457
O4    O     O_R   0.948200 0.423200 0.373930 -0.609724
O5    O     O_R   0.414750 0.076790 0.542400 -0.616342
O6    O     O_R   0.414750 0.923210 0.542400 -0.624227
O7    O     O_R   0.914750 0.576790 0.542400 -0.614843
O8    O     O_R   0.914750 0.423210 0.542400 -0.626147
C1    C     C_R   0.411885 0.103783 0.443916 0.882383
C2    C     C_R   0.411477 0.896764 0.443538 0.868032
C3    C     C_R   0.912996 0.606040 0.444511 0.891926
C4    C     C_R   0.918336 0.391237 0.449723 0.906758
Zn1   Zn    Zn3+2 0.522330 1.000000 0.387520 0.921705
Zn2   Zn    Zn3+2 0.022330 0.500000 0.387520 0.920570
Zn3   Zn    Zn3+2 0.477660 1.000000 0.612480 0.930057
Zn4   Zn    Zn3+2 0.977660 0.500000 0.612480 0.912142
O9    O     O_R   0.585240 0.923200 0.457600 -0.623181
O10   O     O_R   0.585240 0.076800 0.457600 -0.610094
O11   O     O_R   0.085240 0.423200 0.457600 -0.604092
O12   O     O_R   0.085240 0.576800 0.457600 -0.617881
O13   O     O_R   0.551780 0.923190 0.626070 -0.591501
O14   O     O_R   0.551780 0.076810 0.626070 -0.614924
O15   O     O_R   0.051780 0.423190 0.626070 -0.631838
O16   O     O_R   0.051780 0.576810 0.626070 -0.622270
C5    C     C_R   0.591613 0.899137 0.558622 0.880354
C6    C     C_R   0.589711 0.102018 0.556617 0.865321
C7    C     C_R   0.088756 0.396620 0.556643 0.881097
C8    C     C_R   0.090061 0.601252 0.557509 0.867069
C9    C     C_R   0.727122 0.211888 0.735234 -0.283089
C10   C     C_R   0.744005 0.800536 0.739832 -0.316095
C11   C     C_R   0.234787 0.705334 0.731151 -0.296204
C12   C     C_R   0.134058 0.192711 0.616708 -0.274040
H1    H     H_    0.742032 0.222791 0.820202 0.167514
H2    H     H_    0.764383 0.792248 0.824315 0.153615
H3    H     H_    0.257569 0.708679 0.815566 0.176168
H4    H     H_    0.112541 0.144279 0.652177 0.172444
C13   C     C_R   0.644533 0.156706 0.592999 -0.195115
C14   C     C_R   0.652399 0.849846 0.598998 -0.162362
C15   C     C_R   0.143888 0.656433 0.594685 -0.181899
C16   C     C_R   0.131042 0.327991 0.583222 -0.187931
C17   C     C_R   0.328790 0.832562 0.296613 0.068760
C18   C     C_R   0.397138 0.238291 0.379183 0.089414
C19   C     C_R   0.881525 0.279891 0.331118 0.061676
C20   C     C_R   0.850054 0.702847 0.306206 0.086525
C21   C     C_R   0.260358 0.805572 0.271091 0.546721
C22   C     C_R   0.355685 0.304542 0.361634 0.540685
C23   C     C_R   0.824095 0.233232 0.294559 0.543911
C24   C     C_R   0.808892 0.769299 0.284520 0.522386
C25   C     C_R   0.228787 0.774507 0.351560 -0.343097
C26   C     C_R   0.289802 0.305460 0.391764 -0.352169
C27   C     C_R   0.777967 0.214864 0.364373 -0.319515
C28   C     C_R   0.779699 0.801712 0.365913 -0.326902
C29   C     C_R   0.265017 0.766551 0.458872 0.026185
C30   C     C_R   0.266970 0.243294 0.447065 0.040805
C31   C     C_R   0.790157 0.238854 0.472930 0.021305
C32   C     C_R   0.795991 0.773330 0.472135 0.032529
C33   C     C_R   0.332344 0.796441 0.485660 -0.009578
C34   C     C_R   0.300975 0.173113 0.444145 -0.012745
C35   C     C_R   0.848397 0.284434 0.507277 -0.006633
C36   C     C_R   0.851787 0.721692 0.499088 -0.016025
C37   C     C_R   0.747766 0.217881 0.549289 0.081365
C38   C     C_R   0.757626 0.794248 0.552126 0.080111
C39   C     C_R   0.235191 0.731967 0.541103 0.085821
C40   C     C_R   0.213302 0.249685 0.508886 0.089095
C41   C     C_R   0.770422 0.231729 0.660854 0.070527
C42   C     C_R   0.784165 0.778926 0.662138 0.088996
C43   C     C_R   0.269136 0.734226 0.650420 0.069378
C44   C     C_R   0.186592 0.184078 0.553204 0.067250
C45   C     C_R   0.337385 0.762306 0.675440 0.186835
C46   C     C_R   0.213260 0.111976 0.532920 0.199498
C47   C     C_R   0.836117 0.264245 0.695538 0.178186
C48   C     C_R   0.849639 0.741625 0.690645 0.196241
C49   C     C_R   0.369987 0.786695 0.591563 -0.161290
C50   C     C_R   0.269855 0.107356 0.478305 -0.183959
C51   C     C_R   0.873428 0.291491 0.618600 -0.127072
C52   C     C_R   0.883146 0.714381 0.608775 -0.175225
C53   C     C_R   0.683635 0.182760 0.517606 -0.312411
C54   C     C_R   0.690759 0.825100 0.522833 -0.333075
C55   C     C_R   0.173911 0.691448 0.515830 -0.331461
C56   C     C_R   0.187969 0.320772 0.531736 -0.309375
C57   C     C_R   0.663310 0.177049 0.701780 0.485217
C58   C     C_R   0.677261 0.834287 0.709035 0.494127
C59   C     C_R   0.170749 0.669362 0.704227 0.485679
C60   C     C_R   0.106514 0.264302 0.632762 0.472794
C61   C     C_R   0.360169 0.837750 0.407025 -0.190079
C62   C     C_R   0.367646 0.170881 0.413925 -0.180149
C63   C     C_R   0.883418 0.317466 0.429319 -0.186440
C64   C     C_R   0.872595 0.678096 0.415658 -0.196645
H5    H     H_    0.663229 0.174138 0.433768 0.183439
H6    H     H_    0.666996 0.829220 0.438896 0.187685
H7    H     H_    0.151290 0.681212 0.433450 0.186800
H8    H     H_    0.209186 0.372489 0.505169 0.160819
H9    H     H_    0.736514 0.176873 0.333162 0.167355
H10   H     H_    0.745011 0.850028 0.344478 0.156670
H11   H     H_    0.174962 0.759018 0.326629 0.160496
H12   H     H_    0.258138 0.356091 0.373410 0.157273
H13   H     H_    0.425008 0.800013 0.610245 0.157381
H14   H     H_    0.290883 0.051820 0.465228 0.146040
H15   H     H_    0.924298 0.314886 0.646838 0.215808
H16   H     H_    0.934194 0.688024 0.631730 0.165451
C65   C     C_R   0.643996 0.978377 0.138167 -0.281576
C66   C     C_R   0.144442 0.497657 0.136494 -0.297386
H17   H     H_    0.656514 0.971983 0.310169 0.145345
H18   H     H_    0.158645 0.511946 0.307299 0.144403
H19   H     H_    0.672344 0.983725 0.938924 0.171888
H20   H     H_    0.172360 0.497211 0.938872 0.174630
H21   H     H_    0.699057 0.968261 0.137085 0.161475
H22   H     H_    0.199603 0.503702 0.133776 0.152983
N1    N     N_R   0.552340 1.000000 0.237260 -0.102183
N2    N     N_R   0.052340 0.500000 0.237260 -0.103250
C67   C     C_R   0.378469 0.992379 0.760871 0.046464
C68   C     C_R   0.878961 0.488346 0.758665 0.048293
C69   C     C_R   0.354090 0.979244 0.856182 -0.263839
C70   C     C_R   0.856661 0.456894 0.847165 -0.258156
C71   C     C_R   0.401810 0.977457 0.952113 -0.196458
C72   C     C_R   0.905841 0.442466 0.939446 -0.211187
C73   C     C_R   0.473361 0.991888 0.952577 0.019354
C74   C     C_R   0.974921 0.469896 0.949108 0.032382
C75   C     C_R   0.496264 0.997214 0.853714 0.164583
C76   C     C_R   0.996759 0.490038 0.852766 0.169767
C77   C     C_R   0.523284 0.996797 0.047464 -0.011809
C78   C     C_R   0.023374 0.477353 0.047391 -0.019327
C79   C     C_R   0.595290 0.986860 0.043139 0.100529
C80   C     C_R   0.095465 0.487341 0.042739 0.132186
C81   C     C_R   0.617262 0.987917 0.944016 -0.211410
C82   C     C_R   0.117447 0.491320 0.943670 -0.239783
C83   C     C_R   0.568118 0.996854 0.850364 -0.080399
C84   C     C_R   0.068277 0.495163 0.849864 -0.208259
C85   C     C_R   0.505160 0.014853 0.146527 0.264179
C86   C     C_R   0.002817 0.485903 0.148603 0.285303
C87   C     C_R   0.620317 0.981525 0.235527 -0.025142
C88   C     C_R   0.121532 0.503696 0.233900 -0.027914
N3    N     N_R   0.448170 0.000000 0.762060 -0.139225
N4    N     N_R   0.948170 0.500000 0.762060 -0.141275
H23   H     H_    0.342423 0.992678 0.685030 0.147416
H24   H     H_    0.842821 0.494627 0.683299 0.144876
H25   H     H_    0.382498 0.963894 0.025119 0.159101
H26   H     H_    0.889337 0.406472 0.998878 0.156960
H27   H     H_    0.299077 0.969440 0.855622 0.145118
H28   H     H_    0.802993 0.439167 0.842017 0.154002
H29   H     H_    0.587538 0.999995 0.776380 0.239754
H30   H     H_    0.087531 0.502491 0.776332 0.240637
O17   O     O_3   0.623505 0.157717 0.778739 -0.648107
C89   C     C_3   0.562893 0.204926 0.767193 0.134540
H31   H     H_    0.521205 0.172077 0.796201 0.174303
H32   H     H_    0.541651 0.221772 0.682012 0.115471
C90   C     C_3   0.577205 0.275510 0.835958 -0.397101
H33   H     H_    0.596375 0.257931 0.920889 0.244149
H34   H     H_    0.618011 0.309669 0.806909 0.220448
C91   C     C_3   0.511218 0.324339 0.830407 -0.947400
H35   H     H_    0.491459 0.343343 0.746143 0.260961
H36   H     H_    0.523417 0.375058 0.880990 0.268686
H37   H     H_    0.469861 0.291893 0.860862 0.267738
O18   O     O_3   0.637873 0.856671 0.785091 -0.659253
C92   C     C_3   0.623528 0.794984 0.850619 0.088143
H38   H     H_    0.593060 0.818253 0.909868 0.182760
H39   H     H_    0.671937 0.769752 0.898995 0.136568
C93   C     C_3   0.579362 0.733959 0.785558 -0.386867
H40   H     H_    0.533687 0.761188 0.732955 0.227116
H41   H     H_    0.611105 0.704021 0.733423 0.212728
C94   C     C_3   0.553857 0.675640 0.859584 -0.939234
H42   H     H_    0.599196 0.646496 0.910732 0.267691
H43   H     H_    0.521852 0.632697 0.810385 0.266978
H44   H     H_    0.521117 0.703513 0.912121 0.266726
O19   O     O_3   0.139868 0.640513 0.786434 -0.654006
C95   C     C_3   0.085167 0.689981 0.804101 0.114653
H45   H     H_    0.050192 0.656842 0.847219 0.174508
H46   H     H_    0.052477 0.711065 0.727524 0.120327
C96   C     C_3   0.113056 0.756794 0.874816 -0.372130
H47   H     H_    0.145556 0.735231 0.950882 0.259200
H48   H     H_    0.146090 0.792884 0.831920 0.211533
C97   C     C_3   0.053044 0.805550 0.901229 -0.968855
H49   H     H_    0.017853 0.824490 0.826166 0.272322
H50   H     H_    0.074315 0.856537 0.944851 0.269938
H51   H     H_    0.022620 0.773183 0.952871 0.270254
O20   O     O_3   0.050076 0.269390 0.685479 -0.664908
C98   C     C_3   0.071688 0.298451 0.789934 0.106793
H52   H     H_    0.030961 0.339587 0.804654 0.174954
H53   H     H_    0.121933 0.330069 0.800603 0.127396
C99   C     C_3   0.076950 0.234557 0.874066 -0.384698
H54   H     H_    0.027817 0.201625 0.860837 0.240892
H55   H     H_    0.121117 0.195823 0.865356 0.216358
C100  C     C_3   0.088739 0.265816 0.987975 -0.930123
H56   H     H_    0.137579 0.299133 0.003196 0.270675
H57   H     H_    0.093504 0.218226 0.047338 0.267479
H58   H     H_    0.043847 0.302669 0.999309 0.264084
C101  C     C_3   0.443530 0.066234 0.152660 -0.851859
H59   H     H_    0.462894 0.116539 0.198207 0.250492
H60   H     H_    0.418428 0.090428 0.073650 0.217254
H61   H     H_    0.403766 0.037079 0.190424 0.241842
C102  C     C_3   0.926810 0.487920 0.158661 -0.903855
H62   H     H_    0.904765 0.430855 0.159098 0.208923
H63   H     H_    0.918158 0.509650 0.233330 0.305365
H64   H     H_    0.896134 0.526158 0.096957 0.228824
C103  C     C_3   0.376674 0.765871 0.789642 -0.931729
H65   H     H_    0.428223 0.793231 0.793994 0.252373
H66   H     H_    0.346311 0.800291 0.838906 0.244254
H67   H     H_    0.385339 0.707820 0.824735 0.246214
C104  C     C_3   0.184479 0.039748 0.571994 -0.958323
H68   H     H_    0.192164 0.038834 0.661296 0.235629
H69   H     H_    0.127828 0.035962 0.538225 0.251496
H70   H     H_    0.211046 0.988629 0.546833 0.241593
C105  C     C_3   0.868131 0.268469 0.813349 -0.945347
H71   H     H_    0.920033 0.295584 0.825832 0.252603
H72   H     H_    0.833887 0.302040 0.857114 0.231006
H73   H     H_    0.875038 0.210461 0.849005 0.246396
C106  C     C_3   0.882437 0.726147 0.806435 -0.967195
H74   H     H_    0.932380 0.693923 0.813273 0.239206
H75   H     H_    0.893131 0.780516 0.848819 0.251518
H76   H     H_    0.846818 0.691672 0.846737 0.246773
C107  C     C_3   0.365463 0.856946 0.206041 -0.850193
H77   H     H_    0.339751 0.834976 0.127114 0.250765
H78   H     H_    0.364751 0.919364 0.199866 0.224886
H79   H     H_    0.420037 0.834433 0.220022 0.255565
C108  C     C_3   0.474365 0.242934 0.374220 -0.841494
H80   H     H_    0.490909 0.301457 0.359396 0.257134
H81   H     H_    0.505616 0.223863 0.452387 0.202439
H82   H     H_    0.487981 0.207664 0.309429 0.244514
C109  C     C_3   0.946524 0.275489 0.280324 -0.847352
H83   H     H_    0.945259 0.226138 0.226443 0.250703
H84   H     H_    0.952948 0.326862 0.232822 0.243082
H85   H     H_    0.993572 0.268000 0.344108 0.246148
C110  C     C_3   0.864928 0.658275 0.211639 -0.865084
H86   H     H_    0.842050 0.684195 0.132581 0.261736
H87   H     H_    0.922108 0.653558 0.212879 0.256540
H88   H     H_    0.839959 0.602454 0.214310 0.234402
O21   O     O_3   0.222866 0.809308 0.167002 -0.653998
C111  C     C_3   0.194802 0.883460 0.144085 0.068258
H89   H     H_    0.187517 0.892462 0.055530 0.166962
H90   H     H_    0.230726 0.928755 0.180187 0.129602
C112  C     C_3   0.123546 0.892208 0.179868 -0.377829
H91   H     H_    0.088612 0.845828 0.145931 0.235877
H92   H     H_    0.130569 0.888470 0.269034 0.216526
C113  C     C_3   0.088833 0.968431 0.143265 -0.957275
H93   H     H_    0.122308 0.015507 0.178706 0.269818
H94   H     H_    0.037527 0.972896 0.170375 0.269640
H95   H     H_    0.079881 0.973925 0.054127 0.261252
O22   O     O_3   0.379782 0.367835 0.313557 -0.644597
C114  C     C_3   0.384364 0.431399 0.382074 0.063470
H96   H     H_    0.439420 0.450781 0.395600 0.159467
H97   H     H_    0.371586 0.419393 0.463553 0.122106
C115  C     C_3   0.337159 0.495694 0.326688 -0.344780
H98   H     H_    0.354724 0.512416 0.250598 0.233376
H99   H     H_    0.282570 0.475731 0.306292 0.207249
C116  C     C_3   0.338467 0.564804 0.398471 -0.943117
H100  H     H_    0.318862 0.549921 0.473559 0.263797
H101  H     H_    0.304172 0.610290 0.355182 0.274814
H102  H     H_    0.392528 0.586591 0.419357 0.265475
O23   O     O_3   0.813795 0.200601 0.193620 -0.649044
C117  C     C_3   0.801131 0.257172 0.111291 0.072485
H103  H     H_    0.805424 0.229628 0.034044 0.169547
H104  H     H_    0.840983 0.302291 0.121846 0.138861
C118  C     C_3   0.727486 0.292357 0.100840 -0.364242
H105  H     H_    0.687954 0.247845 0.077830 0.229263
H106  H     H_    0.719615 0.316083 0.178989 0.217693
C119  C     C_3   0.716745 0.356278 0.016654 -0.990949
H107  H     H_    0.754081 0.402616 0.041511 0.268537
H108  H     H_    0.662628 0.379557 0.008410 0.276830
H109  H     H_    0.724964 0.334999 0.937423 0.253953
O24   O     O_3   0.789099 0.797399 0.180785 -0.653330
C120  C     C_3   0.839275 0.850315 0.160216 0.049268
H110  H     H_    0.893826 0.827612 0.184829 0.145051
H111  H     H_    0.833230 0.903572 0.204237 0.145962
C121  C     C_3   0.827429 0.867676 0.039526 -0.326846
H112  H     H_    0.831690 0.813982 0.996251 0.218258
H113  H     H_    0.773933 0.891910 0.013129 0.225934
C122  C     C_3   0.881210 0.923081 0.010675 -0.963862
H114  H     H_    0.877942 0.977419 0.053033 0.273871
H115  H     H_    0.870642 0.934525 0.922523 0.271076
H116  H     H_    0.934920 0.898619 0.033211 0.269694

loop_
_geom_bond_atom_site_label_1
_geom_bond_atom_site_label_2
_geom_bond_distance
_ccdc_geom_bond_type
C65   H21   1.083676 S    
C95   H46   1.115351 S    
C105  H71   1.107669 S    
C2    C61   1.472085 S    
C10   C58   1.407696 A    
O19   C95   1.415916 S    
C31   C35   1.404608 A    
C92   H39   1.111086 S    
C96   H48   1.110449 S    
C96   H47   1.111626 S    
C16   C60   1.407585 A    
C114  H96   1.111082 S    
O10   C6    1.320996 A    
C48   C52   1.401218 A    
Zn4   N4    2.066583 S    
C74   C76   1.399192 A    
C68   C70   1.379306 A    
C94   H42   1.111699 S    
C36   C64   1.423930 A    
C110  H88   1.106440 S    
O14   C6    1.316365 A    
C50   H14   1.083220 S    
C39   C55   1.386350 A    
C54   H6    1.079569 S    
C49   H13   1.081815 S    
C59   O19   1.380962 S    
C53   H5    1.076103 S    
O23   C117  1.419195 S    
C46   C104  1.509781 S    
Zn1   O10   1.950774 S    
C86   C102  1.502620 S    
C40   C44   1.422343 A    
C80   C82   1.391398 A    
C45   C49   1.391517 A    
C90   H34   1.110584 S    
C66   C88   1.383697 A    
C100  H57   1.110319 S    
C21   O21   1.385589 S    
C120  H110  1.117331 S    
C1    C62   1.460276 S    
C122  H116  1.111388 S    
C25   C29   1.416306 A    
C79   C81   1.390733 A    
C109  H84   1.101059 S    
C117  H104  1.110211 S    
O17   C89   1.418371 S    
C119  H109  1.109505 S    
C9    H1    1.080960 S    
C45   C103  1.509928 S    
C11   C59   1.392995 A    
C106  H75   1.109250 S    
C27   C31   1.419992 A    
C83   H29   1.067565 S    
C33   C49   1.413166 A    
O2    Zn1   1.976420 S    
C73   C77   1.406137 A    
C101  H61   1.104691 S    
Zn1   N1    2.079266 S    
C18   C108  1.514221 S    
C93   C94   1.525687 S    
O6    Zn3   1.950651 S    
C67   H23   1.081620 S    
Zn3   O14   1.976400 S    
C42   C48   1.410623 A    
C90   H33   1.109803 S    
C37   C53   1.394437 A    
C121  H112  1.109817 S    
C71   C73   1.413921 A    
C91   H37   1.110936 S    
C119  H108  1.110176 S    
N1    C87   1.358982 A    
C106  H76   1.110366 S    
C115  H99   1.108490 S    
C16   C56   1.382020 A    
C34   C50   1.412214 A    
C28   H10   1.081497 S    
C118  H105  1.110619 S    
C18   C62   1.424001 A    
O15   C7    1.313889 A    
O4    C4    1.325886 A    
O11   C7    1.319389 A    
C7    C16   1.456703 S    
C55   H7    1.073683 S    
C4    C63   1.480500 S    
C99   C100  1.527177 S    
C12   C44   1.411236 A    
C103  H67   1.110143 S    
C117  C118  1.534756 S    
C19   C23   1.409311 A    
H17   C87   1.081393 S    
C104  H68   1.110412 S    
Zn4   O16   1.976400 S    
C116  H100  1.111019 S    
C14   C58   1.409856 A    
C92   C93   1.539224 S    
C93   H41   1.111513 S    
C40   C56   1.394432 A    
C13   C57   1.409627 A    
C69   H27   1.082538 S    
C35   C51   1.411239 A    
C113  H94   1.110494 S    
C68   H24   1.081483 S    
C89   C90   1.528505 S    
C66   C80   1.396903 A    
C34   C62   1.412013 A    
C111  H90   1.115921 S    
C111  H89   1.110570 S    
C94   H43   1.111308 S    
C99   H55   1.111309 S    
O7    C3    1.327316 A    
C48   C106  1.507720 S    
C72   H26   1.070443 S    
C12   C60   1.397394 A    
C105  H73   1.110222 S    
C39   C43   1.421802 A    
C115  C116  1.527288 S    
C101  H60   1.107568 S    
C10   H2    1.077372 S    
C28   C32   1.406152 A    
C102  H62   1.099887 S    
Zn2   O12   1.950774 S    
C90   C91   1.525620 S    
O1    C1    1.313556 A    
C110  H86   1.108629 S    
C67   C69   1.385553 A    
C100  H58   1.111320 S    
C68   N4    1.354660 A    
C109  H83   1.110301 S    
C120  H111  1.113911 S    
C38   C42   1.414624 A    
C67   N3    1.358519 A    
C23   C27   1.399906 A    
O12   C8    1.326272 A    
C8    C15   1.458100 S    
C98   H53   1.118074 S    
C117  H103  1.110865 S    
C41   C47   1.405537 A    
H20   C82   1.084197 S    
C13   C53   1.394120 A    
C36   C52   1.414340 A    
C106  H74   1.107314 S    
C43   C45   1.404795 A    
C113  H95   1.110410 S    
C17   C107  1.509604 S    
C56   H8    1.079627 S    
C47   C105  1.510470 S    
C100  H56   1.111006 S    
C102  H63   1.061630 S    
C46   C50   1.397638 A    
C5    C14   1.469688 S    
C104  H70   1.111277 S    
C105  H72   1.107242 S    
C107  H77   1.109992 S    
C121  H113  1.111515 S    
C57   O17   1.384914 S    
C3    C64   1.492794 S    
O8    C4    1.317860 A    
C98   C99   1.528898 S    
C119  H107  1.111151 S    
C51   H15   1.078284 S    
C21   C25   1.385563 A    
C112  H92   1.110440 S    
C20   C110  1.505828 S    
C75   N3    1.352530 A    
C25   H11   1.076506 S    
C23   O23   1.388389 S    
C66   H22   1.083609 S    
C104  H69   1.110297 S    
O18   C92   1.418521 S    
C10   C42   1.409125 A    
O3    Zn2   1.948422 S    
C65   C79   1.395478 A    
C9    C41   1.409207 A    
C65   C87   1.386948 A    
O5    Zn3   1.912662 S    
C89   H32   1.116537 S    
O7    Zn4   1.912662 S    
C107  H78   1.103562 S    
C27   H9    1.077709 S    
C9    C57   1.390135 A    
Zn4   O15   1.948403 S    
C70   H28   1.082543 S    
C85   C101  1.505631 S    
C18   C22   1.404147 A    
C95   H45   1.109251 S    
C96   C97   1.525714 S    
C91   H36   1.110412 S    
C108  H82   1.100759 S    
O1    Zn1   1.948422 S    
C113  H93   1.110988 S    
C78   C80   1.423625 A    
O2    C2    1.309552 A    
C12   H4    1.081862 S    
C92   H38   1.111340 S    
C94   H44   1.111095 S    
C122  H115  1.110534 S    
C97   H49   1.110884 S    
O21   C111  1.418185 S    
C97   H51   1.110733 S    
C118  H106  1.110811 S    
C30   C34   1.400645 A    
Zn2   N2    2.079266 S    
O13   C5    1.317289 A    
O22   C114  1.420093 S    
C24   O24   1.381558 S    
C82   C84   1.384126 A    
N2    C88   1.353266 A    
C115  H98   1.111531 S    
C91   H35   1.111034 S    
Zn2   O11   1.912784 S    
C38   C54   1.387717 A    
C19   C109  1.513704 S    
O16   C8    1.307987 A    
C77   C85   1.396685 A    
C89   H31   1.111361 S    
O20   C98   1.416347 S    
C76   N4    1.357044 A    
C29   C33   1.402431 A    
O6    C2    1.329345 A    
C120  C121  1.526232 S    
C70   C72   1.388312 A    
C122  H114  1.111038 S    
C110  H87   1.109123 S    
C6    C13   1.463228 S    
Zn3   N3    2.066583 S    
H19   C81   1.083804 S    
C52   H16   1.079790 S    
C78   C86   1.412871 A    
C17   C61   1.423856 A    
C22   C26   1.396494 A    
C14   C54   1.386968 A    
Zn1   O9    1.912784 S    
O9    C5    1.322879 A    
C118  C119  1.526533 S    
C73   C75   1.398549 A    
C71   H25   1.079075 S    
C102  H64   1.108889 S    
C19   C63   1.408539 A    
C101  H59   1.098476 S    
C26   C30   1.410202 A    
C20   C64   1.434227 A    
O24   C120  1.411982 S    
C109  H85   1.111269 S    
C47   C51   1.393519 A    
C29   C39   1.409941 A    
C26   H12   1.077592 S    
C76   C84   1.398878 A    
C93   H40   1.109760 S    
Zn3   O13   1.948403 S    
C30   C40   1.411136 A    
C121  C122  1.525975 S    
C74   C78   1.427404 A    
C31   C37   1.421025 A    
C11   H3    1.081964 S    
C97   H50   1.107531 S    
C116  H101  1.110681 S    
C72   C74   1.416728 A    
N2    C86   1.368547 A    
C114  C115  1.531141 S    
C32   C38   1.406106 A    
C22   O22   1.389414 S    
C108  H80   1.109092 S    
O4    Zn2   1.976420 S    
C35   C63   1.414096 A    
C77   C79   1.416864 A    
C108  H81   1.109083 S    
O3    C3    1.320655 A    
C112  C113  1.526430 S    
C11   C43   1.405686 A    
C15   C59   1.411766 A    
C103  H65   1.109376 S    
C58   O18   1.386475 S    
C37   C41   1.424687 A    
C24   C28   1.384133 A    
C107  H79   1.110316 S    
C32   C36   1.398968 A    
C95   C96   1.534728 S    
O8    Zn4   1.950651 S    
C98   H52   1.107999 S    
H18   C88   1.081538 S    
C116  H102  1.110747 S    
C112  H91   1.111257 S    
C81   C83   1.387961 A    
C44   C46   1.411734 A    
C17   C21   1.401486 A    
C114  H97   1.117539 S    
O5    C1    1.316902 A    
C69   C71   1.388707 A    
C60   O20   1.380451 S    
N1    C85   1.354898 A    
C84   H30   1.066494 S    
C33   C61   1.409730 A    
C111  C112  1.534974 S    
C99   H54   1.111617 S    
C20   C24   1.407460 A    
C15   C55   1.381471 A    
C103  H66   1.110430 S    
C75   C83   1.402460 A    
