data_mof_unit_54684.cif
_audit_creation_date              2012-12-10T19:07:54-0500
_audit_creation_method            fapswitch 2.2
_symmetry_space_group_name_H-M    P1
_symmetry_Int_Tables_number       1
_space_group_crystal_system       triclinic
_cell_length_a                    13.034605
_cell_length_b                    13.596515
_cell_length_c                    23.444642
_cell_angle_alpha                 89.972118
_cell_angle_beta                  92.849078
_cell_angle_gamma                 85.316932
_cell_volume                      4135.94843791

loop_
_atom_site_label
_atom_site_type_symbol
_atom_type_description
_atom_site_fract_x
_atom_site_fract_y
_atom_site_fract_z
_atom_type_partial_charge
C1    C     C_R   0.480810 0.685300 0.499184 0.916487
C2    C     C_R   0.519192 0.314725 0.500608 0.917046
C3    C     C_R   0.408239 0.493092 0.759599 -0.123958
C4    C     C_R   0.591201 0.505322 0.240243 -0.124111
C5    C     C_R   0.407955 0.490981 0.700552 -0.223903
C6    C     C_R   0.591598 0.508670 0.299279 -0.224601
C7    C     C_R   0.498802 0.503651 0.673039 -0.074425
C8    C     C_R   0.501218 0.495011 0.327002 -0.074328
C9    C     C_R   0.589727 0.519840 0.705088 -0.219764
C10   C     C_R   0.410753 0.476361 0.295212 -0.220134
C11   C     C_R   0.591148 0.522512 0.764861 0.145303
C12   C     C_R   0.409233 0.472359 0.235473 0.145184
C13   C     C_R   0.498885 0.508166 0.791553 0.303702
C14   C     C_R   0.500927 0.487955 0.208532 0.303735
C15   C     C_1   0.535260 0.211623 0.497421 -0.218004
C16   C     C_1   0.465041 0.788315 0.493839 -0.217442
C17   C     C_2   0.547091 0.019912 0.488128 0.081616
C18   C     C_2   0.455425 0.979695 0.481985 0.081509
C19   C     C_1   0.456175 0.875480 0.488224 -0.030986
C20   C     C_1   0.544897 0.124324 0.493430 -0.030802
C21   C     C_2   0.032428 0.476501 0.481103 0.008925
C22   C     C_2   0.967783 0.521617 0.519435 0.009214
C23   C     C_R   0.499439 0.500724 0.610873 0.880846
C24   C     C_R   0.500573 0.499074 0.389135 0.881435
C25   C     C_1   0.854827 0.517597 0.512938 0.073699
C26   C     C_1   0.145261 0.481657 0.487247 0.074021
C27   C     C_R   0.525814 0.404007 0.119515 0.475643
C28   C     C_R   0.473663 0.591925 0.880562 0.476108
C29   C     C_R   0.479305 0.577470 0.120513 0.493279
C30   C     C_R   0.519417 0.418334 0.879524 0.492812
C31   C     C_R   0.477767 0.581999 0.061134 -0.041623
C32   C     C_R   0.520826 0.413771 0.938904 -0.041540
C33   C     C_R   0.500462 0.495122 0.030046 -0.037152
C34   C     C_R   0.498253 0.500666 0.970001 -0.037130
C35   C     C_R   0.525277 0.403215 0.059041 -0.055212
C36   C     C_R   0.473635 0.592611 0.941016 -0.055365
C37   C     C_R   0.453427 0.672193 0.033069 -0.173864
C38   C     C_R   0.544967 0.323543 0.966969 -0.173863
C39   C     C_R   0.450723 0.680247 0.973390 0.081465
C40   C     C_R   0.547858 0.315526 0.026658 0.081507
H1    H     H_    0.436403 0.736668 0.058763 0.188529
H2    H     H_    0.561807 0.259035 0.941270 0.188549
H3    H     H_    0.338113 0.482189 0.780850 0.138576
H4    H     H_    0.660874 0.517232 0.218799 0.138588
H5    H     H_    0.337020 0.478688 0.676545 0.164998
H6    H     H_    0.662177 0.522802 0.323107 0.164672
H7    H     H_    0.658788 0.530255 0.682964 0.154934
H8    H     H_    0.342108 0.465067 0.317517 0.154731
N1    N     N_R   0.502233 0.489748 0.147849 -0.349766
N2    N     N_R   0.497082 0.506163 0.852216 -0.349837
N3    N     N_1   0.234540 0.484780 0.490870 -0.105184
N4    N     N_1   0.765460 0.515220 0.509130 -0.105172
O1    O     O_R   0.402510 0.634760 0.496660 -0.605255
O2    O     O_R   0.597490 0.365240 0.503340 -0.605708
O3    O     O_R   0.572960 0.644530 0.502520 -0.607908
O4    O     O_R   0.427040 0.355470 0.497480 -0.607999
O5    O     O_R   0.414760 0.495140 0.580910 -0.615670
O6    O     O_R   0.585240 0.504860 0.419090 -0.615565
O7    O     O_R   0.585200 0.504910 0.586770 -0.621534
O8    O     O_R   0.414800 0.495090 0.413230 -0.621587
O9    O     O_2   0.548988 0.321045 0.150554 -0.598222
O10   O     O_2   0.451294 0.675040 0.849554 -0.597592
O11   O     O_2   0.457573 0.660038 0.151151 -0.574278
O12   O     O_2   0.540777 0.335722 0.848863 -0.574124
Zn1   Zn    Zn3+2 0.386190 0.493470 0.496090 0.960085
Zn2   Zn    Zn3+2 0.613810 0.506530 0.503910 0.959914
C41   C     C_3   0.423954 0.781203 0.944885 -0.332992
C42   C     C_3   0.400527 0.869737 0.984416 -0.431553
C43   C     C_3   0.376145 0.964971 0.950117 -0.840587
H9    H     H_    0.442958 0.980971 0.925007 0.264855
H10   H     H_    0.307622 0.958733 0.920631 0.266613
H11   H     H_    0.359369 0.027323 0.979707 0.251604
H12   H     H_    0.332815 0.857224 0.009717 0.235315
H13   H     H_    0.468422 0.879385 0.013823 0.234586
H14   H     H_    0.490173 0.798650 0.919630 0.241414
H15   H     H_    0.354425 0.775938 0.915966 0.244366
C44   C     C_3   0.574410 0.214544 0.055166 -0.333209
C45   C     C_3   0.596861 0.125842 0.015615 -0.431145
C46   C     C_3   0.620927 0.030570 0.049916 -0.841073
H16   H     H_    0.689707 0.036474 0.079256 0.266573
H17   H     H_    0.554177 0.014975 0.075182 0.264715
H18   H     H_    0.637148 0.968119 0.020315 0.251713
H19   H     H_    0.528610 0.116591 0.986398 0.234684
H20   H     H_    0.664453 0.137864 0.990112 0.235266
H21   H     H_    0.644310 0.219507 0.083835 0.244527
H22   H     H_    0.508382 0.197510 0.080689 0.241052
C47   C     C_3   0.687832 0.539671 0.801546 -0.412385
C48   C     C_3   0.784443 0.556171 0.768862 -0.372812
C49   C     C_3   0.875762 0.573573 0.809865 -0.858164
H23   H     H_    0.858144 0.640429 0.835969 0.263279
H24   H     H_    0.894006 0.508841 0.838588 0.264214
H25   H     H_    0.944446 0.584607 0.785164 0.251897
H26   H     H_    0.805618 0.490213 0.742614 0.228631
H27   H     H_    0.769069 0.621771 0.740457 0.226847
H28   H     H_    0.670473 0.605381 0.828683 0.217526
H29   H     H_    0.705916 0.474825 0.830259 0.217335
C50   C     C_3   0.312948 0.452662 0.199092 -0.412651
C51   C     C_3   0.217067 0.434730 0.232096 -0.372745
C52   C     C_3   0.126186 0.414540 0.191417 -0.857701
H30   H     H_    0.106208 0.478477 0.162310 0.263919
H31   H     H_    0.145292 0.347522 0.165709 0.263234
H32   H     H_    0.058093 0.402352 0.216365 0.251776
H33   H     H_    0.234058 0.369910 0.260959 0.226841
H34   H     H_    0.194480 0.500860 0.257899 0.228320
H35   H     H_    0.293349 0.516757 0.169993 0.216294
H36   H     H_    0.331583 0.386733 0.172345 0.218495
C53   C     C_3   0.352658 0.042355 0.475929 -0.401912
C54   C     C_3   0.261499 0.984747 0.454809 -0.331163
C55   C     C_3   0.162926 0.053011 0.446160 -0.888696
H37   H     H_    0.143002 0.089722 0.486929 0.263041
H38   H     H_    0.172754 0.110127 0.413409 0.265033
H39   H     H_    0.098337 0.009348 0.431450 0.252229
H40   H     H_    0.279137 0.948356 0.413572 0.231122
H41   H     H_    0.248095 0.927029 0.486585 0.230609
H42   H     H_    0.335781 0.075805 0.518054 0.206081
H43   H     H_    0.359640 0.103083 0.444898 0.210277
C56   C     C_3   0.649536 0.957310 0.496578 -0.400538
C57   C     C_3   0.744850 0.014960 0.489443 -0.334245
C58   C     C_3   0.843999 0.946926 0.495161 -0.883719
H44   H     H_    0.851449 0.910768 0.537841 0.264415
H45   H     H_    0.844246 0.889385 0.461535 0.263306
H46   H     H_    0.911403 0.990635 0.490276 0.251502
H47   H     H_    0.739838 0.050883 0.446666 0.229294
H48   H     H_    0.748321 0.073052 0.522682 0.231774
H49   H     H_    0.653885 0.923950 0.540033 0.204964
H50   H     H_    0.651679 0.896531 0.464802 0.211655
C59   C     C_3   0.012663 0.577752 0.569816 -0.401591
C60   C     C_3   0.932497 0.620309 0.611151 -0.343523
C61   C     C_3   0.983620 0.673744 0.660780 -0.883119
H51   H     H_    0.039171 0.621841 0.685556 0.262256
H52   H     H_    0.024778 0.735695 0.644650 0.266492
H53   H     H_    0.923918 0.704051 0.689625 0.252677
H54   H     H_    0.875701 0.673504 0.588056 0.226637
H55   H     H_    0.890883 0.559704 0.628684 0.222246
H56   H     H_    0.070069 0.526938 0.594235 0.205135
H57   H     H_    0.053590 0.639387 0.552935 0.205442
C62   C     C_3   0.987683 0.420196 0.430750 -0.400738
C63   C     C_3   0.068677 0.371922 0.391650 -0.343544
C64   C     C_3   0.018092 0.316358 0.342725 -0.886983
H58   H     H_    0.974705 0.256677 0.359721 0.267070
H59   H     H_    0.964657 0.367672 0.316263 0.263415
H60   H     H_    0.078372 0.282705 0.315260 0.252138
H61   H     H_    0.113308 0.429554 0.373278 0.222142
H62   H     H_    0.122747 0.318970 0.416749 0.226381
H63   H     H_    0.942657 0.361487 0.447623 0.206300
H64   H     H_    0.933941 0.472117 0.404741 0.203757

loop_
_geom_bond_atom_site_label_1
_geom_bond_atom_site_label_2
_ccdc_geom_bond_type
C38   C40   A    
C47   C48   S    
C29   O11   S    
C30   O12   S    
C11   C13   A    
C21   C62   S    
C21   C26   S    
C60   C61   S    
C50   C51   S    
C29   N1    A    
C44   C45   S    
C23   O7    A    
C3    H3    S    
C62   H63   S    
C59   H56   S    
C38   H2    S    
C63   H61   S    
C55   H38   S    
O7    Zn2   S    
C64   H60   S    
C51   H34   S    
C14   N1    S    
C42   H13   S    
C51   H33   S    
C17   C20   S    
C54   C55   S    
C23   O5    A    
C18   C19   S    
N3    Zn1   S    
C54   H41   S    
C43   H10   S    
C1    O1    A    
C57   C58   S    
C27   O9    S    
C33   C35   A    
C18   C53   S    
C28   N2    A    
C45   H19   S    
O6    Zn2   S    
C11   C47   S    
C42   C43   S    
C22   C25   S    
C47   H28   S    
C53   C54   S    
C31   C33   A    
C32   C38   A    
C49   H24   S    
O1    Zn1   S    
C56   H50   S    
C3    C13   A    
C17   C56   S    
C61   H53   S    
C50   H35   S    
C30   N2    A    
C44   H21   S    
C21   C22   D    
C29   C31   A    
C41   H15   S    
C60   H54   S    
C33   C34   A    
C58   H45   S    
C15   C20   T    
C48   H27   S    
C41   C42   S    
C62   H64   S    
C59   H57   S    
C4    C6    A    
C2    O2    A    
C55   H39   S    
C5    C7    A    
C45   C46   S    
C6    C8    A    
C4    H4    S    
C27   C35   A    
C42   H12   S    
C5    H5    S    
C31   C37   A    
C32   C34   A    
C54   H40   S    
C43   H11   S    
C60   H55   S    
O4    Zn1   S    
C52   H30   S    
C64   H58   S    
C47   H29   S    
C17   C18   D    
C1    C16   S    
C57   H48   S    
C49   H25   S    
C2    C15   S    
C9    C11   A    
C53   H42   S    
C12   C50   S    
C10   C12   A    
C50   H36   S    
C24   O6    A    
C52   H31   S    
C12   C14   A    
O8    Zn1   S    
C9    H7    S    
C10   H8    S    
C41   H14   S    
C59   C60   S    
O3    Zn2   S    
N4    Zn2   S    
C46   H17   S    
C61   H51   S    
C58   H46   S    
C7    C9    A    
C48   H26   S    
C6    H6    S    
C39   C41   S    
C36   C39   A    
O5    Zn1   S    
C3    C5    A    
C44   H22   S    
C46   H18   S    
C58   H44   S    
O2    Zn2   S    
C62   C63   S    
C35   C40   A    
C1    O3    A    
C25   N4    T    
C37   C39   A    
C4    C14   A    
C63   H62   S    
C26   N3    T    
C30   C32   A    
C64   H59   S    
C22   C59   S    
C16   C19   T    
C7    C23   S    
C13   N2    S    
C8    C24   S    
C34   C36   A    
C57   H47   S    
C37   H1    S    
C43   H9    S    
C53   H43   S    
C63   C64   S    
C46   H16   S    
C45   H20   S    
C52   H32   S    
C48   C49   S    
C28   C36   A    
C8    C10   A    
C51   C52   S    
C55   H37   S    
C40   C44   S    
C2    O4    A    
C24   O8    A    
C49   H23   S    
C56   C57   S    
C56   H49   S    
C27   N1    A    
C61   H52   S    
C28   O10   S    
