data_mof_unit_47652.cif
_audit_creation_date              2012-10-26T19:17:54-0400
_audit_creation_method            fapswitch 2.2
_symmetry_space_group_name_H-M    P1
_symmetry_Int_Tables_number       1
_space_group_crystal_system       triclinic
_cell_length_a                    10.780531
_cell_length_b                    12.324997
_cell_length_c                    13.10669
_cell_angle_alpha                 116.649812
_cell_angle_beta                  76.965715
_cell_angle_gamma                 101.461037
_cell_volume                      1506.83199585

loop_
_atom_site_label
_atom_site_type_symbol
_atom_type_description
_atom_site_fract_x
_atom_site_fract_y
_atom_site_fract_z
_atom_type_partial_charge
C1    C     C_R   0.520366 0.854901 0.285508 0.516137
C2    C     C_R   0.296484 0.218954 0.264627 -0.116183
C3    C     C_R   0.370223 0.131098 0.175703 -0.100451
C4    C     C_R   0.737208 0.000968 0.501719 0.538867
C5    C     C_R   0.350774 0.011038 0.164707 -0.099126
C6    C     C_R   0.258364 0.978894 0.243282 -0.058022
C7    C     C_R   0.184641 0.067008 0.333525 0.050917
C8    C     C_R   0.310593 0.287855 0.016370 -0.142685
C9    C     C_R   0.455657 0.226978 0.835787 -0.008879
C10   C     C_R   0.653729 0.806243 0.088409 0.001689
C11   C     C_R   0.690651 0.717990 0.976999 -0.125219
C12   C     C_R   0.626842 0.862982 0.817959 -0.100567
C13   C     C_R   0.633014 0.598793 0.939798 -0.151230
C14   C     C_R   0.531577 0.562251 0.010961 0.024225
C15   C     C_R   0.482525 0.652823 0.118824 0.007740
C16   C     C_R   0.481312 0.144766 0.713745 0.541839
C17   C     C_R   0.475274 0.438877 0.977227 0.028247
C18   C     C_R   0.367530 0.409029 0.049010 0.044320
C19   C     C_R   0.313971 0.501052 0.149685 -0.146216
C20   C     C_R   0.368252 0.621316 0.182396 -0.125864
C21   C     C_R   0.519898 0.344487 0.872205 -0.139823
C22   C     C_R   0.354191 0.197015 0.909671 -0.147579
C23   C     C_R   0.037893 0.959512 0.570879 -0.157473
C24   C     C_R   0.548447 0.772819 0.161083 -0.013360
C25   C     C_R   0.719486 0.358064 0.345399 -0.152155
C26   C     C_R   0.322545 0.759123 0.642264 0.031575
C27   C     C_R   0.290345 0.670937 0.684808 -0.141383
C28   C     C_R   0.262886 0.998562 0.497636 0.545826
C29   C     C_R   0.367085 0.575991 0.646986 0.005612
C30   C     C_R   0.464664 0.558143 0.547827 -0.012264
C31   C     C_R   0.496882 0.655492 0.511108 0.174224
C32   C     C_R   0.534292 0.451766 0.484529 -0.024190
C33   C     C_R   0.644552 0.455580 0.402540 0.032033
C34   C     C_R   0.129191 0.996532 0.494717 -0.002697
C35   C     C_R   0.677756 0.554824 0.374858 -0.180247
C36   C     C_R   0.602740 0.649914 0.424513 -0.089162
C37   C     C_R   0.497036 0.338510 0.492815 0.041958
C38   C     C_R   0.683840 0.254900 0.366774 0.038624
C39   C     C_R   0.648748 0.984129 0.831946 -0.098440
C40   C     C_R   0.742629 0.017534 0.755047 -0.060910
C41   C     C_R   0.815422 0.929587 0.663542 0.048756
C42   C     C_R   0.794415 0.808417 0.651211 -0.092239
C43   C     C_R   0.699811 0.775260 0.727893 -0.113960
C44   C     C_3   0.728212 0.933697 0.131410 -0.262021
C45   C     C_R   0.091623 0.034863 0.420729 -0.032889
C46   C     C_3   0.847923 0.954954 0.050996 -0.473130
C47   C     C_3   0.350228 0.506158 0.721236 -0.281251
C48   C     C_3   0.319582 0.584040 0.851656 -0.434875
C49   C     C_R   0.962192 0.038503 0.427147 -0.157446
C50   C     C_R   0.870953 0.002007 0.503696 -0.001006
C51   C     C_R   0.908524 0.962904 0.577121 -0.032113
C52   C     C_R   0.203457 0.187052 0.343024 -0.099501
Cu1   Cu    Cu3+1 0.529370 0.098270 0.475420 0.916909
Cu2   Cu    Cu3+1 0.470630 0.901730 0.524580 0.917259
H1    H     H_    0.553691 0.837318 0.877229 0.107092
H2    H     H_    0.592228 0.051931 0.901776 0.101354
H3    H     H_    0.318126 0.689475 0.257758 0.140513
H4    H     H_    0.743460 0.181095 0.325814 0.108778
H5    H     H_    0.760280 0.556987 0.310467 0.107675
H6    H     H_    0.805348 0.361780 0.284721 0.085950
H7    H     H_    0.406226 0.320269 0.539712 0.124565
H8    H     H_    0.266758 0.835539 0.678346 0.121143
H9    H     H_    0.208686 0.681994 0.752449 0.098533
H10   H     H_    0.631912 0.718126 0.392479 0.183833
H11   H     H_    0.757302 0.111298 0.765582 0.091830
H12   H     H_    0.442468 0.156082 0.115407 0.110860
H13   H     H_    0.848885 0.739274 0.580625 0.105430
H14   H     H_    0.682380 0.681368 0.716989 0.109806
H15   H     H_    0.067694 0.931763 0.628579 0.117518
H16   H     H_    0.932273 0.066081 0.369381 0.115488
H17   H     H_    0.148142 0.256287 0.412483 0.099292
H18   H     H_    0.312010 0.312004 0.273283 0.112989
H19   H     H_    0.228507 0.264540 0.070917 0.106482
H20   H     H_    0.917359 0.889854 0.030854 0.149573
H21   H     H_    0.822042 0.946183 0.970129 0.160757
H22   H     H_    0.895131 0.049058 0.094673 0.129910
H23   H     H_    0.408009 0.943106 0.095894 0.094895
H24   H     H_    0.662978 0.001367 0.148538 0.164450
H25   H     H_    0.760774 0.953270 0.213211 0.157311
H26   H     H_    0.390911 0.665962 0.879854 0.154753
H27   H     H_    0.221539 0.611819 0.876710 0.135786
H28   H     H_    0.322131 0.528844 0.898313 0.159178
H29   H     H_    0.271820 0.430245 0.695680 0.138709
H30   H     H_    0.440884 0.469537 0.709936 0.150994
H31   H     H_    0.245281 0.885937 0.234787 0.084501
H32   H     H_    0.303667 0.105721 0.882009 0.117101
H33   H     H_    0.228326 0.480293 0.202604 0.100013
H34   H     H_    0.601288 0.359751 0.813492 0.111534
H35   H     H_    0.670267 0.538160 0.853457 0.098895
H36   H     H_    0.767931 0.738510 0.917528 0.123972
N1    N     N_R   0.573890 0.246290 0.438210 -0.226784
N2    N     N_R   0.426890 0.754320 0.561170 -0.231420
O1    O     O_R   0.536940 0.972510 0.318130 -0.504078
O2    O     O_R   0.487330 0.806530 0.359650 -0.520369
O3    O     O_R   0.705160 0.082990 0.479250 -0.515616
O4    O     O_R   0.655550 0.917010 0.520760 -0.503196
O5    O     O_R   0.512670 0.193470 0.640350 -0.505066
O6    O     O_R   0.463060 0.027490 0.681870 -0.497577
O7    O     O_R   0.344450 0.082990 0.479240 -0.489510
O8    O     O_R   0.294840 0.917010 0.520750 -0.520046

loop_
_geom_bond_atom_site_label_1
_geom_bond_atom_site_label_2
_ccdc_geom_bond_type
Cu1   O3    S    
C41   C42   A    
C23   H15   S    
C35   C36   A    
C16   O6    A    
C46   H22   S    
Cu1   Cu2   S    
Cu1   O7    S    
C26   C27   A    
C6    H31   S    
C29   C47   S    
C7    C45   S    
C9    C16   S    
C7    C52   A    
C12   C43   A    
C19   H33   S    
C30   C31   A    
C16   O5    A    
C27   C29   A    
C26   N2    A    
C48   H27   S    
C35   H5    S    
C18   C19   A    
C38   H4    S    
C47   C48   S    
C1    O2    A    
Cu1   N1    S    
C8    C22   A    
C25   H6    S    
C47   H29   S    
Cu2   O4    S    
C28   O8    A    
C21   H34   S    
C28   C34   S    
C4    O4    A    
C13   C14   A    
C14   C17   A    
Cu2   O8    S    
C2    H18   S    
C46   H21   S    
C44   C46   S    
C50   C51   A    
C15   C20   A    
C37   N1    A    
C10   C44   S    
C39   C40   A    
C43   H14   S    
Cu1   O5    S    
C32   C37   A    
Cu1   O1    S    
C38   N1    A    
C8    C18   A    
C4    C50   S    
Cu2   N2    S    
C29   C30   A    
C25   C38   A    
C4    O3    A    
C23   C51   A    
C39   H2    S    
C45   C49   A    
C23   C34   A    
C17   C18   A    
C34   C45   A    
C47   H30   S    
C2    C52   A    
C28   O7    A    
C15   C24   A    
C31   N2    A    
C49   H16   S    
C42   H13   S    
C3    H12   S    
C42   C43   A    
C5    H23   S    
C46   H20   S    
C40   C41   A    
C13   H35   S    
C31   C36   A    
C44   H25   S    
Cu2   O6    S    
C3    C5    A    
C37   H7    S    
C6    C7    A    
C40   H11   S    
C10   C24   A    
C32   C33   A    
C48   H26   S    
C19   C20   A    
C44   H24   S    
C2    C3    A    
C26   H8    S    
C52   H17   S    
C30   C32   A    
C11   C13   A    
C11   H36   S    
C9    C21   A    
C5    C6    A    
C12   C39   A    
C8    H19   S    
C33   C35   A    
C48   H28   S    
C22   H32   S    
C9    C22   A    
C17   C21   A    
Cu2   O2    S    
C12   H1    S    
C10   C11   A    
C1    C24   S    
C1    O1    A    
C49   C50   A    
C14   C15   A    
C27   H9    S    
C20   H3    S    
C36   H10   S    
C41   C51   S    
C25   C33   A    
