data_mof_unit_42147.cif
_audit_creation_date              2012-12-10T18:10:26-0500
_audit_creation_method            fapswitch 2.2
_symmetry_space_group_name_H-M    P1
_symmetry_Int_Tables_number       1
_space_group_crystal_system       triclinic
_cell_length_a                    10.745662
_cell_length_b                    9.440829
_cell_length_c                    15.876984
_cell_angle_alpha                 90.01361
_cell_angle_beta                  89.684268
_cell_angle_gamma                 90.135025
_cell_volume                      1610.65862857

loop_
_atom_site_label
_atom_site_type_symbol
_atom_type_description
_atom_site_fract_x
_atom_site_fract_y
_atom_site_fract_z
_atom_type_partial_charge
C1    C     C_R   0.259767 0.500077 0.498880 0.848421
C2    C     C_3   0.635126 0.501232 0.950683 -0.382228
C3    C     C_3   0.635212 0.501209 0.048307 -0.375428
C4    C     C_1   0.499796 0.500021 0.825094 -0.115477
C5    C     C_1   0.500077 0.499946 0.175000 -0.124664
C6    C     C_1   0.500060 0.499955 0.250580 -0.190404
C7    C     C_3   0.071308 0.653486 0.479801 0.193099
C8    C     C_3   0.069762 0.455172 0.586233 0.204784
C9    C     C_3   0.927858 0.653467 0.481140 -0.417890
C10   C     C_3   0.925517 0.450462 0.584677 -0.464590
C11   C     C_3   0.071595 0.398250 0.429310 -0.432769
C12   C     C_3   0.121659 0.500752 0.498021 0.015877
C13   C     C_3   0.877607 0.501456 0.498023 0.050113
C14   C     C_R   0.499982 0.499986 0.340273 0.825351
C15   C     C_3   0.928101 0.401507 0.428118 -0.381746
C16   C     C_3   0.596863 0.083769 0.558970 -0.249068
C17   C     C_3   0.595962 0.916934 0.559647 -0.246916
C18   C     C_3   0.376580 0.083795 0.527712 0.261793
C19   C     C_3   0.376046 0.915705 0.526581 0.229825
C20   C     C_3   0.527655 0.084332 0.416285 0.309328
C21   C     C_3   0.528738 0.915671 0.416433 0.304815
C22   C     C_R   0.739880 0.500350 0.498545 0.794862
C23   C     C_R   0.499773 0.500011 0.659813 0.842757
C24   C     C_3   0.431721 0.632641 0.049170 -0.378445
C25   C     C_3   0.433059 0.366051 0.049105 -0.383517
C26   C     C_3   0.432970 0.366075 0.951482 -0.368353
C27   C     C_3   0.431631 0.632662 0.951548 -0.374347
C28   C     C_1   0.499763 0.500030 0.749511 -0.176728
C29   C     C_3   0.500022 0.499959 0.082813 0.335412
C30   C     C_3   0.499876 0.499998 0.917283 0.327981
Cu1   Cu    Cu3+1 0.499860 0.642410 0.500040 0.981314
Cu2   Cu    Cu3+1 0.499860 0.357590 0.500040 0.980286
H1    H     H_    0.333978 0.634181 0.928539 0.164973
H2    H     H_    0.335342 0.362772 0.928470 0.168405
H3    H     H_    0.890267 0.694352 0.420648 0.212292
H4    H     H_    0.890609 0.341463 0.597615 0.184919
H5    H     H_    0.586208 0.124894 0.623970 0.133124
H6    H     H_    0.583181 0.877698 0.624877 0.129816
H7    H     H_    0.690903 0.120453 0.539160 0.208181
H8    H     H_    0.690038 0.879002 0.541269 0.207345
H9    H     H_    0.306613 0.117507 0.480354 0.089714
H10   H     H_    0.307690 0.884231 0.477542 0.137271
H11   H     H_    0.480552 0.269050 0.072302 0.156896
H12   H     H_    0.478235 0.730495 0.072415 0.157026
H13   H     H_    0.480415 0.269084 0.927847 0.158653
H14   H     H_    0.478097 0.730528 0.927961 0.158013
H15   H     H_    0.685395 0.596688 0.071539 0.158426
H16   H     H_    0.686348 0.406648 0.071492 0.158583
N1    N     N_3   0.500250 0.143650 0.501830 -0.181332
N2    N     N_3   0.500250 0.856350 0.501830 -0.178009
O1    O     O_R   0.317570 0.620260 0.500050 -0.544543
O2    O     O_R   0.317570 0.379740 0.500050 -0.546783
O3    O     O_R   0.499890 0.620310 0.379470 -0.559760
O4    O     O_R   0.499890 0.379690 0.379470 -0.570375
O5    O     O_R   0.682190 0.620260 0.500020 -0.564581
O6    O     O_R   0.682190 0.379740 0.500020 -0.564489
O7    O     O_R   0.499870 0.620210 0.620600 -0.572877
O8    O     O_R   0.499870 0.379790 0.620600 -0.555451
H17   H     H_    0.109135 0.426995 0.366224 0.159841
H18   H     H_    0.103494 0.288124 0.440852 0.181090
H19   H     H_    0.895680 0.438205 0.365358 0.161919
H20   H     H_    0.891991 0.292008 0.437516 0.209105
O9    O     O_3   0.334353 0.141273 0.604583 -0.629037
H21   H     H_    0.389875 0.110745 0.650464 0.318810
O10   O     O_3   0.329882 0.855404 0.601740 -0.687366
H22   H     H_    0.386368 0.878891 0.648575 0.321909
H23   H     H_    0.452505 0.118832 0.372530 0.010091
H24   H     H_    0.454959 0.879492 0.371980 0.030699
O11   O     O_3   0.641694 0.138688 0.386214 -0.675351
H25   H     H_    0.640050 0.131719 0.323824 0.300506
O12   O     O_3   0.644011 0.863441 0.387574 -0.676486
H26   H     H_    0.643378 0.869235 0.325133 0.300679
H27   H     H_    0.334110 0.634157 0.072989 0.160686
H28   H     H_    0.335473 0.362731 0.072922 0.159620
H29   H     H_    0.685271 0.596721 0.927084 0.158799
H30   H     H_    0.686225 0.406684 0.927037 0.160170
O13   O     O_3   0.118838 0.709872 0.403859 -0.740835
H31   H     H_    0.077787 0.661389 0.356059 0.328132
O14   O     O_3   0.119760 0.325851 0.614275 -0.669766
H32   H     H_    0.084714 0.248340 0.579517 0.348901
H33   H     H_    0.102795 0.725228 0.531188 0.167185
H34   H     H_    0.098086 0.536922 0.632965 0.125181
H35   H     H_    0.895186 0.726725 0.531577 0.151545
H36   H     H_    0.887892 0.519667 0.635540 0.135084

loop_
_geom_bond_atom_site_label_1
_geom_bond_atom_site_label_2
_ccdc_geom_bond_type
C23   O8    A    
C20   H23   S    
C24   C27   S    
Cu2   O8    S    
C25   H11   S    
O13   H31   S    
C27   H1    S    
C21   O12   S    
C8    H34   S    
C18   C19   S    
C5    C6    T    
C18   O9    S    
C3    H16   S    
C7    C9    S    
C25   H28   S    
C10   H36   S    
C3    C29   S    
C9    C13   S    
C24   C29   S    
Cu2   O2    S    
C26   H13   S    
C11   C15   S    
C26   H2    S    
C16   C17   S    
C8    O14   S    
C19   H10   S    
C16   H5    S    
C7    O13   S    
C27   C30   S    
C1    C12   S    
C11   H17   S    
Cu2   O4    S    
C21   N2    S    
C4    C28   T    
C5    C29   S    
C25   C29   S    
C7    C12   S    
C16   N1    S    
C18   H9    S    
C22   O6    A    
C25   C26   S    
O14   H32   S    
C17   H8    S    
C20   N1    S    
C6    C14   S    
Cu1   Cu2   S    
C8    C12   S    
C15   H19   S    
C23   C28   S    
Cu1   O3    S    
C1    O1    A    
C9    H35   S    
C27   H14   S    
C7    H33   S    
C26   C30   S    
C13   C15   S    
C21   H24   S    
C24   H12   S    
C20   O11   S    
Cu1   N2    S    
C11   H18   S    
C2    H30   S    
C23   O7    A    
C14   O4    A    
Cu1   O1    S    
C10   C13   S    
C17   N2    S    
C11   C12   S    
C22   O5    A    
C2    C30   S    
Cu1   O7    S    
C2    C3    S    
O12   H26   S    
C19   N2    S    
C3    H15   S    
C15   H20   S    
C13   C22   S    
C19   O10   S    
C17   H6    S    
O11   H25   S    
C24   H27   S    
C1    O2    A    
Cu2   N1    S    
C16   H7    S    
O9    H21   S    
C14   O3    A    
C20   C21   S    
C8    C10   S    
O10   H22   S    
C9    H3    S    
C10   H4    S    
Cu1   O5    S    
Cu2   O6    S    
C4    C30   S    
C2    H29   S    
C18   N1    S    
