data_mof_unit_11149.cif
_audit_creation_date              2013-03-05T15:49:56-0500
_audit_creation_method            fapswitch 2.2
_symmetry_space_group_name_H-M    P1
_symmetry_Int_Tables_number       1
_space_group_crystal_system       triclinic
_cell_length_a                    12.066752
_cell_length_b                    12.948293
_cell_length_c                    14.916708
_cell_angle_alpha                 92.661804
_cell_angle_beta                  87.580339
_cell_angle_gamma                 92.860648
_cell_volume                      2323.36761675

loop_
_atom_site_label
_atom_site_type_symbol
_atom_site_description
_atom_site_fract_x
_atom_site_fract_y
_atom_site_fract_z
_atom_type_partial_charge
O1    O     O_R   0.421700 0.658830 0.504450 -0.562604
O2    O     O_R   0.578300 0.341170 0.495550 -0.584882
O3    O     O_R   0.609310 0.646410 0.493750 -0.604567
O4    O     O_R   0.390690 0.353590 0.506250 -0.607361
C1    C     C_R   0.521315 0.700531 0.497515 0.978344
C2    C     C_R   0.478337 0.298727 0.500510 0.955009
O5    O     O_R   0.406180 0.506230 0.637500 -0.624309
O6    O     O_R   0.593820 0.493770 0.362500 -0.598758
O7    O     O_R   0.593800 0.493820 0.626800 -0.596965
O8    O     O_R   0.406200 0.506180 0.373200 -0.610216
C3    C     C_R   0.501305 0.497282 0.672871 0.978360
C4    C     C_R   0.498429 0.498293 0.327000 0.986587
Zn1   Zn    Zn3+2 0.374730 0.508290 0.507150 1.063138
Zn2   Zn    Zn3+2 0.625270 0.491710 0.492850 1.070141
C5    C     C_R   0.534871 0.410330 0.180784 -0.104990
C6    C     C_R   0.480405 0.589888 0.819175 -0.097033
C7    C     C_R   0.497174 0.496973 0.230776 -0.246620
C8    C     C_R   0.508847 0.500433 0.769010 -0.251020
C9    C     C_R   0.468496 0.586213 0.189840 0.290221
C10   C     C_R   0.554884 0.417229 0.808248 0.263796
C11   C     C_R   0.493503 0.596195 0.097836 -0.038193
C12   C     C_R   0.572697 0.422804 0.901055 -0.041065
C13   C     C_R   0.533329 0.509603 0.046644 0.050348
C14   C     C_R   0.537875 0.510979 0.952798 0.053265
C15   C     C_R   0.562279 0.419371 0.088741 0.026509
C16   C     C_R   0.502529 0.598887 0.910902 0.012234
C17   C     C_R   0.484699 0.691552 0.056157 -0.104175
C18   C     C_R   0.625910 0.344201 0.943639 -0.108598
C19   C     C_R   0.491932 0.693333 0.961952 -0.101088
C20   C     C_R   0.621327 0.342753 0.038113 -0.081242
C21   C     C_R   0.463293 0.185320 0.490369 -0.166042
C22   C     C_R   0.531401 0.810433 0.479857 -0.150638
C23   C     C_R   0.622351 0.956146 0.404135 -0.142930
C24   C     C_R   0.342787 0.028678 0.490819 -0.147863
C25   C     C_R   0.618996 0.850658 0.423205 -0.080687
C26   C     C_R   0.355656 0.136288 0.503629 -0.100504
C27   C     C_R   0.442585 0.872545 0.508052 -0.034711
C28   C     C_R   0.554584 0.125698 0.458956 -0.031009
C29   C     C_R   0.438492 0.971408 0.475603 0.056278
C30   C     C_R   0.537698 0.018771 0.442031 0.023675
N1    N     N_R   0.207800 0.519350 0.516680 -0.174519
N2    N     N_R   0.792200 0.480650 0.483320 -0.178148
C31   C     C_R   0.951098 0.420532 0.399823 0.238324
C32   C     C_R   0.049177 0.580570 0.600150 0.232238
C33   C     C_R   0.836761 0.429982 0.410521 0.000014
C34   C     C_R   0.163481 0.570029 0.589580 0.025801
C35   C     C_R   0.857886 0.528830 0.547280 0.039351
C36   C     C_R   0.141932 0.473210 0.451933 0.034407
C37   C     C_R   0.976223 0.528409 0.537709 -0.121122
C38   C     C_R   0.023703 0.472753 0.462318 -0.118428
H1    H     H_    0.218278 0.606335 0.638499 0.197821
H2    H     H_    0.782325 0.394101 0.361127 0.224255
C39   C     C_2   0.522668 0.306555 0.220630 0.901003
O9    O     O_2   0.560899 0.292272 0.293245 -0.595342
O10   O     O_R   0.466621 0.224991 0.174053 -0.733618
H3    H     H_    0.463431 0.158385 0.207440 0.388042
C40   C     C_2   0.415652 0.667365 0.777283 0.932191
O11   O     O_2   0.455665 0.712603 0.712752 -0.616552
O12   O     O_R   0.309293 0.687946 0.812176 -0.725617
H4    H     H_    0.271274 0.739573 0.776508 0.372876
N3    N     N_R   0.989560 0.352888 0.327888 0.199462
O13   O     O_R   0.973235 0.374412 0.245317 -0.301798
O14   O     O_R   0.018585 0.260706 0.345203 -0.283139
N4    N     N_R   0.011658 0.649909 0.671284 0.199736
O15   O     O_R   0.980500 0.740705 0.651834 -0.283042
O16   O     O_R   0.036277 0.634254 0.753488 -0.301127
N5    N     N_R   0.399667 0.658648 0.238863 0.215224
O17   O     O_R   0.436572 0.712757 0.307790 -0.371943
O18   O     O_R   0.299755 0.671644 0.213252 -0.265242
N6    N     N_R   0.565420 0.321761 0.756120 0.187402
O19   O     O_R   0.645158 0.311852 0.695311 -0.325856
O20   O     O_R   0.492019 0.245878 0.767232 -0.297282
C41   C     C_2   0.484679 0.790748 0.110407 1.021468
O21   O     O_2   0.406306 0.846864 0.108778 -0.481361
O22   O     O_R   0.573776 0.818286 0.164808 -0.740046
H5    H     H_    0.563107 0.885973 0.200187 0.372475
C42   C     C_2   0.699980 0.273784 0.890904 1.023754
O23   O     O_2   0.676919 0.180727 0.885278 -0.488066
O24   O     O_R   0.795025 0.315152 0.846228 -0.726887
H6    H     H_    0.838510 0.260194 0.811671 0.380975
C43   C     C_2   0.506931 0.794225 0.917691 0.939336
O25   O     O_2   0.437852 0.859907 0.929809 -0.502248
O26   O     O_R   0.599532 0.812183 0.859985 -0.731878
H7    H     H_    0.600241 0.882448 0.832613 0.400551
C44   C     C_2   0.691432 0.271435 0.084007 0.936939
O27   O     O_2   0.685553 0.178392 0.065555 -0.531025
O28   O     O_R   0.762202 0.311422 0.150249 -0.740545
H8    H     H_    0.803896 0.255618 0.177911 0.387714
C45   C     C_2   0.671272 0.166907 0.466040 0.988320
O29   O     O_2   0.717843 0.212277 0.403986 -0.572810
O30   O     O_R   0.727771 0.151759 0.543842 -0.711159
H9    H     H_    0.806485 0.183084 0.541181 0.373089
C46   C     C_2   0.372894 0.850341 0.590190 0.958177
O31   O     O_2   0.294002 0.787538 0.587498 -0.594663
O32   O     O_R   0.391524 0.911451 0.668400 -0.719852
H10   H     H_    0.333753 0.897455 0.718132 0.375168
C47   C     C_2   0.258705 0.193699 0.540041 1.051064
O33   O     O_2   0.175978 0.197193 0.495886 -0.532710
O34   O     O_R   0.262171 0.242509 0.625565 -0.733432
H11   H     H_    0.191927 0.279748 0.642817 0.354423
C48   C     C_2   0.705433 0.783281 0.382765 1.019365
O35   O     O_2   0.797876 0.786961 0.413666 -0.527765
O36   O     O_R   0.680010 0.714256 0.310991 -0.751690
H12   H     H_    0.745036 0.671366 0.290139 0.360799
C49   C     C_2   0.703534 0.997835 0.335296 0.937470
O37   O     O_2   0.802005 0.980210 0.337072 -0.514494
O38   O     O_R   0.666345 0.058815 0.268794 -0.758931
H13   H     H_    0.728506 0.082327 0.225527 0.387166
C50   C     C_2   0.230900 0.973629 0.491642 0.990918
O39   O     O_2   0.159988 0.994487 0.549787 -0.535264
O40   O     O_R   0.209351 0.894051 0.427189 -0.703827
H14   H     H_    0.132036 0.860525 0.435196 0.391588
C51   C     C_2   0.195741 0.432511 0.368220 1.047209
O41   O     O_2   0.191300 0.479993 0.299587 -0.537104
O42   O     O_R   0.249891 0.339636 0.366689 -0.743784
H15   H     H_    0.282669 0.319775 0.304964 0.352452
C52   C     C_2   0.803371 0.576464 0.627768 1.041009
O43   O     O_2   0.758383 0.658430 0.623337 -0.534161
O44   O     O_R   0.805466 0.528314 0.709627 -0.729670
H16   H     H_    0.765973 0.568410 0.760410 0.366739

loop_
_geom_bond_atom_site_label_1
_geom_bond_atom_site_label_2
_geom_bond_distance
_ccdc_geom_bond_type
C32   C37   1.431811 A    
O28   H8    1.013402 S    
C3    C8    1.439347 S    
C48   O35   1.222758 D    
C17   C19   1.405447 A    
C41   O21   1.222743 D    
C39   O10   1.398478 S    
O32   H10   1.012594 S    
O10   H3    1.014034 S    
Zn1   N1    2.025057 S    
C47   O33   1.222759 D    
C35   C37   1.429310 A    
C42   O23   1.222878 D    
C32   N4    1.431253 S    
O5    C3    1.295948 A    
C49   O38   1.398075 S    
C28   C45   1.486878 S    
C46   O31   1.221508 D    
O1    C1    1.295006 A    
C5    C39   1.492498 S    
C9    C11   1.403150 A    
C14   C16   1.416025 A    
C52   O44   1.398297 S    
C5    C15   1.407436 A    
O42   H15   1.013768 S    
O4    Zn1   2.021254 S    
N3    O14   1.300794 A    
C43   O26   1.398230 S    
O26   H7    1.013890 S    
C4    C7    1.435363 S    
N1    C34   1.348609 A    
C9    N5    1.437700 S    
N6    O19   1.301088 A    
C45   O30   1.396947 S    
C24   C26   1.399380 A    
Zn2   N2    2.025057 S    
C1    C22   1.457414 S    
C36   C38   1.428261 A    
C2    C21   1.472150 S    
C11   C17   1.418560 A    
O12   H4    1.012259 S    
C46   O32   1.398683 S    
C12   C18   1.418233 A    
C6    C40   1.478212 S    
C41   O22   1.396429 S    
C10   N6    1.437679 S    
O2    C2    1.300979 A    
C47   O34   1.398458 S    
C32   C34   1.394398 A    
C43   O25   1.222514 D    
C42   O24   1.397738 S    
C6    C16   1.403544 A    
C23   C30   1.418400 A    
C44   O28   1.397608 S    
C24   C29   1.408116 A    
C22   C25   1.418861 A    
C23   C49   1.489711 S    
O4    C2    1.300851 A    
O30   H9    1.013949 S    
O7    Zn2   2.017232 S    
C7    C9    1.396814 A    
C33   H2    1.081116 S    
C25   C48   1.483815 S    
C44   O27   1.222499 D    
C34   H1    1.080992 S    
N5    O17   1.298816 A    
N5    O18   1.301106 A    
N2    C33   1.348525 A    
N4    O16   1.301084 A    
O22   H5    1.012816 S    
C19   C43   1.490539 S    
O7    C3    1.287387 A    
O34   H11   1.013906 S    
C35   C52   1.469572 S    
O6    C4    1.292225 A    
C27   C46   1.487485 S    
C22   C27   1.410259 A    
C20   C44   1.490849 S    
C18   C42   1.484708 S    
C31   C33   1.392975 A    
C26   C47   1.487239 S    
O3    Zn2   2.021254 S    
O8    C4    1.289952 A    
C10   C12   1.407896 A    
C11   C13   1.419316 A    
C12   C14   1.419324 A    
O1    Zn1   2.004363 S    
O38   H13   1.013128 S    
C29   C30   1.401624 A    
C31   N3    1.430091 S    
C51   O41   1.222857 D    
C48   O36   1.396650 S    
C15   C20   1.420482 A    
C5    C7    1.402220 A    
O6    Zn2   1.998381 S    
O40   H14   1.013935 S    
O3    C1    1.298948 A    
O8    Zn1   2.017232 S    
O44   H16   1.013980 S    
C31   C38   1.430071 A    
C39   O9    1.220496 D    
C49   O37   1.222671 D    
C21   C28   1.427137 A    
N4    O15   1.301036 A    
C50   O40   1.398578 S    
C27   C29   1.393297 A    
C52   O43   1.221684 D    
C28   C30   1.402098 A    
C40   O11   1.219728 D    
C18   C20   1.408947 A    
C23   C25   1.406336 A    
N1    C36   1.373049 A    
C8    C10   1.399154 A    
N2    C35   1.373644 A    
C13   C15   1.417317 A    
N3    O13   1.300540 A    
O2    Zn2   2.004363 S    
C40   O12   1.397820 S    
C13   C14   1.399541 A    
O24   H6    1.013805 S    
O5    Zn1   1.998380 S    
C16   C19   1.418678 A    
C6    C8    1.398877 A    
C37   C38   1.422613 A    
C50   O39   1.223131 D    
O36   H12   1.013743 S    
C24   C50   1.494784 S    
C21   C26   1.427180 A    
N6    O20   1.301251 A    
C45   O29   1.221214 D    
C17   C41   1.485952 S    
C36   C51   1.470773 S    
C51   O42   1.395798 S    
