data_mof_unit_14299.cif
_audit_creation_date              2012-12-10T17:16:37-0500
_audit_creation_method            fapswitch 2.2
_symmetry_space_group_name_H-M    P1
_symmetry_Int_Tables_number       1
_space_group_crystal_system       triclinic
_cell_length_a                    10.244544
_cell_length_b                    10.639319
_cell_length_c                    10.513929
_cell_angle_alpha                 91.951721
_cell_angle_beta                  92.334757
_cell_angle_gamma                 80.280121
_cell_volume                      1128.14747497

loop_
_atom_site_label
_atom_site_type_symbol
_atom_type_description
_atom_site_fract_x
_atom_site_fract_y
_atom_site_fract_z
_atom_type_partial_charge
C1    C     C_R   0.449271 0.495835 0.265093 0.958657
C2    C     C_R   0.552715 0.489434 0.734375 0.993586
C3    C     C_2   0.436587 0.464786 0.127951 -0.082576
C4    C     C_2   0.577196 0.482183 0.871055 -0.043946
C5    C     C_2   0.542252 0.388230 0.072717 0.396067
C6    C     C_2   0.553178 0.378900 0.931555 0.333969
C7    C     C_2   0.061563 0.525822 0.471349 0.200139
C8    C     C_2   0.923204 0.514187 0.514719 0.207480
C9    C     C_R   0.502980 0.258447 0.512205 0.931294
C10   C     C_R   0.493828 0.739209 0.480190 0.899635
C11   C     C_R   0.744642 0.063714 0.473042 -0.129861
C12   C     C_R   0.240067 0.921871 0.481316 -0.119807
C13   C     C_R   0.839830 0.993715 0.396193 -0.258852
C14   C     C_R   0.138358 0.985237 0.553235 -0.229942
C15   C     C_R   0.810842 0.890890 0.322956 -0.152213
C16   C     C_R   0.154348 0.094831 0.621262 -0.155423
C17   C     C_R   0.687738 0.852734 0.330546 0.261808
C18   C     C_R   0.273504 0.142768 0.619604 0.226097
C19   C     C_R   0.592624 0.920321 0.414762 0.073968
C20   C     C_R   0.381870 0.077262 0.544638 0.047427
C21   C     C_R   0.614085 0.036225 0.472072 0.041493
C22   C     C_R   0.366586 0.958164 0.488765 0.050940
C23   C     C_R   0.479340 0.873850 0.447467 -0.251506
C24   C     C_R   0.504346 0.121184 0.523427 -0.237447
H1    H     H_    0.073904 0.140859 0.679372 0.143634
H2    H     H_    0.884280 0.841401 0.259282 0.140351
H3    H     H_    0.775641 0.138190 0.533486 0.168905
H4    H     H_    0.220303 0.840700 0.423279 0.160476
H5    H     H_    0.934705 0.023201 0.388073 0.159674
H6    H     H_    0.048466 0.946078 0.560659 0.158210
H7    H     H_    0.880398 0.398529 0.369903 0.148035
H8    H     H_    0.138843 0.550865 0.646403 0.150799
N1    N     N_2   0.157300 0.551390 0.551120 -0.199952
N2    N     N_2   0.842700 0.448610 0.448880 -0.204792
O1    O     O_R   0.568940 0.489660 0.307530 -0.586600
O2    O     O_R   0.431060 0.510340 0.692470 -0.626190
O3    O     O_R   0.348880 0.522640 0.340350 -0.618400
O4    O     O_R   0.651120 0.477360 0.659650 -0.614196
O5    O     O_R   0.610030 0.300280 0.483580 -0.602353
O6    O     O_R   0.389970 0.699720 0.516420 -0.609878
O7    O     O_R   0.389970 0.333270 0.516400 -0.605509
O8    O     O_R   0.610030 0.666730 0.483600 -0.613190
Zn1   Zn    Zn3+2 0.646940 0.477980 0.478080 0.935240
Zn2   Zn    Zn3+2 0.353060 0.522020 0.521920 0.923033
C25   C     C_3   0.658222 0.749440 0.237665 -0.908576
H9    H     H_    0.683339 0.772899 0.140901 0.231782
H10   H     H_    0.720661 0.657254 0.262499 0.264871
H11   H     H_    0.552000 0.740018 0.233480 0.224741
C26   C     C_3   0.280148 0.249937 0.715995 -0.870623
H12   H     H_    0.255654 0.220947 0.811566 0.214051
H13   H     H_    0.378334 0.276363 0.725966 0.294980
H14   H     H_    0.206819 0.334462 0.689036 0.239485
O9    O     O_3   0.560471 0.263915 0.861171 -0.706851
C27   C     C_3   0.551312 0.157642 0.935500 0.096518
H15   H     H_    0.460413 0.175370 0.992624 0.152656
H16   H     H_    0.641159 0.134432 0.998000 0.194897
C28   C     C_3   0.545740 0.041137 0.848325 -0.360997
H17   H     H_    0.450085 0.052933 0.795234 0.243237
H18   H     H_    0.626703 0.029908 0.779394 0.237719
C29   C     C_3   0.556311 0.920268 0.923277 -0.993574
H19   H     H_    0.490034 0.934944 0.005483 0.275405
H20   H     H_    0.660439 0.889828 0.957354 0.269882
H21   H     H_    0.524972 0.845167 0.859195 0.278673
O10   O     O_3   0.636327 0.311879 0.149594 -0.649456
C30   C     C_3   0.767888 0.315457 0.114359 0.072327
H22   H     H_    0.797341 0.406452 0.150164 0.139683
H23   H     H_    0.781587 0.305969 0.009972 0.151201
C31   C     C_3   0.860687 0.204071 0.174228 -0.331030
H24   H     H_    0.853470 0.212525 0.278900 0.235365
H25   H     H_    0.829863 0.112713 0.141651 0.225202
C32   C     C_3   0.004226 0.201375 0.139154 -1.001539
H26   H     H_    0.014543 0.185943 0.034771 0.269012
H27   H     H_    0.069131 0.122236 0.188532 0.271578
H28   H     H_    0.037013 0.292473 0.168535 0.264020
C33   C     C_3   0.621707 0.594904 0.939546 -1.066978
H29   H     H_    0.704767 0.563018 0.007907 0.251718
H30   H     H_    0.659902 0.655279 0.870700 0.258266
H31   H     H_    0.538176 0.652096 0.990486 0.280397
C34   C     C_3   0.313904 0.525919 0.054292 -1.028480
H32   H     H_    0.225259 0.497756 0.094853 0.263539
H33   H     H_    0.305108 0.631311 0.061940 0.251716
H34   H     H_    0.313872 0.496494 0.952122 0.268970
C35   C     C_3   0.879966 0.584676 0.637466 -0.811370
H35   H     H_    0.883166 0.515604 0.714736 0.231770
H36   H     H_    0.943638 0.655532 0.667492 0.181821
H37   H     H_    0.781542 0.643229 0.628776 0.283421
C36   C     C_3   0.081369 0.522201 0.330456 -0.846089
H38   H     H_    0.987068 0.526529 0.273983 0.180279
H39   H     H_    0.120407 0.608593 0.304301 0.254030
H40   H     H_    0.148080 0.433022 0.303048 0.254072

loop_
_geom_bond_atom_site_label_1
_geom_bond_atom_site_label_2
_ccdc_geom_bond_type
C36   H38   S    
C10   O8    A    
C8    C35   S    
C2    C4    S    
C3    C34   S    
C26   H13   S    
C7    C8    S    
O9    C27   S    
C12   H4    S    
C29   H21   S    
C13   H5    S    
C19   C21   A    
C17   C25   S    
C5    C6    S    
C28   H18   S    
C12   C22   A    
C9    O5    A    
C29   H20   S    
C4    C33   S    
C7    C36   S    
C20   C24   A    
C31   H24   S    
C30   H23   S    
O1    Zn1   S    
C1    O3    A    
C30   C31   S    
C7    N1    D    
C14   H6    S    
C25   H10   S    
C27   H16   S    
C4    C6    D    
C32   H27   S    
C28   C29   S    
O5    Zn1   S    
C3    C5    D    
C25   H9    S    
C11   C21   A    
C5    O10   S    
C29   H19   S    
C1    C3    S    
C19   C23   A    
C33   H29   S    
C32   H28   S    
C2    O4    A    
C35   H35   S    
C11   H3    S    
C26   H14   S    
H7    N2    S    
C8    N2    D    
C33   H30   S    
C16   C18   A    
C35   H36   S    
C12   C14   A    
C26   H12   S    
C13   C15   A    
O7    Zn2   S    
C14   C16   A    
O2    Zn2   S    
O8    Zn1   S    
C21   C24   A    
C6    O9    S    
C1    O1    A    
C34   H33   S    
C25   H11   S    
C2    O2    A    
C16   H1    S    
C15   C17   A    
C27   H15   S    
N1    Zn2   S    
N2    Zn1   S    
C20   C22   A    
C15   H2    S    
C34   H34   S    
C9    C24   S    
C10   C23   S    
C9    O7    A    
H8    N1    S    
O3    Zn2   S    
C36   H39   S    
O4    Zn1   S    
O10   C30   S    
C11   C13   A    
C28   H17   S    
C31   C32   S    
C17   C19   A    
C18   C20   A    
C33   H31   S    
C34   H32   S    
O6    Zn2   S    
C35   H37   S    
C32   H26   S    
C31   H25   S    
C30   H22   S    
C36   H40   S    
C22   C23   A    
C10   O6    A    
C18   C26   S    
C27   C28   S    
