data_mof_unit_22349.cif
_audit_creation_date              2012-12-11T17:30:28-0500
_audit_creation_method            fapswitch 2.2
_symmetry_space_group_name_H-M    P1
_symmetry_Int_Tables_number       1
_space_group_crystal_system       triclinic
_cell_length_a                    25.937677
_cell_length_b                    7.272694
_cell_length_c                    24.173082
_cell_angle_alpha                 90.101687
_cell_angle_beta                  100.787937
_cell_angle_gamma                 89.813417
_cell_volume                      4479.31649266

loop_
_atom_site_label
_atom_site_type_symbol
_atom_type_description
_atom_site_fract_x
_atom_site_fract_y
_atom_site_fract_z
_atom_type_partial_charge
O1    O     O_R   0.192950 0.385540 0.693930 -0.537022
O2    O     O_R   0.807050 0.614460 0.306070 -0.533429
O3    O     O_R   0.307050 0.885540 0.806070 -0.535841
O4    O     O_R   0.692950 0.114460 0.193930 -0.533773
O5    O     O_R   0.296670 0.712560 0.696510 -0.537415
O6    O     O_R   0.703330 0.287440 0.303490 -0.542537
O7    O     O_R   0.203330 0.212560 0.803490 -0.538168
O8    O     O_R   0.796670 0.787440 0.196510 -0.543019
C1    C     C_R   0.313725 0.546288 0.685362 0.745436
C2    C     C_R   0.686468 0.453584 0.314743 0.748465
C3    C     C_R   0.186358 0.046821 0.814583 0.748416
C4    C     C_R   0.813349 0.953029 0.185044 0.748359
O9    O     O_R   0.192700 0.715080 0.687210 -0.539941
O10   O     O_R   0.807300 0.284920 0.312790 -0.535849
O11   O     O_R   0.307300 0.215080 0.812790 -0.540655
O12   O     O_R   0.692700 0.784920 0.187210 -0.535990
O13   O     O_R   0.202340 0.888100 0.796700 -0.511694
O14   O     O_R   0.797660 0.111900 0.203300 -0.509632
O15   O     O_R   0.297660 0.388100 0.703300 -0.515624
O16   O     O_R   0.702340 0.611900 0.296700 -0.509586
C5    C     C_R   0.174598 0.546599 0.672091 0.707709
C6    C     C_R   0.825560 0.453669 0.327820 0.707521
C7    C     C_R   0.325061 0.046269 0.828274 0.691587
C8    C     C_R   0.674459 0.953936 0.172166 0.707805
O17   O     O_3   0.253290 0.552920 0.785930 -0.371804
O18   O     O_3   0.746710 0.447080 0.214070 -0.374925
O19   O     O_3   0.246710 0.052920 0.714070 -0.373775
O20   O     O_3   0.753290 0.947080 0.285930 -0.374528
V1    V     V_3+5 0.249390 0.826720 0.743330 1.428209
V2    V     V_3+5 0.750610 0.173280 0.256670 1.456701
V3    V     V_3+5 0.250610 0.326720 0.756670 1.424008
V4    V     V_3+5 0.749390 0.673280 0.243330 1.456674
C9    C     C_R   0.544651 0.897235 0.993093 0.379606
C10   C     C_R   0.454572 0.093416 0.007375 0.372913
C11   C     C_R   0.956521 0.390280 0.506005 0.378048
C12   C     C_R   0.045758 0.589546 0.491951 0.367977
C13   C     C_R   0.544155 0.988415 0.044425 -0.216265
C14   C     C_R   0.455052 0.003608 0.955607 -0.225524
C15   C     C_R   0.956357 0.484110 0.455067 -0.215645
C16   C     C_R   0.045673 0.499201 0.543624 -0.229637
C17   C     C_R   0.498748 0.086986 0.051326 0.294404
C18   C     C_R   0.500034 0.897497 0.949362 0.303249
C19   C     C_R   0.001504 0.582946 0.448119 0.297001
C20   C     C_R   0.001404 0.389689 0.549426 0.302211
C21   C     C_1   0.590513 0.978701 0.089418 0.092148
C22   C     C_1   0.409214 0.023220 0.910519 0.081410
C23   C     C_1   0.909754 0.476014 0.410340 0.093120
C24   C     C_1   0.091090 0.521633 0.589104 0.090666
C25   C     C_1   0.370592 0.035841 0.873375 -0.238923
C26   C     C_1   0.628970 0.966367 0.126849 -0.192594
C27   C     C_1   0.129337 0.536130 0.626634 -0.235795
C28   C     C_1   0.871157 0.465095 0.373042 -0.192352
C29   C     C_R   0.889257 0.110966 0.151507 0.357242
C30   C     C_R   0.111699 0.885019 0.849575 0.360214
C31   C     C_R   0.610877 0.616448 0.348152 0.361912
C32   C     C_R   0.387644 0.381066 0.647692 0.368876
C33   C     C_R   0.927175 0.116058 0.116314 0.329659
C34   C     C_R   0.074822 0.876916 0.885654 0.354188
C35   C     C_R   0.572797 0.624427 0.383096 0.322756
C36   C     C_R   0.423537 0.373806 0.610362 0.353455
C37   C     C_R   0.929968 0.970869 0.077635 -0.222334
C38   C     C_R   0.071422 0.021667 0.924035 -0.254562
C39   C     C_R   0.568124 0.476654 0.420027 -0.224287
C40   C     C_R   0.427187 0.523469 0.573771 -0.256879
C41   C     C_R   0.896882 0.816847 0.077080 0.421035
C42   C     C_R   0.103926 0.177102 0.923920 0.418481
C43   C     C_R   0.600181 0.319728 0.419981 0.419365
C44   C     C_R   0.395907 0.681081 0.576545 0.418523
C45   C     C_R   0.860469 0.811697 0.113689 -0.324419
C46   C     C_R   0.140167 0.184574 0.887472 -0.295974
C47   C     C_R   0.637479 0.313194 0.384453 -0.319502
C48   C     C_R   0.360714 0.687503 0.614080 -0.289211
H1    H     H_    0.836013 0.691587 0.113781 0.176955
H2    H     H_    0.164682 0.305345 0.888577 0.187803
H3    H     H_    0.661352 0.190992 0.384345 0.179621
H4    H     H_    0.336969 0.810074 0.614647 0.193336
C49   C     C_R   0.854349 0.960556 0.148908 -0.252109
C50   C     C_R   0.145851 0.037716 0.851214 -0.285740
C51   C     C_R   0.644991 0.462929 0.350320 -0.256765
C52   C     C_R   0.354445 0.537018 0.648626 -0.289905
N1    N     N_R   0.995075 0.835231 0.026260 -0.229674
N2    N     N_R   0.005552 0.156575 0.974505 -0.234106
N3    N     N_R   0.497096 0.350396 0.463915 -0.249798
N4    N     N_R   0.496600 0.653078 0.528102 -0.244014
N5    N     N_R   0.028600 0.848046 0.990843 -0.252074
N6    N     N_R   0.971886 0.143602 0.009782 -0.264221
N7    N     N_R   0.463392 0.363053 0.499181 -0.277068
N8    N     N_R   0.530240 0.640583 0.492755 -0.276651
C53   C     C_R   0.034720 0.009118 0.964399 0.528197
C54   C     C_R   0.966043 0.982829 0.036553 0.543002
C55   C     C_R   0.462653 0.514170 0.532194 0.541616
C56   C     C_R   0.531371 0.488580 0.460190 0.554983
O21   O     O_3   0.505430 0.802514 0.900598 -0.552952
C57   C     C_3   0.462654 0.687952 0.877419 0.103814
H5    H     H_    0.476860 0.596164 0.846801 0.126105
H6    H     H_    0.431311 0.767544 0.850543 0.116963
C58   C     C_3   0.441611 0.563785 0.919916 -0.327438
H7    H     H_    0.469637 0.448992 0.932910 0.207350
H8    H     H_    0.436406 0.638986 0.958423 0.197985
C59   C     C_3   0.388249 0.486737 0.893057 -0.753523
H9    H     H_    0.359504 0.600081 0.881309 0.226659
H10   H     H_    0.373314 0.396238 0.923336 0.266169
H11   H     H_    0.391767 0.407495 0.854704 0.215810
O22   O     O_3   0.497824 0.192330 0.098861 -0.548881
C60   C     C_3   0.491825 0.079126 0.144700 0.106970
H12   H     H_    0.530991 0.058588 0.171515 0.121366
H13   H     H_    0.474326 0.941905 0.131809 0.092239
C61   C     C_3   0.456328 0.176332 0.179471 -0.275366
H14   H     H_    0.471338 0.316482 0.190831 0.206721
H15   H     H_    0.416083 0.189096 0.154137 0.195989
C62   C     C_3   0.454062 0.071895 0.233565 -0.896237
H16   H     H_    0.441172 0.927897 0.224009 0.225928
H17   H     H_    0.425781 0.140363 0.256214 0.236633
H18   H     H_    0.493328 0.072116 0.261378 0.243077
O23   O     O_3   0.997314 0.287699 0.597209 -0.554238
C63   C     C_3   0.041130 0.174228 0.618369 0.106545
H19   H     H_    0.028080 0.075416 0.647857 0.120641
H20   H     H_    0.071919 0.253679 0.646023 0.122996
C64   C     C_3   0.062663 0.058696 0.573890 -0.320514
H21   H     H_    0.036955 0.937463 0.562107 0.206958
H22   H     H_    0.064142 0.136197 0.534794 0.197776
C65   C     C_3   0.118343 0.994661 0.597720 -0.760467
H23   H     H_    0.145115 0.114535 0.606025 0.223692
H24   H     H_    0.132860 0.902671 0.567351 0.266478
H25   H     H_    0.118829 0.920032 0.637645 0.219210
O24   O     O_3   0.002183 0.687482 0.400488 -0.548931
C66   C     C_3   0.008390 0.573372 0.354750 0.107687
H26   H     H_    0.969292 0.552972 0.327839 0.120691
H27   H     H_    0.025933 0.436023 0.367756 0.092003
C67   C     C_3   0.043938 0.669382 0.320038 -0.276104
H28   H     H_    0.028676 0.809173 0.308260 0.206010
H29   H     H_    0.084046 0.682909 0.345603 0.196771
C68   C     C_3   0.046792 0.563175 0.266267 -0.895981
H30   H     H_    0.059847 0.419381 0.276235 0.225784
H31   H     H_    0.075205 0.630654 0.243778 0.235963
H32   H     H_    0.007702 0.562832 0.238110 0.243845
O25   O     O_3   0.588372 0.796176 0.986453 -0.523153
C69   C     C_3   0.621610 0.910329 0.961715 -0.164993
H33   H     H_    0.635293 0.030610 0.989027 0.118341
H34   H     H_    0.602055 0.957619 0.919147 0.151812
H35   H     H_    0.656822 0.829819 0.956618 0.143939
O26   O     O_3   0.411896 0.199306 0.014600 -0.527759
C70   C     C_3   0.373812 0.083725 0.030979 -0.229034
H36   H     H_    0.355321 0.993283 0.995773 0.133510
H37   H     H_    0.342391 0.171040 0.042703 0.148937
H38   H     H_    0.390358 0.998559 0.068303 0.119729
O27   O     O_3   0.913351 0.286802 0.512347 -0.522463
C71   C     C_3   0.880090 0.397275 0.538546 -0.167001
H39   H     H_    0.865780 0.519566 0.512429 0.118724
H40   H     H_    0.899899 0.441227 0.581380 0.147619
H41   H     H_    0.845262 0.314985 0.543335 0.144621
O28   O     O_3   0.088202 0.695164 0.484534 -0.528891
C72   C     C_3   0.126611 0.579011 0.468575 -0.233224
H42   H     H_    0.145280 0.489990 0.504071 0.133632
H43   H     H_    0.157842 0.665925 0.456652 0.148872
H44   H     H_    0.110316 0.492387 0.431476 0.121148
O29   O     O_3   0.884009 0.258105 0.186575 -0.549235
C73   C     C_3   0.923466 0.254354 0.235836 0.118316
H45   H     H_    0.917439 0.378584 0.260487 0.121418
H46   H     H_    0.963159 0.266711 0.225846 0.135606
C74   C     C_3   0.920806 0.084869 0.273295 -0.384946
H47   H     H_    0.880992 0.072411 0.283350 0.220511
H48   H     H_    0.929771 0.957958 0.251203 0.178135
C75   C     C_3   0.960297 0.099435 0.328289 -0.810885
H49   H     H_    0.000734 0.114210 0.319925 0.215594
H50   H     H_    0.958006 0.974621 0.353865 0.285481
H51   H     H_    0.951148 0.219256 0.352835 0.226487
O30   O     O_3   0.112823 0.742612 0.811764 -0.540508
C76   C     C_3   0.081362 0.789360 0.759141 0.117405
H52   H     H_    0.107368 0.829169 0.729648 0.111367
H53   H     H_    0.054057 0.907537 0.761064 0.069610
C77   C     C_3   0.049212 0.621635 0.735314 -0.278179
H54   H     H_    0.075776 0.514102 0.723676 0.179105
H55   H     H_    0.029059 0.563064 0.767912 0.217108
C78   C     C_3   0.007975 0.672304 0.683836 -0.851101
H56   H     H_    0.980616 0.777816 0.695065 0.223370
H57   H     H_    0.984839 0.548674 0.668182 0.264371
H58   H     H_    0.027028 0.726608 0.649836 0.238060
O31   O     O_3   0.616428 0.762476 0.313015 -0.548326
C79   C     C_3   0.576553 0.759647 0.264094 0.117671
H59   H     H_    0.582114 0.884253 0.239586 0.121964
H60   H     H_    0.536967 0.771303 0.274593 0.133194
C80   C     C_3   0.579166 0.590448 0.226289 -0.383397
H61   H     H_    0.618931 0.577442 0.216078 0.220904
H62   H     H_    0.570358 0.463507 0.248237 0.178350
C81   C     C_3   0.539492 0.605691 0.171450 -0.812874
H63   H     H_    0.499134 0.621803 0.180020 0.215950
H64   H     H_    0.541577 0.480534 0.145800 0.284923
H65   H     H_    0.548636 0.724924 0.146879 0.226413
O32   O     O_3   0.383400 0.227632 0.680332 -0.543229
C82   C     C_3   0.409124 0.258037 0.736669 0.153833
H66   H     H_    0.389192 0.170633 0.763439 0.136057
H67   H     H_    0.405942 0.402382 0.751399 0.052886
C83   C     C_3   0.466806 0.199256 0.745491 -0.355137
H68   H     H_    0.470361 0.070856 0.721492 0.235665
H69   H     H_    0.489865 0.310125 0.730298 0.180553
C84   C     C_3   0.489575 0.163375 0.807347 -0.817192
H70   H     H_    0.484966 0.285521 0.833399 0.226808
H71   H     H_    0.531957 0.129402 0.812348 0.240540
H72   H     H_    0.469168 0.045587 0.822385 0.253357
O33   O     O_3   0.958862 0.270246 0.118127 -0.513401
C85   C     C_3   0.011762 0.223904 0.140505 -0.199124
H73   H     H_    0.033569 0.191572 0.106409 0.155704
H74   H     H_    0.016168 0.108095 0.171269 0.088884
H75   H     H_    0.031079 0.345698 0.162859 0.156011
O34   O     O_3   0.044005 0.721014 0.884266 -0.505814
C86   C     C_3   0.992430 0.760640 0.855891 -0.136849
H76   H     H_    0.991465 0.839726 0.816372 0.086701
H77   H     H_    0.969905 0.835662 0.883575 0.137257
H78   H     H_    0.971862 0.628765 0.844209 0.154098
O35   O     O_3   0.543262 0.784122 0.383047 -0.513975
C87   C     C_3   0.489444 0.748765 0.362208 -0.187844
H79   H     H_    0.468077 0.728688 0.397369 0.159759
H80   H     H_    0.482259 0.629496 0.332690 0.086670
H81   H     H_    0.471932 0.871816 0.338955 0.156059
O36   O     O_3   0.451543 0.211607 0.607720 -0.506493
C88   C     C_3   0.506381 0.240830 0.622992 -0.139040
H82   H     H_    0.517649 0.375901 0.643622 0.074566
H83   H     H_    0.524939 0.226560 0.585462 0.180441
H84   H     H_    0.523603 0.131044 0.652577 0.134953
O37   O     O_3   0.903173 0.667734 0.042868 -0.528012
C89   C     C_3   0.855178 0.613351 0.008556 0.125007
H85   H     H_    0.860528 0.617340 0.964031 0.134526
H86   H     H_    0.821186 0.705671 0.010976 0.078047
C90   C     C_3   0.842609 0.415520 0.022870 -0.255548
H87   H     H_    0.874624 0.323204 0.014882 0.230289
H88   H     H_    0.840192 0.405469 0.068136 0.211220
C91   C     C_3   0.790849 0.350746 0.987580 -0.886161
H89   H     H_    0.757953 0.438287 0.995907 0.240564
H90   H     H_    0.783360 0.206494 0.998782 0.232986
H91   H     H_    0.792576 0.356541 0.942048 0.235800
O38   O     O_3   0.099408 0.326315 0.958174 -0.512588
C92   C     C_3   0.135163 0.303963 0.009498 0.135563
H92   H     H_    0.125531 0.178390 0.031845 0.057976
H93   H     H_    0.176309 0.291978 0.002405 0.088022
C93   C     C_3   0.131185 0.469423 0.047624 -0.261966
H94   H     H_    0.089628 0.489218 0.052097 0.233476
H95   H     H_    0.154839 0.441996 0.090116 0.118590
C94   C     C_3   0.151257 0.644976 0.024376 -0.673979
H96   H     H_    0.193541 0.630732 0.022485 0.190099
H97   H     H_    0.146324 0.762783 0.052225 0.191661
H98   H     H_    0.128900 0.674296 0.981523 0.276147
O39   O     O_3   0.592706 0.169809 0.453060 -0.528492
C95   C     C_3   0.639442 0.121708 0.490842 0.120422
H99   H     H_    0.631244 0.129783 0.534287 0.128523
H100  H     H_    0.673330 0.215275 0.489832 0.079710
C96   C     C_3   0.654621 0.923587 0.479499 -0.250167
H101  H     H_    0.622474 0.830022 0.485760 0.233788
H102  H     H_    0.660177 0.909859 0.435229 0.208273
C97   C     C_3   0.705068 0.865256 0.518772 -0.886715
H103  H     H_    0.738197 0.954086 0.512324 0.239132
H104  H     H_    0.714516 0.720589 0.509636 0.233295
H105  H     H_    0.700211 0.874954 0.563376 0.236123
O40   O     O_3   0.399809 0.832142 0.542955 -0.511513
C98   C     C_3   0.364123 0.810519 0.491506 0.130943
H106  H     H_    0.374972 0.688633 0.468115 0.061012
H107  H     H_    0.323154 0.792265 0.498545 0.089007
C99   C     C_3   0.366209 0.979955 0.454619 -0.259475
H108  H     H_    0.407657 0.008939 0.451587 0.236435
H109  H     H_    0.344099 0.951482 0.411479 0.118980
C100  C     C_3   0.342252 0.148610 0.477940 -0.675138
H110  H     H_    0.299880 0.125874 0.477668 0.189128
H111  H     H_    0.346413 0.270276 0.451451 0.195127
H112  H     H_    0.362484 0.177290 0.521662 0.275134

loop_
_geom_bond_atom_site_label_1
_geom_bond_atom_site_label_2
_ccdc_geom_bond_type
C34   C38   A    
C70   H38   S    
N3    N7    A    
C82   H67   S    
C98   H107  S    
O1    C5    A    
O32   C82   S    
C13   C21   S    
C31   C35   A    
O19   V1    S    
C18   O21   S    
O13   V1    S    
C76   H52   S    
C60   H12   S    
O3    C7    A    
O27   C71   S    
C71   H41   S    
C48   H4    S    
O15   V3    S    
C58   C59   S    
C41   O37   S    
C74   H47   S    
C78   H57   S    
C89   C90   S    
C61   H14   S    
C88   H84   S    
O7    C3    A    
N3    C56   A    
C60   H13   S    
C22   C25   T    
O5    C1    A    
O24   C66   S    
N2    C53   A    
C85   H74   S    
C13   C17   A    
C9    C18   A    
C40   C44   A    
C15   C23   S    
C75   H49   S    
C94   H96   S    
C71   H40   S    
C14   C18   A    
N7    C55   A    
C80   H62   S    
O16   V4    S    
C11   C15   A    
O4    C8    A    
C96   C97   S    
C83   C84   S    
C46   C50   A    
C34   O34   S    
C97   H104  S    
O39   C95   S    
C93   H95   S    
C38   C53   S    
C42   O38   S    
C98   H106  S    
O1    V3    S    
C90   C91   S    
C93   H94   S    
O2    V4    S    
O33   C85   S    
C33   C37   A    
O3    V1    S    
C16   C24   S    
C59   H9    S    
C73   C74   S    
C58   H8    S    
C45   C49   A    
C1    O15   A    
O29   C73   S    
C10   O26   S    
N8    C56   A    
C20   O23   S    
C2    O16   A    
C35   O35   S    
C85   H75   S    
C39   C56   S    
O2    C6    A    
C86   H78   S    
C45   H1    S    
O14   V2    S    
N4    C55   A    
C61   C62   S    
C72   H43   S    
C92   H92   S    
C65   H25   S    
C77   C78   S    
O8    C4    A    
C57   H6    S    
C97   H105  S    
O11   C7    A    
C83   H68   S    
C98   C99   S    
O12   C8    A    
C73   H46   S    
C76   H53   S    
C62   H18   S    
C57   H5    S    
C10   C17   A    
O10   V2    S    
C19   O24   S    
C91   H90   S    
O22   C60   S    
C74   H48   S    
C77   H55   S    
C58   H7    S    
C78   H58   S    
O5    V1    S    
C24   C27   T    
C95   H99   S    
C60   C61   S    
C32   O32   S    
O7    V3    S    
C85   H73   S    
C38   C42   A    
C86   H76   S    
O8    V4    S    
C12   C16   A    
O36   C88   S    
C66   C67   S    
C94   H97   S    
N6    C54   A    
C80   C81   S    
C9    O25   S    
C100  H111  S    
C43   O39   S    
O34   C86   S    
C12   O28   S    
C15   C19   A    
C57   C58   S    
C97   H103  S    
N2    N6    A    
C59   H11   S    
C9    C13   A    
C47   C51   A    
C82   H66   S    
C1    C52   S    
C73   H45   S    
C84   H72   S    
C67   H29   S    
C80   H61   S    
C66   H27   S    
C39   C43   A    
C46   H2    S    
O37   C89   S    
C3    C50   S    
C44   O40   S    
C68   H32   S    
C79   C80   S    
C31   C51   A    
O35   C87   S    
C87   H81   S    
C44   C48   A    
C4    C49   S    
C29   C49   A    
C59   H10   S    
C90   H87   S    
C96   H102  S    
O9    C5    A    
C62   H17   S    
O21   C57   S    
C11   O27   S    
C71   H39   S    
C72   H44   S    
C89   H86   S    
C11   C20   A    
C92   H93   S    
C8    C26   S    
C64   H22   S    
C69   H34   S    
C81   H63   S    
N1    C54   A    
O30   C76   S    
O6    V2    S    
C87   H80   S    
C68   H30   S    
C76   C77   S    
C67   C68   S    
O12   V4    S    
C65   H24   S    
C66   H26   S    
C83   H69   S    
C99   H109  S    
C5    C27   S    
C74   C75   S    
C37   C54   S    
C6    C28   S    
C30   C34   A    
C64   C65   S    
O9    V1    S    
C70   H37   S    
C95   H100  S    
C3    O13   A    
N5    C53   A    
C79   H60   S    
C62   H16   S    
C10   C14   A    
C31   O31   S    
O17   V3    S    
C75   H51   S    
N4    N8    A    
C30   O30   S    
C29   O29   S    
C69   H35   S    
C29   C33   A    
O6    C2    A    
C100  H112  S    
C2    C51   S    
C63   C64   S    
O11   V3    S    
C23   C28   T    
O18   V4    S    
O31   C79   S    
C88   H83   S    
O25   C69   S    
C35   C39   A    
C32   C52   A    
C17   O22   S    
C36   C40   A    
O10   C6    A    
O40   C98   S    
C84   H71   S    
C67   H28   S    
C65   H23   S    
C82   C83   S    
O20   V2    S    
C48   C52   A    
C78   H56   S    
C47   H3    S    
O23   C63   S    
C42   C46   A    
C61   H15   S    
C21   C26   T    
C81   H65   S    
C41   C45   A    
C88   H82   S    
C75   H50   S    
O38   C92   S    
C90   H88   S    
C63   H20   S    
C63   H19   S    
C99   H108  S    
C94   H98   S    
C43   C47   A    
C91   H91   S    
C37   C41   A    
C36   O36   S    
C84   H70   S    
C92   C93   S    
O4    V2    S    
C14   C22   S    
C7    C25   S    
C69   H33   S    
C91   H89   S    
C77   H54   S    
C99   C100  S    
C32   C36   A    
C16   C20   A    
O28   C72   S    
C64   H21   S    
C4    O14   A    
C86   H77   S    
C68   H31   S    
C100  H110  S    
O26   C70   S    
C12   C19   A    
C40   C55   S    
C95   C96   S    
C72   H42   S    
C81   H64   S    
C89   H85   S    
C93   C94   S    
N1    N5    A    
C79   H59   S    
C70   H36   S    
C96   H101  S    
C87   H79   S    
C30   C50   A    
C33   O33   S    
