data_mof_unit_12224.cif
_audit_creation_date              2012-10-26T20:58:19-0400
_audit_creation_method            fapswitch 2.2
_symmetry_space_group_name_H-M    P1
_symmetry_Int_Tables_number       1
_space_group_crystal_system       triclinic
_cell_length_a                    10.754124
_cell_length_b                    14.96163
_cell_length_c                    15.343883
_cell_angle_alpha                 62.638496
_cell_angle_beta                  110.00412
_cell_angle_gamma                 105.07814
_cell_volume                      2044.60792635

loop_
_atom_site_label
_atom_site_type_symbol
_atom_type_description
_atom_site_fract_x
_atom_site_fract_y
_atom_site_fract_z
_atom_type_partial_charge
C1    C     C_R   0.490430 0.119914 0.314348 0.551569
C2    C     C_R   0.495060 0.530828 0.946933 0.016150
C3    C     C_R   0.516193 0.497526 0.881966 -0.067100
C4    C     C_R   0.470058 0.493566 0.110916 -0.066119
C5    C     C_R   0.516744 0.395250 0.907771 0.068646
C6    C     C_R   0.475023 0.595988 0.086416 0.076335
C7    C     C_R   0.774502 0.316954 0.613438 -0.001396
C8    C     C_R   0.230755 0.693312 0.367198 0.001759
C9    C     C_R   0.711653 0.218155 0.620939 0.164363
C10   C     C_R   0.298224 0.790020 0.365024 0.161014
C11   C     C_R   0.509998 0.284816 0.511077 0.235313
C12   C     C_R   0.511666 0.879445 0.686193 0.549330
C13   C     C_R   0.484216 0.711974 0.493110 0.231141
C14   C     C_R   0.553996 0.374352 0.532207 -0.000100
C15   C     C_R   0.439976 0.623741 0.470016 -0.007243
C16   C     C_R   0.258271 0.998214 0.498566 0.545564
C17   C     C_R   0.742689 0.998759 0.506461 0.547294
C18   C     C_R   0.692467 0.394317 0.575719 0.025718
C19   C     C_R   0.304779 0.608856 0.416885 0.035843
C20   C     C_R   0.469104 0.449788 0.502875 0.038157
C21   C     C_R   0.524064 0.548134 0.499931 0.035062
C22   C     C_R   0.661766 0.570064 0.521615 -0.066109
C23   C     C_R   0.538551 0.292659 0.182014 0.072381
C24   C     C_R   0.330740 0.430414 0.476724 -0.071812
C25   C     C_R   0.743211 0.493604 0.572994 0.098680
C26   C     C_R   0.253214 0.509845 0.417112 0.101480
C27   C     C_3   0.986260 0.940111 0.454891 0.097828
C28   C     C_3   0.017267 0.053327 0.557490 0.098114
C29   C     C_3   0.923715 0.037978 0.413015 -0.013075
C30   C     C_3   0.079425 0.955099 0.599053 -0.002809
C31   C     C_3   0.883146 0.001794 0.511238 0.018210
C32   C     C_3   0.119790 0.991631 0.500630 0.020285
C33   C     C_3   0.945573 0.903566 0.554307 -0.099214
C34   C     C_R   0.461071 0.704069 0.815099 0.073135
C35   C     C_3   0.057436 0.090234 0.457652 -0.102847
C36   C     C_R   0.502885 0.188435 0.209990 -0.014208
C37   C     C_R   0.503321 0.807998 0.791142 -0.013342
C38   C     C_R   0.485106 0.213739 0.036315 -0.013279
C39   C     C_R   0.538049 0.774366 0.969675 -0.007271
C40   C     C_R   0.482852 0.149952 0.138047 -0.164372
C41   C     C_R   0.538803 0.841946 0.868522 -0.162357
C42   C     C_3   0.835070 0.089865 0.306346 -0.233722
C43   C     C_3   0.912891 0.130844 0.226057 -0.307536
C44   C     C_3   0.824480 0.181631 0.119550 -0.436335
C45   C     C_R   0.511211 0.358397 0.078469 0.017684
C46   C     C_3   0.167001 0.898400 0.704980 -0.232663
C47   C     C_3   0.092519 0.857015 0.788045 -0.306850
C48   C     C_3   0.156571 0.769156 0.882112 -0.419781
C49   C     C_3   0.270582 0.880035 0.261868 -0.215479
C50   C     C_3   0.176702 0.951641 0.246126 -0.279073
C51   C     C_3   0.140827 0.028756 0.135828 -0.484012
C52   C     C_3   0.780253 0.127913 0.702527 -0.203316
C53   C     C_3   0.744467 0.093604 0.802400 -0.314787
C54   C     C_3   0.814428 0.161843 0.859195 -0.440146
C55   C     C_3   0.920959 0.344603 0.611012 -0.233186
C56   C     C_R   0.486086 0.634402 0.917427 0.018120
C57   C     C_3   0.026338 0.324462 0.714392 -0.289267
C58   C     C_3   0.163017 0.382153 0.699777 -0.395554
C59   C     C_3   0.082595 0.684684 0.314731 -0.242545
C60   C     C_3   0.998491 0.614470 0.390201 -0.272198
C61   C     C_3   0.851264 0.600568 0.335004 -0.403258
C62   C     C_3   0.458791 0.167032 0.960892 -0.243348
C63   C     C_3   0.408422 0.053111 0.995820 -0.328688
C64   C     C_3   0.367831 0.021354 0.907732 -0.445517
C65   C     C_3   0.593682 0.812565 0.053644 -0.240744
C66   C     C_3   0.703211 0.902709 0.033856 -0.332279
C67   C     C_R   0.503151 0.321382 0.005683 0.035487
C68   C     C_3   0.779137 0.919517 0.129584 -0.452780
C69   C     C_R   0.500952 0.669124 0.992736 0.037355
C70   C     C_R   0.495651 0.460891 0.046922 0.014723
Cu1   Cu    Cu3+1 0.465750 0.918270 0.475680 0.997160
Cu2   Cu    Cu3+1 0.534250 0.081730 0.524320 0.986446
H1    H     H_    0.707788 0.647361 0.504562 0.184436
H2    H     H_    0.785935 0.246953 0.113320 0.200109
H3    H     H_    0.883350 0.209753 0.063005 0.156015
H4    H     H_    0.998042 0.187337 0.240693 0.192534
H5    H     H_    0.952908 0.067271 0.230522 0.175535
H6    H     H_    0.748875 0.034366 0.290860 0.170068
H7    H     H_    0.796807 0.153457 0.303684 0.180817
H8    H     H_    0.146066 0.703395 0.863754 0.203230
H9    H     H_    0.263925 0.791942 0.910319 0.166642
H10   H     H_    0.106564 0.745408 0.943189 0.171241
H11   H     H_    0.093093 0.918688 0.809480 0.177900
H12   H     H_    0.282565 0.353775 0.492379 0.178661
H13   H     H_    0.986857 0.828870 0.760438 0.184831
H14   H     H_    0.198721 0.834727 0.702775 0.184896
H15   H     H_    0.258010 0.949572 0.722399 0.167823
H16   H     H_    0.230265 0.079344 0.114525 0.166177
H17   H     H_    0.093071 0.989744 0.083774 0.149743
H18   H     H_    0.070674 0.077397 0.125769 0.141008
H19   H     H_    0.082908 0.908894 0.264210 0.176897
H20   H     H_    0.219960 0.993165 0.295285 0.218945
H21   H     H_    0.366456 0.921788 0.245767 0.156947
H22   H     H_    0.227083 0.850973 0.201320 0.114867
H23   H     H_    0.901677 0.825632 0.595971 0.184674
H24   H     H_    0.790053 0.240574 0.812112 0.204349
H25   H     H_    0.780044 0.133653 0.928729 0.137848
H26   H     H_    0.923847 0.160601 0.882886 0.144268
H27   H     H_    0.634987 0.089413 0.787558 0.174831
H28   H     H_    0.775311 0.017058 0.851699 0.138456
H29   H     H_    0.754471 0.064028 0.680870 0.197879
H30   H     H_    0.888252 0.141990 0.715298 0.144662
H31   H     H_    0.201108 0.354668 0.658878 0.194658
H32   H     H_    0.157610 0.464651 0.655384 0.209008
H33   H     H_    0.234734 0.369948 0.775067 0.178281
H34   H     H_    0.100465 0.168463 0.416144 0.180409
H35   H     H_    0.995502 0.345358 0.763723 0.205844
H36   H     H_    0.041163 0.243816 0.757520 0.168985
H37   H     H_    0.939696 0.304841 0.572109 0.196595
H38   H     H_    0.936837 0.424956 0.558983 0.164635
H39   H     H_    0.808259 0.673043 0.298349 0.176209
H40   H     H_    0.839264 0.573757 0.275776 0.206806
H41   H     H_    0.794462 0.543454 0.389658 0.179534
H42   H     H_    0.034130 0.539545 0.436289 0.185450
H43   H     H_    0.010010 0.645503 0.445823 0.229905
H44   H     H_    0.044181 0.758329 0.276501 0.145137
H45   H     H_    0.563746 0.921803 0.848955 0.120136
H46   H     H_    0.065298 0.662848 0.251504 0.185206
H47   H     H_    0.281061 0.059026 0.849444 0.194298
H48   H     H_    0.451309 0.041743 0.872462 0.156804
H49   H     H_    0.338892 0.938361 0.936128 0.147446
H50   H     H_    0.488471 0.008385 0.056593 0.155178
H51   H     H_    0.319875 0.035081 0.025033 0.164105
H52   H     H_    0.381868 0.207308 0.892318 0.189014
H53   H     H_    0.553446 0.177685 0.941534 0.179183
H54   H     H_    0.709794 0.925931 0.165426 0.179943
H55   H     H_    0.837816 0.855579 0.183232 0.180512
H56   H     H_    0.469631 0.069102 0.163288 0.122529
H57   H     H_    0.848897 0.990342 0.109873 0.149143
H58   H     H_    0.775584 0.888727 0.005678 0.171422
H59   H     H_    0.656929 0.972152 0.977542 0.158881
H60   H     H_    0.511398 0.834078 0.065460 0.168871
H61   H     H_    0.639654 0.750622 0.124685 0.186658
H62   H     H_    0.535100 0.551998 0.810108 0.198034
H63   H     H_    0.445463 0.439104 0.180926 0.195321
H64   H     H_    0.739399 0.126523 0.102155 0.149974
I1    I     I_    0.642122 0.702547 0.627915 -0.316477
I2    I     I_    0.082636 0.462398 0.317340 -0.371900
I3    I     I_    0.354186 0.293806 0.375627 -0.317331
I4    I     I_    0.918589 0.828852 0.396493 -0.533313
I5    I     I_    0.095828 0.148013 0.636556 -0.558095
I6    I     I_    0.561852 0.374954 0.793069 -0.469837
I7    I     I_    0.410020 0.624783 0.187039 -0.452612
I8    I     I_    0.304378 0.656670 0.706868 -0.350031
I9    I     I_    0.690740 0.346708 0.287583 -0.355790
I10   I     I_    0.926834 0.543934 0.657468 -0.391618
N1    N     N_R   0.585750 0.204560 0.560800 -0.226738
N2    N     N_R   0.414250 0.795440 0.439200 -0.220813
O1    O     O_R   0.454850 0.022100 0.338110 -0.541533
O2    O     O_R   0.545150 0.977900 0.661890 -0.543318
O3    O     O_R   0.512700 0.160150 0.379180 -0.436907
O4    O     O_R   0.487300 0.839850 0.620820 -0.436941
O5    O     O_R   0.287930 0.931000 0.479440 -0.484252
O6    O     O_R   0.712070 0.069000 0.520560 -0.503030
O7    O     O_R   0.345780 0.069050 0.520520 -0.475498
O8    O     O_R   0.654220 0.930950 0.479480 -0.478993

loop_
_geom_bond_atom_site_label_1
_geom_bond_atom_site_label_2
_ccdc_geom_bond_type
C44   H64   S    
C6    C69   A    
C66   C68   S    
C34   C56   A    
C23   C45   A    
C29   C42   S    
C27   C29   S    
C34   C37   A    
C14   C18   A    
C60   H42   S    
C7    C55   S    
C5    C67   A    
C11   N1    A    
C63   H50   S    
C62   H52   S    
C5    I6    S    
C39   C41   A    
C9    C52   S    
C53   C54   S    
C27   C33   S    
C15   C19   A    
C23   I9    S    
C52   H30   S    
C64   H47   S    
C47   H13   S    
C38   C40   A    
C24   C26   A    
C46   H15   S    
C51   H18   S    
C8    C10   A    
C11   C14   A    
C64   H49   S    
C40   H56   S    
C48   H9    S    
C12   C37   S    
C49   C50   S    
C19   C26   A    
C11   I3    S    
C16   C32   S    
Cu1   O4    S    
C28   C35   S    
C59   H44   S    
C22   C25   A    
C45   C67   A    
C31   C33   S    
C54   H25   S    
C1    O1    A    
C25   I10   S    
C47   H11   S    
C49   H22   S    
C54   H24   S    
Cu2   O3    S    
Cu1   N2    S    
C27   C32   S    
C59   C60   S    
Cu2   O7    S    
C21   C22   A    
C55   H37   S    
C39   C65   S    
C10   C49   S    
C18   C25   A    
C17   O6    A    
C33   H23   S    
C4    C70   A    
C53   H28   S    
C52   H29   S    
C8    C19   A    
Cu2   O6    S    
C42   H7    S    
C32   C35   S    
C12   O2    A    
C36   C40   A    
C4    C6    A    
C13   N2    A    
C26   I2    S    
C9    N1    A    
C53   H27   S    
C38   C62   S    
C60   C61   S    
C13   I1    S    
C44   H3    S    
C43   C44   S    
C62   C63   S    
C14   C20   A    
C47   C48   S    
C7    C18   A    
C34   I8    S    
C16   O7    A    
C50   C51   S    
C39   C69   A    
C38   C67   A    
C44   H2    S    
C68   H55   S    
C4    H63   S    
C50   H20   S    
C57   H35   S    
C56   C69   A    
C59   H46   S    
Cu2   O2    S    
C55   C57   S    
C55   H38   S    
C61   H41   S    
C17   C31   S    
C58   H32   S    
C42   C43   S    
C61   H39   S    
C68   H54   S    
C65   H60   S    
C52   C53   S    
C66   H59   S    
C43   H4    S    
C7    C9    A    
C46   C47   S    
C30   C33   S    
C45   C70   A    
C30   C46   S    
C28   C31   S    
C3    C5    A    
C51   H16   S    
C62   H53   S    
C63   H51   S    
C42   H6    S    
C58   H31   S    
C43   H5    S    
Cu2   N1    S    
C29   C35   S    
C27   I4    S    
C64   H48   S    
C49   H21   S    
C58   H33   S    
C41   H45   S    
C3    H62   S    
C13   C15   A    
C2    C3    A    
C24   H12   S    
Cu1   Cu2   S    
C8    C59   S    
C35   H34   S    
C2    C56   A    
C51   H17   S    
C30   C32   S    
C17   O8    A    
C48   H8    S    
C57   C58   S    
Cu1   O1    S    
Cu1   O8    S    
C28   C30   S    
C48   H10   S    
C1    O3    A    
C65   C66   S    
C37   C41   A    
C68   H57   S    
C63   C64   S    
C50   H19   S    
C15   C21   A    
C57   H36   S    
C20   C21   A    
C29   C31   S    
C23   C36   A    
C12   O4    A    
C16   O5    A    
C54   H26   S    
C60   H43   S    
C28   I5    S    
C22   H1    S    
C66   H58   S    
C6    I7    S    
C2    C70   A    
C61   H40   S    
C20   C24   A    
C65   H61   S    
C1    C36   S    
C10   N2    A    
C46   H14   S    
Cu1   O5    S    
