data_mof_unit_58182.cif
_audit_creation_date              2012-12-10T16:32:41-0500
_audit_creation_method            fapswitch 2.2
_symmetry_space_group_name_H-M    P1
_symmetry_Int_Tables_number       1
_space_group_crystal_system       triclinic
_cell_length_a                    16.909217
_cell_length_b                    16.909222
_cell_length_c                    16.909218
_cell_angle_alpha                 65.780388
_cell_angle_beta                  65.780285
_cell_angle_gamma                 65.78034
_cell_volume                      3847.16573207

loop_
_atom_site_label
_atom_site_type_symbol
_atom_type_description
_atom_site_fract_x
_atom_site_fract_y
_atom_site_fract_z
_atom_type_partial_charge
Br1   Br    Br    0.415901 0.054641 0.725165 -0.405888
Br2   Br    Br    0.415903 0.725165 0.054638 -0.405889
Br3   Br    Br    0.945360 0.584098 0.274835 -0.405888
Br4   Br    Br    0.054644 0.415901 0.725164 -0.405890
Br5   Br    Br    0.584098 0.945359 0.274835 -0.405889
Br6   Br    Br    0.054636 0.725166 0.415903 -0.405888
Br7   Br    Br    0.945357 0.274835 0.584099 -0.405890
Br8   Br    Br    0.725164 0.415901 0.054645 -0.405889
Br9   Br    Br    0.274835 0.584098 0.945359 -0.405888
Br10  Br    Br    0.274835 0.945358 0.584099 -0.405889
Br11  Br    Br    0.725165 0.054642 0.415901 -0.405888
Br12  Br    Br    0.584099 0.274835 0.945358 -0.405890
C1    C     C_R   0.585883 0.044602 0.585883 -0.087810
C2    C     C_R   0.821273 0.563769 0.033594 0.915220
C3    C     C_R   0.436231 0.966407 0.178726 0.915221
C4    C     C_R   0.563769 0.033593 0.821273 0.915220
C5    C     C_R   0.563770 0.821273 0.033593 0.915220
C6    C     C_R   0.436231 0.178727 0.966407 0.915221
C7    C     C_R   0.033594 0.563769 0.821273 0.915219
C8    C     C_R   0.966407 0.436230 0.178726 0.915219
C9    C     C_R   0.821273 0.033593 0.563769 0.915219
C10   C     C_R   0.178727 0.966406 0.436230 0.915220
C11   C     C_R   0.541495 0.022491 0.541495 0.174959
C12   C     C_R   0.414117 0.955398 0.414117 -0.087810
C13   C     C_R   0.458505 0.977509 0.458505 0.174959
C14   C     C_R   0.022490 0.541495 0.541496 0.174961
C15   C     C_R   0.977508 0.458504 0.458505 0.174961
C16   C     C_R   0.541496 0.541495 0.022491 0.174959
C17   C     C_R   0.458505 0.458504 0.977509 0.174959
C18   C     C_R   0.553837 0.931267 0.553834 -0.106659
C19   C     C_R   0.446163 0.068733 0.446166 -0.106660
C20   C     C_R   0.931265 0.553835 0.553836 -0.106660
C21   C     C_R   0.068733 0.446164 0.446165 -0.106660
C22   C     C_R   0.553839 0.553832 0.931267 -0.106660
C23   C     C_R   0.044601 0.585883 0.585884 -0.087810
C24   C     C_R   0.446162 0.446167 0.068733 -0.106659
C25   C     C_R   0.512540 0.908819 0.512537 -0.072951
C26   C     C_R   0.487460 0.091181 0.487463 -0.072951
C27   C     C_R   0.512541 0.512535 0.908819 -0.072951
C28   C     C_R   0.487460 0.487464 0.091181 -0.072951
C29   C     C_R   0.908818 0.512538 0.512539 -0.072952
C30   C     C_R   0.091181 0.487461 0.487463 -0.072951
C31   C     C_R   0.543502 0.048714 0.675312 0.227895
C32   C     C_R   0.456498 0.951286 0.324688 0.227895
C33   C     C_R   0.048712 0.675313 0.543503 0.227894
C34   C     C_R   0.955398 0.414116 0.414117 -0.087810
C35   C     C_R   0.951285 0.324688 0.456498 0.227895
C36   C     C_R   0.675312 0.543502 0.048715 0.227895
C37   C     C_R   0.324688 0.456497 0.951286 0.227895
C38   C     C_R   0.324688 0.951285 0.456498 0.227895
C39   C     C_R   0.675312 0.048715 0.543502 0.227895
C40   C     C_R   0.456498 0.324687 0.951285 0.227895
C41   C     C_R   0.543503 0.675312 0.048713 0.227895
C42   C     C_R   0.951286 0.456497 0.324688 0.227895
C43   C     C_R   0.048715 0.543502 0.675312 0.227895
C44   C     C_R   0.594728 0.049566 0.724106 -0.127261
C45   C     C_R   0.585884 0.585883 0.044602 -0.087810
C46   C     C_R   0.405271 0.950434 0.275894 -0.127261
C47   C     C_R   0.049565 0.724106 0.594729 -0.127261
C48   C     C_R   0.950434 0.275894 0.405271 -0.127261
C49   C     C_R   0.724106 0.594728 0.049566 -0.127261
C50   C     C_R   0.275894 0.405271 0.950434 -0.127261
C51   C     C_R   0.275894 0.950433 0.405271 -0.127261
C52   C     C_R   0.724106 0.049566 0.594728 -0.127261
C53   C     C_R   0.405271 0.275894 0.950434 -0.127261
C54   C     C_R   0.594729 0.724106 0.049565 -0.127261
C55   C     C_R   0.950434 0.405271 0.275894 -0.127261
C56   C     C_R   0.414117 0.414116 0.955398 -0.087810
C57   C     C_R   0.049566 0.594728 0.724106 -0.127261
C58   C     C_R   0.681967 0.054348 0.681967 -0.328398
C59   C     C_R   0.318033 0.945652 0.318032 -0.328399
C60   C     C_R   0.054347 0.681968 0.681968 -0.328397
C61   C     C_R   0.945653 0.318032 0.318032 -0.328398
C62   C     C_R   0.681968 0.681968 0.054348 -0.328398
C63   C     C_R   0.318032 0.318032 0.945652 -0.328398
C64   C     C_R   0.966407 0.178726 0.436230 0.915220
C65   C     C_R   0.033593 0.821273 0.563770 0.915219
C66   C     C_R   0.178727 0.436230 0.966407 0.915219
H1    H     H_    0.477442 0.161742 0.477447 0.154028
H2    H     H_    0.595495 0.595484 0.877644 0.142877
H3    H     H_    0.122356 0.404509 0.404511 0.142876
H4    H     H_    0.877643 0.595490 0.595491 0.142876
H5    H     H_    0.719951 0.055104 0.719951 0.218479
H6    H     H_    0.280049 0.944896 0.280049 0.218479
H7    H     H_    0.055103 0.719951 0.719951 0.218479
H8    H     H_    0.944897 0.280048 0.280048 0.218480
H9    H     H_    0.719951 0.719951 0.055103 0.218479
H10   H     H_    0.280049 0.280049 0.944896 0.218480
H11   H     H_    0.522558 0.838258 0.522553 0.154028
H12   H     H_    0.161742 0.477443 0.477445 0.154027
H13   H     H_    0.838257 0.522556 0.522556 0.154028
H14   H     H_    0.477440 0.477449 0.161742 0.154028
H15   H     H_    0.522561 0.522550 0.838258 0.154028
H16   H     H_    0.404507 0.122355 0.404513 0.142877
H17   H     H_    0.595493 0.877644 0.595487 0.142877
H18   H     H_    0.404505 0.404515 0.122356 0.142877
O1    O     O_R   0.982940 0.138950 0.510160 -0.576481
O2    O     O_R   0.982940 0.510160 0.138950 -0.576481
O3    O     O_R   0.861050 0.017060 0.489840 -0.576481
O4    O     O_R   0.138950 0.982940 0.510160 -0.576480
O5    O     O_R   0.867700 0.025880 0.612340 -0.631219
O6    O     O_R   0.132300 0.974120 0.387660 -0.631220
O7    O     O_R   0.025880 0.612340 0.867700 -0.631219
O8    O     O_R   0.974120 0.387660 0.132300 -0.631219
O9    O     O_R   0.612340 0.867700 0.025880 -0.631219
O10   O     O_R   0.387660 0.132300 0.974120 -0.631219
O11   O     O_R   0.387660 0.974120 0.132300 -0.631219
O12   O     O_R   0.017060 0.861050 0.489840 -0.576481
O13   O     O_R   0.612340 0.025880 0.867700 -0.631219
O14   O     O_R   0.132300 0.387660 0.974120 -0.631219
O15   O     O_R   0.867700 0.612340 0.025880 -0.631219
O16   O     O_R   0.974120 0.132300 0.387660 -0.631219
O17   O     O_R   0.025880 0.867700 0.612340 -0.631219
O18   O     O_R   0.138950 0.510160 0.982940 -0.576481
O19   O     O_R   0.861050 0.489840 0.017060 -0.576481
O20   O     O_R   0.510160 0.982940 0.138950 -0.576481
O21   O     O_R   0.489840 0.017060 0.861050 -0.576481
O22   O     O_R   0.489840 0.861050 0.017060 -0.576481
O23   O     O_R   0.510160 0.138950 0.982940 -0.576481
O24   O     O_R   0.017060 0.489840 0.861050 -0.576481
Zn1   Zn    Zn3+2 0.004880 0.004880 0.583590 1.100945
Zn2   Zn    Zn3+2 0.995120 0.995120 0.416410 1.100945
Zn3   Zn    Zn3+2 0.004880 0.583590 0.004880 1.100945
Zn4   Zn    Zn3+2 0.995120 0.416410 0.995120 1.100945
Zn5   Zn    Zn3+2 0.583590 0.004880 0.004880 1.100946
Zn6   Zn    Zn3+2 0.416410 0.995120 0.995120 1.100945

loop_
_geom_bond_atom_site_label_1
_geom_bond_atom_site_label_2
_ccdc_geom_bond_type
C13   C19   A    
C14   C20   A    
Br6   C33   S    
C8    C55   S    
O7    Zn3   S    
C47   C65   S    
Br8   C36   S    
C60   H7    S    
C36   C45   A    
C16   C45   S    
C15   C21   A    
C6    C53   S    
C17   C24   A    
C5    C54   S    
C21   C30   A    
C37   C50   A    
C37   C56   A    
C9    O3    A    
Br3   C42   S    
C46   C59   A    
C26   H1    S    
C16   C28   A    
C2    O19   A    
C54   C62   A    
C48   C61   A    
C1    C11   S    
O4    Zn1   S    
C3    O11   A    
C15   C29   A    
C27   H15   S    
C9    C52   S    
O1    Zn1   S    
C22   H2    S    
C35   C48   A    
C1    C39   A    
C7    O7    A    
Br1   C31   S    
C32   C46   A    
C20   C29   A    
C55   C61   A    
C52   C58   A    
C62   H9    S    
O21   Zn6   S    
C40   C56   A    
C47   C60   A    
C9    O5    A    
C10   C51   S    
C16   C22   A    
C38   C51   A    
C34   C42   A    
C66   O18   A    
C4    C44   S    
C65   O17   A    
Br12  C40   S    
C4    O13   A    
C12   C38   A    
O2    Zn3   S    
C10   O4    A    
C63   H10   S    
O15   Zn3   S    
C22   C27   A    
C11   C18   A    
C24   C28   A    
Br9   C37   S    
C12   C13   S    
C41   C45   A    
C42   C55   A    
C64   O1    A    
C2    C49   S    
C23   C43   A    
C48   C64   S    
O5    Zn1   S    
C18   C25   A    
C30   H12   S    
Br7   C35   S    
C57   C60   A    
C6    O10   A    
O16   Zn2   S    
C18   H17   S    
C58   H5    S    
C5    O9    A    
C17   C56   S    
C14   C23   S    
C64   O16   A    
C17   C27   A    
O17   Zn1   S    
C66   O14   A    
C28   H14   S    
C2    O15   A    
C41   C54   A    
C43   C57   A    
C5    O22   A    
O3    Zn2   S    
C8    O8    A    
O18   Zn3   S    
O23   Zn5   S    
C15   C34   S    
O13   Zn5   S    
C29   H13   S    
Br5   C32   S    
C51   C59   A    
C7    O24   A    
C44   C58   A    
O20   Zn5   S    
Br4   C43   S    
C12   C32   A    
C3    C46   S    
C50   C63   A    
C7    C57   S    
Br10  C38   S    
C1    C31   A    
C14   C30   A    
C59   H6    S    
C34   C35   A    
C33   C47   A    
O19   Zn4   S    
C50   C66   S    
C65   O12   A    
C39   C52   A    
O11   Zn6   S    
O12   Zn2   S    
Br2   C41   S    
C53   C63   A    
O8    Zn4   S    
O9    Zn5   S    
C49   C62   A    
C11   C26   A    
C20   H4    S    
O10   Zn6   S    
C10   O6    A    
C19   C26   A    
C25   H11   S    
C4    O21   A    
C36   C49   A    
C19   H16   S    
C61   H8    S    
Br11  C39   S    
C31   C44   A    
C8    O2    A    
C3    O20   A    
O14   Zn4   S    
O22   Zn6   S    
O6    Zn2   S    
C21   H3    S    
C6    O23   A    
C40   C53   A    
O24   Zn4   S    
C13   C25   A    
C24   H18   S    
C23   C33   A    
