data_mof_unit_61964.cif
_audit_creation_date              2013-03-05T16:06:17-0500
_audit_creation_method            fapswitch 2.2
_symmetry_space_group_name_H-M    P1
_symmetry_Int_Tables_number       1
_space_group_crystal_system       triclinic
_cell_length_a                    16.05868
_cell_length_b                    16.041655
_cell_length_c                    19.554485
_cell_angle_alpha                 95.387616
_cell_angle_beta                  90.820498
_cell_angle_gamma                 83.993088
_cell_volume                      4987.54610053

loop_
_atom_site_label
_atom_site_type_symbol
_atom_site_description
_atom_site_fract_x
_atom_site_fract_y
_atom_site_fract_z
_atom_type_partial_charge
Zn1   Zn    Zn3+2 0.569660 0.430340 0.558290 0.995924
Zn2   Zn    Zn3+2 0.437560 0.430860 0.436130 0.985442
Zn3   Zn    Zn3+2 0.568560 0.563000 0.447270 0.975358
Zn4   Zn    Zn3+2 0.424220 0.575810 0.558310 0.993035
O1    O     O_3   0.500000 0.500000 0.500000 -0.486420
O2    O     O_R   0.310830 0.559620 0.535340 -0.626842
O3    O     O_R   0.684890 0.444680 0.546270 -0.623305
O4    O     O_R   0.463420 0.314900 0.449800 -0.633556
O5    O     O_R   0.540870 0.680800 0.468590 -0.635863
O6    O     O_R   0.462330 0.445560 0.340470 -0.647835
O7    O     O_R   0.440930 0.559110 0.655640 -0.641636
O8    O     O_R   0.554010 0.538050 0.348260 -0.644867
O9    O     O_R   0.542730 0.457290 0.655630 -0.644820
O10   O     O_R   0.555880 0.314540 0.535300 -0.631030
O11   O     O_R   0.439840 0.689760 0.546310 -0.635652
O12   O     O_R   0.320170 0.458170 0.449830 -0.634993
O13   O     O_R   0.684110 0.537530 0.468570 -0.640711
C1    C     C_R   0.275852 0.510991 0.490872 0.819012
C2    C     C_R   0.724052 0.489081 0.509088 0.822384
C3    C     C_R   0.511718 0.274848 0.490902 0.818102
C4    C     C_R   0.488166 0.725122 0.509139 0.812141
C5    C     C_R   0.509934 0.489687 0.311479 0.796268
C6    C     C_R   0.490480 0.510285 0.688641 0.807439
C7    C     C_R   0.491107 0.517334 0.763876 -0.009566
C8    C     C_R   0.544921 0.460557 0.798420 -0.193845
C9    C     C_R   0.548711 0.468190 0.869621 -0.152983
C10   C     C_R   0.498175 0.532396 0.907601 0.198281
C11   C     C_R   0.445406 0.590141 0.873336 -0.168246
C12   C     C_R   0.441365 0.582358 0.801747 -0.184594
C13   C     C_R   0.546920 0.543821 0.132157 -0.152902
C14   C     C_R   0.547022 0.547391 0.203567 -0.205419
C15   C     C_R   0.480807 0.417626 0.197183 -0.190748
C16   C     C_R   0.481803 0.413475 0.125872 -0.172834
C17   C     C_R   0.513321 0.477225 0.093032 0.199519
C18   C     C_2   0.500289 0.539983 0.983003 -0.233791
C19   C     C_2   0.511958 0.471587 0.017806 -0.232213
C20   C     C_R   0.513030 0.484820 0.236482 -0.002945
H1    H     H_    0.584745 0.410484 0.770455 0.171654
H2    H     H_    0.572629 0.599503 0.232959 0.162659
H3    H     H_    0.455004 0.368173 0.221542 0.163954
H4    H     H_    0.515297 0.409144 0.990466 0.154436
H5    H     H_    0.406609 0.640458 0.902004 0.136760
H6    H     H_    0.573829 0.592502 0.107695 0.136477
H7    H     H_    0.400039 0.627455 0.776126 0.167214
H8    H     H_    0.487298 0.602137 0.010208 0.153485
H9    H     H_    0.592059 0.424439 0.894786 0.139285
H10   H     H_    0.456568 0.361245 0.096286 0.136230
C21   C     C_1   0.186426 0.514483 0.488132 -0.090657
C22   C     C_2   0.021242 0.519603 0.486155 -0.316271
C23   C     C_2   0.978321 0.476394 0.527204 0.336006
C24   C     C_1   0.888441 0.481441 0.519455 -0.056479
C25   C     C_1   0.111214 0.516989 0.486829 0.113013
C26   C     C_1   0.813389 0.485261 0.514018 -0.111205
H11   H     H_    0.987696 0.557320 0.449183 0.143436
C27   C     C_1   0.516335 0.184812 0.487220 -0.126903
C28   C     C_2   0.524603 0.018727 0.480649 -0.161307
C29   C     C_2   0.474770 0.981280 0.519590 -0.156917
C30   C     C_1   0.479294 0.890862 0.516046 0.012552
C31   C     C_1   0.520145 0.109140 0.484187 0.016084
C32   C     C_1   0.483256 0.815179 0.512954 -0.130956
H12   H     H_    0.430178 0.018378 0.554464 0.166022
H13   H     H_    0.569195 0.981617 0.445781 0.162306
N1    N     N_R   0.017839 0.424964 0.577848 0.229502
O14   O     O_R   0.975575 0.371580 0.605029 -0.364866
O15   O     O_R   0.092183 0.436134 0.602003 -0.380802

loop_
_geom_bond_atom_site_label_1
_geom_bond_atom_site_label_2
_geom_bond_distance
_ccdc_geom_bond_type
C24   C26   1.204054 T    
C6    C7    1.464866 S    
N1    O15   1.301262 A    
C29   H12   1.086553 S    
Zn3   O5    1.903685 S    
C27   C31   1.204935 T    
C8    H1    1.083174 S    
Zn1   O10   1.904784 S    
Zn2   O12   1.907086 S    
O10   C3    1.278728 A    
C17   C19   1.465277 S    
C18   C19   1.340018 D    
C28   C31   1.439811 S    
O11   C4    1.279885 A    
C22   C25   1.440950 S    
C10   C18   1.468226 S    
C15   C16   1.390004 A    
C2    C26   1.431779 S    
Zn4   O11   1.907240 S    
C16   C17   1.398337 A    
C19   H4    1.086781 S    
C1    C21   1.431711 S    
C15   C20   1.403555 A    
C28   C29   1.336055 D    
Zn4   O7    1.957592 S    
C23   N1    1.445661 S    
O5    C4    1.279820 A    
C29   C30   1.439821 S    
O4    C3    1.278748 A    
C3    C27   1.433509 S    
Zn1   O1    1.933998 S    
O7    C6    1.269963 A    
C11   C12   1.394888 A    
O13   C2    1.280607 A    
C14   H2    1.083163 S    
Zn3   O13   1.906500 S    
O3    C2    1.278891 A    
C15   H3    1.083210 S    
C12   H7    1.082987 S    
C9    C10   1.403450 A    
C13   C14   1.392154 A    
C16   H10   1.083636 S    
O2    C1    1.276903 A    
C28   H13   1.086562 S    
C13   H6    1.082630 S    
Zn2   O1    1.931890 S    
Zn1   O9    1.956247 S    
C13   C17   1.404666 A    
C30   C32   1.204934 T    
C22   H11   1.087076 S    
C18   H8    1.086586 S    
O8    C5    1.271112 A    
C21   C25   1.204248 T    
C7    C8    1.402401 A    
O9    C6    1.267516 A    
C4    C32   1.433506 S    
O12   C1    1.277121 A    
Zn4   O2    1.907487 S    
C11   H5    1.083386 S    
C10   C11   1.400401 A    
C22   C23   1.349137 D    
C9    H9    1.082643 S    
C7    C12   1.404283 A    
Zn3   O8    1.955589 S    
C23   C24   1.443726 S    
C8    C9    1.387192 A    
Zn1   O3    1.908927 S    
C5    C20   1.462560 S    
O6    C5    1.268029 A    
Zn2   O4    1.905973 S    
N1    O14   1.301531 A    
C14   C20   1.402067 A    
Zn4   O1    1.931208 S    
Zn3   O1    1.938500 S    
Zn2   O6    1.958746 S    
