data_mof_unit_65884.cif
_audit_creation_date              2012-12-10T18:21:56-0500
_audit_creation_method            fapswitch 2.2
_symmetry_space_group_name_H-M    P1
_symmetry_Int_Tables_number       1
_space_group_crystal_system       triclinic
_cell_length_a                    18.501977
_cell_length_b                    18.504443
_cell_length_c                    18.720918
_cell_angle_alpha                 109.330662
_cell_angle_beta                  109.876855
_cell_angle_gamma                 109.039917
_cell_volume                      4943.8947316

loop_
_atom_site_label
_atom_site_type_symbol
_atom_type_description
_atom_site_fract_x
_atom_site_fract_y
_atom_site_fract_z
_atom_type_partial_charge
C1    C     C_R   0.622115 0.621471 0.501012 0.843571
C2    C     C_3   0.810898 0.809611 0.499936 0.125072
C3    C     C_3   0.720425 0.761874 0.414106 -0.430632
C4    C     C_R   0.378839 0.500463 0.378917 0.855055
C5    C     C_3   0.799868 0.853293 0.579387 -0.006258
C6    C     C_3   0.715136 0.427012 0.647880 -0.147883
C7    C     C_3   0.783832 0.426067 0.722380 -0.063672
C8    C     C_3   0.773851 0.592143 0.746100 -0.409571
C9    C     C_3   0.655810 0.477826 0.747113 -0.432979
C10   C     C_3   0.691266 0.499400 0.688055 0.102493
C11   C     C_3   0.810494 0.500285 0.812309 0.115400
C12   C     C_3   0.186246 0.417388 0.192005 -0.164505
C13   C     C_3   0.846238 0.591202 0.816187 -0.432876
C14   C     C_3   0.728217 0.483556 0.823565 -0.375958
C15   C     C_3   0.251170 0.225177 0.407647 -0.386844
C16   C     C_R   0.376082 0.378753 0.497350 0.829199
C17   C     C_3   0.180931 0.154904 0.409781 -0.379103
C18   C     C_3   0.354154 0.290996 0.568788 -0.416570
C19   C     C_3   0.246142 0.343218 0.518963 -0.389374
C20   C     C_3   0.308122 0.310956 0.497888 0.176841
C21   C     C_3   0.189664 0.191099 0.501267 0.148468
C22   C     C_3   0.284251 0.221276 0.571922 -0.366183
C23   C     C_3   0.215220 0.464155 0.290222 -0.155662
C24   C     C_3   0.176041 0.271960 0.520727 -0.399560
C25   C     C_R   0.999537 0.621523 0.120464 0.835134
C26   C     C_R   0.122708 0.500187 0.122534 0.854879
C27   C     C_R   0.002895 0.378551 0.881505 0.856905
C28   C     C_R   0.622469 0.500273 0.620950 0.847832
C29   C     C_R   0.879393 0.502344 0.882032 0.863881
C30   C     C_R   0.003743 0.881387 0.379432 0.845604
C31   C     C_R   0.878554 0.877288 0.498741 0.856475
C32   C     C_R   0.002617 0.124744 0.620544 0.845538
C33   C     C_R   0.121630 0.122365 0.501061 0.841706
C34   C     C_3   0.311558 0.501041 0.311754 0.026980
C35   C     C_3   0.906138 0.672999 0.164269 -0.414363
C36   C     C_3   0.909408 0.745031 0.237713 -0.377516
C37   C     C_3   0.045407 0.692565 0.275843 -0.418160
C38   C     C_3   0.054360 0.781581 0.198836 -0.401016
C39   C     C_3   0.000911 0.690749 0.188561 0.144276
C40   C     C_3   0.315905 0.584423 0.310044 -0.161611
C41   C     C_3   0.007368 0.815477 0.312030 0.108833
C42   C     C_3   0.046055 0.763317 0.348012 -0.418543
C43   C     C_3   0.060820 0.858440 0.272280 0.129838
C44   C     C_3   0.952103 0.218172 0.799483 -0.375456
C45   C     C_3   0.768874 0.672135 0.513330 -0.392008
C46   C     C_3   0.954368 0.149572 0.727876 -0.418350
C47   C     C_3   0.956003 0.310209 0.725762 -0.426504
C48   C     C_3   0.098806 0.333451 0.835661 -0.405965
C49   C     C_3   0.002378 0.311071 0.812217 0.142475
C50   C     C_3   0.002823 0.193926 0.688131 0.114800
C51   C     C_3   0.952862 0.238904 0.650655 -0.118014
C52   C     C_3   0.218186 0.547497 0.287194 -0.150346
C53   C     C_3   0.099098 0.263703 0.763017 -0.401423
C54   C     C_3   0.190493 0.500740 0.190275 0.026747
C55   C     C_3   0.286937 0.537693 0.211915 -0.176187
C56   C     C_3   0.837077 0.739189 0.505997 -0.380875
C57   C     C_3   0.283697 0.454271 0.214682 -0.173978
C58   C     C_R   0.742439 0.429387 0.579378 0.148024
C59   C     C_R   0.686522 0.360172 0.491744 -0.079472
C60   C     C_R   0.709226 0.360103 0.427748 -0.149976
C61   C     C_R   0.788603 0.428252 0.450181 -0.115385
C62   C     C_R   0.845829 0.496075 0.536830 -0.142610
C63   C     C_R   0.823475 0.496417 0.601104 -0.174097
C64   C     C_R   0.160282 0.929945 0.332791 0.092375
C65   C     C_R   0.205607 0.963828 0.293536 -0.145865
C66   C     C_R   0.295822 0.025178 0.341870 -0.155416
C67   C     C_3   0.650625 0.687832 0.413059 -0.420862
C68   C     C_R   0.343835 0.054164 0.430646 -0.110228
C69   C     C_R   0.301464 0.022138 0.471101 -0.157904
C70   C     C_R   0.210759 0.962033 0.423471 -0.183349
C71   C     C_R   0.981086 0.274757 0.595962 0.140825
C72   C     C_R   0.922338 0.233046 0.505312 -0.097447
C73   C     C_R   0.942617 0.268614 0.454941 -0.142140
C74   C     C_R   0.021191 0.346901 0.494277 -0.129965
C75   C     C_R   0.080149 0.389188 0.583894 -0.157893
C76   C     C_R   0.060647 0.353443 0.634452 -0.183086
C77   C     C_3   0.724787 0.782743 0.576662 -0.380499
C78   C     C_3   0.690300 0.689771 0.501278 0.139177
H1    H     H_    0.189509 0.585555 0.314746 0.118030
H2    H     H_    0.370667 0.652554 0.360042 0.131522
H3    H     H_    0.652670 0.363507 0.613397 0.155021
H4    H     H_    0.844326 0.437384 0.717250 0.131003
H5    H     H_    0.797805 0.615011 0.706564 0.157106
H6    H     H_    0.904498 0.606233 0.806925 0.184298
H7    H     H_    0.634181 0.524592 0.774210 0.190388
H8    H     H_    0.597039 0.410544 0.708008 0.164721
H9    H     H_    0.701515 0.421795 0.826051 0.216050
H10   H     H_    0.746833 0.538290 0.886541 0.153824
H11   H     H_    0.756945 0.640895 0.779133 0.197606
H12   H     H_    0.840022 0.704624 0.446649 0.146149
H13   H     H_    0.314725 0.567630 0.178290 0.142467
H14   H     H_    0.868992 0.644693 0.881921 0.178744
H15   H     H_    0.293174 0.199355 0.390904 0.195072
H16   H     H_    0.218506 0.238665 0.355488 0.163179
H17   H     H_    0.114121 0.134399 0.358536 0.204603
H18   H     H_    0.189204 0.096193 0.394206 0.203784
H19   H     H_    0.397829 0.266533 0.554108 0.165709
H20   H     H_    0.295788 0.164447 0.561360 0.186690
H21   H     H_    0.284671 0.404414 0.583806 0.184646
H22   H     H_    0.213067 0.358770 0.468887 0.152536
H23   H     H_    0.628751 0.623140 0.358154 0.186201
H24   H     H_    0.109125 0.252584 0.470847 0.201493
H25   H     H_    0.311919 0.416152 0.186338 0.146021
H26   H     H_    0.181083 0.298668 0.585997 0.161858
H27   H     H_    0.396505 0.352039 0.634033 0.163888
H28   H     H_    0.291645 0.249354 0.638202 0.166543
H29   H     H_    0.865351 0.607594 0.154933 0.184137
H30   H     H_    0.873948 0.672244 0.101591 0.165233
H31   H     H_    0.873064 0.774638 0.208894 0.216399
H32   H     H_    0.872365 0.714125 0.265236 0.147587
H33   H     H_    0.009447 0.627248 0.269277 0.177666
H34   H     H_    0.727391 0.733632 0.355885 0.173677
H35   H     H_    0.005255 0.730908 0.371885 0.172006
H36   H     H_    0.121519 0.791610 0.212925 0.179114
H37   H     H_    0.131623 0.349189 0.142018 0.138723
H38   H     H_    0.023963 0.779563 0.135223 0.182343
H39   H     H_    0.114475 0.706877 0.294287 0.162189
H40   H     H_    0.113998 0.805093 0.404469 0.176785
H41   H     H_    0.882014 0.199622 0.780309 0.205665
H42   H     H_    0.982874 0.218093 0.861920 0.175623
H43   H     H_    0.988958 0.118791 0.756998 0.219508
H44   H     H_    0.885636 0.096225 0.676088 0.169101
H45   H     H_    0.670050 0.798300 0.566629 0.164488
H46   H     H_    0.887534 0.295465 0.709075 0.187289
H47   H     H_    0.187916 0.434165 0.324086 0.118066
H48   H     H_    0.881947 0.186671 0.606930 0.141210
H49   H     H_    0.136384 0.399308 0.844176 0.179863
H50   H     H_    0.133486 0.336061 0.898867 0.157013
H51   H     H_    0.132346 0.231879 0.791951 0.192936
H52   H     H_    0.139071 0.294527 0.737950 0.146831
H53   H     H_    0.989779 0.376962 0.734473 0.178087
H54   H     H_    0.745960 0.604463 0.462808 0.188573
H55   H     H_    0.800429 0.677299 0.578489 0.171297
H56   H     H_    0.747810 0.783438 0.640159 0.200500
H57   H     H_    0.903625 0.769589 0.563411 0.211579
H58   H     H_    0.624528 0.306343 0.472436 0.113288
H59   H     H_    0.665180 0.307017 0.360658 0.117398
H60   H     H_    0.806155 0.428080 0.400583 0.119977
H61   H     H_    0.908070 0.548206 0.554455 0.129733
H62   H     H_    0.870925 0.548168 0.667571 0.124945
H63   H     H_    0.170910 0.941848 0.224307 0.155536
H64   H     H_    0.328530 0.049940 0.310177 0.129837
H65   H     H_    0.413795 0.101596 0.468167 0.133606
H66   H     H_    0.338869 0.045002 0.540285 0.132114
H67   H     H_    0.782088 0.904184 0.574673 0.115901
H68   H     H_    0.183332 0.942910 0.460058 0.160723
H69   H     H_    0.860005 0.173264 0.473437 0.117189
H70   H     H_    0.896864 0.235848 0.385429 0.124796
H71   H     H_    0.036593 0.374615 0.455274 0.122795
H72   H     H_    0.141027 0.450004 0.614376 0.130693
H73   H     H_    0.106353 0.389672 0.704034 0.129784
H74   H     H_    0.591565 0.696391 0.401385 0.156198
H75   H     H_    0.697331 0.809449 0.409028 0.185008
I1    I     I_    0.918108 0.921770 0.706285 -0.459997
I2    I     I_    0.729939 0.294866 0.707059 -0.493913
I3    I     I_    0.997366 0.920499 0.211968 -0.481427
O1    O     O_R   0.592740 0.540340 0.447840 -0.624544
O2    O     O_R   0.947900 0.907390 0.355230 -0.594503
O3    O     O_R   0.959780 0.907430 0.552420 -0.591787
O4    O     O_R   0.592480 0.644870 0.552180 -0.630503
O5    O     O_R   0.854990 0.907370 0.447560 -0.637310
O6    O     O_R   0.052100 0.092610 0.644770 -0.611240
O7    O     O_R   0.947310 0.092550 0.539920 -0.637208
O8    O     O_R   0.145010 0.092640 0.552440 -0.640666
O9    O     O_R   0.040220 0.092570 0.447580 -0.610491
O10   O     O_R   0.407320 0.447740 0.355030 -0.627888
O11   O     O_R   0.407060 0.552270 0.459360 -0.624798
O12   O     O_R   0.053270 0.644880 0.093500 -0.634963
O13   O     O_R   0.407520 0.355130 0.447820 -0.632520
O14   O     O_R   0.407260 0.459660 0.552160 -0.631314
O15   O     O_R   0.592940 0.447730 0.540640 -0.628423
O16   O     O_R   0.592680 0.552260 0.644970 -0.626121
O17   O     O_R   0.948700 0.540360 0.093520 -0.632572
O18   O     O_R   0.041720 0.447740 0.093910 -0.626357
O19   O     O_R   0.146290 0.552270 0.093890 -0.627550
O20   O     O_R   0.949110 0.355140 0.908700 -0.609403
O21   O     O_R   0.053680 0.459670 0.908680 -0.634015
O22   O     O_R   0.856090 0.447760 0.908300 -0.596025
O23   O     O_R   0.960660 0.552280 0.908280 -0.637111
O24   O     O_R   0.052690 0.907450 0.460090 -0.652961
Zn1   Zn    Zn3+2 0.500170 0.430200 0.430330 0.926312
Zn2   Zn    Zn3+2 0.499830 0.569800 0.569670 0.930241
Zn3   Zn    Zn3+2 0.931370 0.430220 0.001110 0.957730
Zn4   Zn    Zn3+2 0.071010 0.569800 0.001080 0.926026
Zn5   Zn    Zn3+2 0.069970 0.000040 0.570020 0.945654
Zn6   Zn    Zn3+2 0.930030 0.999960 0.429990 0.953219

loop_
_geom_bond_atom_site_label_1
_geom_bond_atom_site_label_2
_ccdc_geom_bond_type
C44   C49   S    
O20   Zn3   S    
C66   C68   A    
C31   O5    A    
C41   C42   S    
C8    C13   S    
C22   H20   S    
C8    H5    S    
C63   H62   S    
C6    C58   S    
C35   C36   S    
C75   C76   A    
C15   H16   S    
C47   H46   S    
C47   C49   S    
C77   C78   S    
C69   H66   S    
C7    C11   S    
C67   C78   S    
C13   H6    S    
C62   C63   A    
C51   C71   S    
O7    Zn6   S    
C34   C40   S    
C14   H9    S    
C38   C39   S    
C38   H36   S    
C11   C14   S    
C61   H60   S    
O11   Zn2   S    
C21   C33   S    
C61   C62   A    
C44   H42   S    
C75   H72   S    
C5    I1    S    
C32   O7    A    
C26   C54   S    
C59   H58   S    
C3    H75   S    
C65   H63   S    
C68   H65   S    
C30   O2    A    
C73   C74   A    
C37   C42   S    
C55   H13   S    
C35   H30   S    
C28   O15   A    
C9    H7    S    
C16   O13   A    
C28   O16   A    
C19   C20   S    
C45   C56   S    
C52   C54   S    
C68   C69   A    
O12   Zn4   S    
C32   O6    A    
C34   C57   S    
C40   H2    S    
C74   H71   S    
C45   C78   S    
C70   H68   S    
C18   H19   S    
C64   C70   A    
C62   H61   S    
C52   H1    S    
C9    C10   S    
C18   C20   S    
O22   Zn3   S    
C60   H59   S    
C23   H47   S    
C12   H37   S    
C23   C34   S    
C56   H12   S    
C59   C60   A    
C6    H3    S    
C21   C22   S    
O14   Zn2   S    
C1    C78   S    
C41   C43   S    
C36   C41   S    
C15   C20   S    
O10   Zn1   S    
O1    Zn1   S    
O2    Zn6   S    
O4    Zn2   S    
C44   C46   S    
C43   C64   S    
C25   O12   A    
C48   C53   S    
C57   H25   S    
C4    C34   S    
C50   C53   S    
C5    H67   S    
C74   C75   A    
C73   H70   S    
C33   O8    A    
O8    Zn5   S    
C19   H21   S    
C42   H40   S    
C47   C51   S    
C53   H52   S    
C76   H73   S    
C58   C59   A    
C40   C52   S    
C17   C21   S    
C47   H53   S    
C2    C31   S    
C24   H26   S    
C27   O20   A    
C35   C39   S    
C9    C14   S    
C6    C10   S    
O5    Zn6   S    
C77   H45   S    
O16   Zn2   S    
C9    H8    S    
C48   H50   S    
C38   H38   S    
C42   H35   S    
C12   C23   S    
C3    H34   S    
C16   C20   S    
C40   C55   S    
O13   Zn1   S    
C50   C51   S    
C7    I2    S    
C30   C41   S    
C17   H18   S    
C32   C50   S    
C17   H17   S    
C12   C57   S    
C48   C49   S    
C29   O22   A    
C55   C57   S    
C13   H14   S    
C36   H32   S    
C2    C5    S    
C53   H51   S    
C77   H56   S    
C5    C77   S    
C43   I3    S    
C72   H69   S    
C56   H57   S    
C67   H23   S    
O23   Zn4   S    
C10   C28   S    
C58   C63   A    
C15   C17   S    
C54   C55   S    
C30   O24   A    
C67   H74   S    
C18   C22   S    
C51   H48   S    
O15   Zn1   S    
C1    O4    A    
C33   O9    A    
C27   O21   A    
C72   C73   A    
O18   Zn3   S    
C15   H15   S    
O6    Zn5   S    
C19   H22   S    
C6    C7    S    
C66   H64   S    
O21   Zn4   S    
C46   C50   S    
C45   H55   S    
O9    Zn6   S    
C44   H41   S    
C4    O11   A    
C64   C65   A    
O3    Zn5   S    
C1    O1    A    
C2    C3    S    
C18   H27   S    
C14   H10   S    
C38   C43   S    
C37   C39   S    
C22   H28   S    
C25   C39   S    
C48   H49   S    
C11   C13   S    
C46   H43   S    
C23   C52   S    
C71   C76   A    
C3    C67   S    
C26   O19   A    
C4    O10   A    
C19   C24   S    
C24   H24   S    
C25   O17   A    
C69   C70   A    
C31   O3    A    
C37   H33   S    
C46   H44   S    
C35   H29   S    
O24   Zn5   S    
C16   O14   A    
C71   C72   A    
C7    H4    S    
C37   H39   S    
C11   C29   S    
C45   H54   S    
C8    C10   S    
C65   C66   A    
C29   O23   A    
C21   C24   S    
C36   H31   S    
C26   O18   A    
C60   C61   A    
O17   Zn3   S    
C2    C56   S    
C8    H11   S    
C12   C54   S    
C27   C49   S    
O19   Zn4   S    
