data_mof_unit_54759.cif
_audit_creation_date              2012-10-26T21:11:05-0400
_audit_creation_method            fapswitch 2.2
_symmetry_space_group_name_H-M    P1
_symmetry_Int_Tables_number       1
_space_group_crystal_system       triclinic
_cell_length_a                    10.897388
_cell_length_b                    10.898721
_cell_length_c                    13.120916
_cell_angle_alpha                 90.376516
_cell_angle_beta                  90.144463
_cell_angle_gamma                 90.127091
_cell_volume                      1558.29709885

loop_
_atom_site_label
_atom_site_type_symbol
_atom_type_description
_atom_site_fract_x
_atom_site_fract_y
_atom_site_fract_z
_atom_type_partial_charge
C1    C     C_R   0.492314 0.259644 0.499432 0.552498
C2    C     C_R   0.685749 0.822452 0.693394 -0.061292
C3    C     C_R   0.427107 0.115722 0.311555 0.047870
C4    C     C_R   0.572896 0.884281 0.688474 0.047861
C5    C     C_R   0.498743 0.104468 0.223110 -0.097505
C6    C     C_R   0.501248 0.895661 0.776888 -0.097540
C7    C     C_R   0.458779 0.155993 0.131524 -0.118675
C8    C     C_R   0.541123 0.844172 0.868506 -0.118711
C9    C     C_R   0.346710 0.217939 0.127438 -0.104086
C10   C     C_R   0.653106 0.782126 0.872658 -0.104135
C11   C     C_R   0.479551 0.932763 0.410814 -0.161346
C12   C     C_R   0.507728 0.740353 0.500569 0.552500
C13   C     C_R   0.520591 0.067240 0.589179 -0.161345
C14   C     C_R   0.508788 0.873030 0.501622 -0.007790
C15   C     C_R   0.491312 0.126968 0.498379 -0.007784
C16   C     C_R   0.259664 0.506811 0.499676 0.552578
C17   C     C_R   0.740336 0.493177 0.500324 0.552537
C18   C     C_R   0.531838 0.940769 0.591785 -0.034063
C19   C     C_R   0.468266 0.059230 0.408218 -0.034071
C20   C     C_1   0.500018 0.500071 0.173574 0.129113
C21   C     C_1   0.499979 0.499928 0.826426 0.129129
C22   C     C_1   0.500009 0.500045 0.050683 -0.073731
C23   C     C_R   0.872923 0.492297 0.501119 -0.009447
C24   C     C_1   0.499987 0.499953 0.949317 -0.073715
C25   C     C_R   0.237967 0.752406 0.235071 -0.103686
C26   C     C_R   0.761945 0.247787 0.765068 -0.103653
C27   C     C_R   0.185303 0.704506 0.323492 -0.059011
C28   C     C_R   0.814626 0.295594 0.676611 -0.058968
C29   C     C_R   0.117841 0.594476 0.318985 0.051999
C30   C     C_R   0.882157 0.405596 0.681054 0.051995
C31   C     C_R   0.102517 0.534422 0.224720 -0.097005
C32   C     C_R   0.897546 0.465707 0.775294 -0.097067
C33   C     C_R   0.156752 0.581751 0.136845 -0.115281
C34   C     C_R   0.127078 0.507684 0.498879 -0.009451
C35   C     C_R   0.843309 0.418465 0.863208 -0.115299
C36   C     C_R   0.224497 0.690635 0.142026 -0.102625
C37   C     C_R   0.775486 0.309614 0.858089 -0.102607
C38   C     C_R   0.933125 0.534210 0.413983 -0.157430
C39   C     C_R   0.066877 0.465769 0.586010 -0.157435
C40   C     C_R   0.940060 0.456248 0.588081 -0.035894
C41   C     C_R   0.059941 0.543745 0.411919 -0.035894
C42   C     C_R   0.274441 0.228423 0.214897 -0.098772
C43   C     C_R   0.725383 0.771507 0.785231 -0.098788
C44   C     C_R   0.314174 0.177452 0.306703 -0.061341
Cu1   Cu    Cu3+1 0.499990 0.499990 0.592680 0.984910
Cu2   Cu    Cu3+1 0.500010 0.500010 0.407320 0.984941
H1    H     H_    0.265971 0.727497 0.073850 0.105594
H2    H     H_    0.711200 0.162455 0.761826 0.101576
H3    H     H_    0.196577 0.753153 0.395180 0.096675
H4    H     H_    0.803299 0.246902 0.604944 0.096671
H5    H     H_    0.049057 0.450740 0.219526 0.091988
H6    H     H_    0.951061 0.549367 0.780439 0.091997
H7    H     H_    0.145769 0.534320 0.064641 0.101814
H8    H     H_    0.854345 0.465940 0.935392 0.101799
H9    H     H_    0.880883 0.563531 0.348034 0.132066
H10   H     H_    0.119122 0.436456 0.651960 0.132068
H11   H     H_    0.315827 0.257735 0.056511 0.108583
H12   H     H_    0.734003 0.272821 0.926293 0.105588
H13   H     H_    0.683915 0.742356 0.943610 0.108610
H14   H     H_    0.187345 0.275475 0.211443 0.100782
H15   H     H_    0.812411 0.724376 0.788737 0.100839
H16   H     H_    0.257091 0.185798 0.373869 0.096999
H17   H     H_    0.742849 0.814009 0.626258 0.097032
H18   H     H_    0.585607 0.056423 0.225329 0.102050
H19   H     H_    0.414448 0.943785 0.774621 0.102077
H20   H     H_    0.514588 0.147760 0.063690 0.102836
H21   H     H_    0.485309 0.852513 0.936314 0.102858
H22   H     H_    0.461832 0.880382 0.341877 0.126030
H23   H     H_    0.538332 0.119628 0.658109 0.125995
H24   H     H_    0.288638 0.837770 0.238358 0.101622
N1    N     N_1   0.500030 0.500030 0.268070 -0.168438
N2    N     N_1   0.499970 0.499970 0.731930 -0.168443
O1    O     O_R   0.499980 0.319630 0.578260 -0.507033
O2    O     O_R   0.500020 0.680370 0.421740 -0.507011
O3    O     O_R   0.500000 0.319650 0.421740 -0.482562
O4    O     O_R   0.500000 0.680350 0.578260 -0.482571
O5    O     O_R   0.319630 0.500000 0.578260 -0.506492
O6    O     O_R   0.680370 0.500000 0.421740 -0.506502
O7    O     O_R   0.319650 0.500020 0.421740 -0.483770
O8    O     O_R   0.680350 0.499980 0.578260 -0.483811

loop_
_geom_bond_atom_site_label_1
_geom_bond_atom_site_label_2
_ccdc_geom_bond_type
C12   O2    A    
C27   C29   A    
C14   C18   A    
Cu1   Cu2   S    
C11   H22   S    
C15   C19   A    
C11   C19   A    
C9    C42   A    
C17   C23   S    
C13   C18   A    
Cu1   O4    S    
C35   C37   A    
Cu2   O7    S    
C11   C14   A    
C23   C40   A    
C33   C36   A    
C36   H1    S    
Cu1   O1    S    
C16   O5    A    
C32   H6    S    
C16   C34   S    
C28   H4    S    
C6    H19   S    
C38   H9    S    
C31   C33   A    
C20   N1    T    
C3    C19   S    
C1    C15   S    
C37   H12   S    
C26   H2    S    
C4    C18   S    
C35   H8    S    
C34   C41   A    
C42   C44   A    
Cu2   O3    S    
C33   H7    S    
C3    C44   A    
C21   N2    T    
C34   C39   A    
C1    O3    A    
C32   C35   A    
C38   C41   A    
C4    C6    A    
C42   H14   S    
C39   C40   A    
Cu2   O6    S    
C6    C8    A    
C44   H16   S    
C17   O8    A    
C5    H18   S    
C2    C4    A    
C31   H5    S    
C39   H10   S    
C2    C43   A    
C30   C40   S    
Cu2   N1    S    
C20   C22   S    
C13   C15   A    
C12   O4    A    
C22   C24   T    
Cu2   O2    S    
C2    H17   S    
C43   H15   S    
C5    C7    A    
C7    C9    A    
C29   C41   S    
C10   C43   A    
C12   C14   S    
C3    C5    A    
C26   C37   A    
C25   C27   A    
C23   C38   A    
C26   C28   A    
C16   O7    A    
C1    O1    A    
C28   C30   A    
C10   H13   S    
C29   C31   A    
C7    H20   S    
C30   C32   A    
C13   H23   S    
C17   O6    A    
Cu1   O8    S    
C9    H11   S    
C25   C36   A    
C8    H21   S    
C8    C10   A    
C21   C24   S    
Cu1   O5    S    
C25   H24   S    
C27   H3    S    
Cu1   N2    S    
