data_mof_unit_42895.cif
_audit_creation_date              2012-12-11T17:41:20-0500
_audit_creation_method            fapswitch 2.2
_symmetry_space_group_name_H-M    P1
_symmetry_Int_Tables_number       1
_space_group_crystal_system       triclinic
_cell_length_a                    15.646563
_cell_length_b                    15.100555
_cell_length_c                    15.066622
_cell_angle_alpha                 109.734495
_cell_angle_beta                  121.388192
_cell_angle_gamma                 59.175101
_cell_volume                      2597.39687472

loop_
_atom_site_label
_atom_site_type_symbol
_atom_type_description
_atom_site_fract_x
_atom_site_fract_y
_atom_site_fract_z
_atom_type_partial_charge
C1    C     C_R   0.799563 0.941458 0.775196 -0.087518
C2    C     C_R   0.222225 0.024352 0.211854 -0.090799
C3    C     C_R   0.190718 0.297759 0.545765 -0.061291
C4    C     C_R   0.858305 0.724721 0.511385 -0.069250
C5    C     C_R   0.508522 0.320995 0.541363 0.014863
C6    C     C_R   0.496913 0.701580 0.563218 0.028283
C7    C     C_R   0.503980 0.921592 0.794554 0.042044
C8    C     C_R   0.496271 0.975377 0.172098 0.064274
C9    C     C_R   0.837214 0.639798 0.903845 0.387643
C10   C     C_R   0.223051 0.271076 0.045638 0.324894
C11   C     C_R   0.733629 0.689349 0.906257 0.314504
C12   C     C_R   0.311973 0.182345 0.031387 0.348110
C13   C     C_R   0.706655 0.783698 0.968506 -0.094631
C14   C     C_R   0.300369 0.088509 0.983505 -0.055154
C15   C     C_R   0.786664 0.823112 0.034034 -0.265697
C16   C     C_R   0.197581 0.086895 0.942916 -0.364584
C17   C     C_R   0.889937 0.772595 0.033362 -0.313274
C18   C     C_R   0.109836 0.174940 0.957479 -0.288041
C19   C     C_R   0.914951 0.682228 0.967266 0.442733
C20   C     C_R   0.122523 0.266407 0.009988 0.473036
C21   C     C_R   0.586351 0.863312 0.057061 -0.207481
C22   C     C_R   0.398526 0.955796 0.883881 -0.239316
C23   C     C_R   0.223225 0.286448 0.471849 0.344676
C24   C     C_R   0.796553 0.722951 0.551304 0.466528
C25   C     C_R   0.491496 0.942108 0.067920 0.062923
C26   C     C_R   0.499797 0.897373 0.877901 0.063484
C27   C     C_R   0.396227 0.990313 0.979463 0.149735
C28   C     C_R   0.594793 0.845019 0.964688 0.189962
C29   C     C_2   0.156308 0.396641 0.606402 -0.074150
C30   C     C_2   0.962972 0.642478 0.510656 -0.035857
C31   C     C_2   0.055851 0.469396 0.559431 0.517866
C32   C     C_2   0.031153 0.580558 0.588017 0.360177
C33   C     C_2   0.978009 0.958161 0.847146 -0.192349
C34   C     C_2   0.124334 0.906412 0.105852 -0.149777
C35   C     C_R   0.205915 0.854860 0.646710 -0.173842
C36   C     C_R   0.775172 0.229717 0.433064 -0.031429
C37   C     C_R   0.304046 0.766684 0.657489 -0.165094
C38   C     C_R   0.687028 0.307048 0.455364 -0.158172
C39   C     C_R   0.310742 0.694057 0.571207 -0.052735
C40   C     C_R   0.700565 0.337586 0.559079 -0.120045
C41   C     C_R   0.217454 0.709672 0.473465 0.365045
C42   C     C_R   0.804169 0.289746 0.641042 0.502854
C43   C     C_R   0.120421 0.801265 0.462186 -0.008648
C44   C     C_R   0.893279 0.212109 0.618448 -0.034906
C45   C     C_R   0.595960 0.226614 0.557667 -0.072449
C46   C     C_R   0.406404 0.782490 0.507188 -0.092514
C47   C     C_R   0.115164 0.872797 0.549299 -0.052306
C48   C     C_R   0.877928 0.182799 0.513961 -0.108996
C49   C     C_R   0.426443 0.507300 0.581520 -0.129485
C50   C     C_R   0.600661 0.521270 0.589531 -0.063650
C51   C     C_R   0.517234 0.418121 0.573264 0.078683
C52   C     C_R   0.503896 0.610248 0.582972 0.074592
C53   C     C_R   0.607315 0.425132 0.580506 0.123930
C54   C     C_R   0.416595 0.604133 0.582229 0.135150
C55   C     C_2   0.034122 0.891909 0.918890 -0.008118
C56   C     C_2   0.121803 0.907849 0.016360 -0.100459
C57   C     C_R   0.412308 0.973097 0.709758 -0.007767
C58   C     C_R   0.590275 0.959116 0.266532 -0.064528
C59   C     C_R   0.413342 0.305596 0.473361 -0.087445
C60   C     C_R   0.588114 0.715415 0.591047 -0.052540
C61   C     C_R   0.593638 0.911878 0.789494 -0.103775
C62   C     C_R   0.406621 0.031356 0.194437 -0.109921
C63   C     C_R   0.233834 0.200581 0.574730 0.443406
C64   C     C_R   0.800056 0.816992 0.467771 0.354363
C65   C     C_R   0.803483 0.028792 0.684755 -0.078553
C66   C     C_R   0.231072 0.926104 0.301982 -0.097425
C67   C     C_R   0.863651 0.978137 0.773838 0.147876
C68   C     C_R   0.188855 0.951324 0.203040 0.119109
H1    H     H_    0.824239 0.888741 0.826372 0.105864
H2    H     H_    0.188905 0.071268 0.151613 0.114284
H3    H     H_    0.074799 0.876532 0.106939 0.138525
H4    H     H_    0.010823 0.008298 0.850933 0.131025
H5    H     H_    0.767689 0.894952 0.083446 0.193612
H6    H     H_    0.187148 0.015984 0.904107 0.177574
H7    H     H_    0.949925 0.804938 0.083095 0.180536
H8    H     H_    0.032233 0.171534 0.929417 0.220959
H9    H     H_    0.658306 0.822917 0.123342 0.144649
H10   H     H_    0.323774 0.994676 0.818803 0.156287
H11   H     H_    0.040675 0.942909 0.541428 0.162394
H12   H     H_    0.945522 0.123679 0.495020 0.143708
H13   H     H_    0.200486 0.910269 0.713584 0.133008
H14   H     H_    0.764056 0.206645 0.352833 0.158227
H15   H     H_    0.374926 0.755140 0.732827 0.185923
H16   H     H_    0.608146 0.343834 0.391851 0.185461
H17   H     H_    0.358528 0.501123 0.577830 0.130591
H18   H     H_    0.667917 0.524057 0.588352 0.176483
H19   H     H_    0.680948 0.208458 0.609565 0.120558
H20   H     H_    0.320768 0.804290 0.482093 0.106628
H21   H     H_    0.331903 0.973954 0.676414 0.129535
H22   H     H_    0.674558 0.920407 0.277668 0.159754
H23   H     H_    0.332362 0.365175 0.439404 0.199809
H24   H     H_    0.667282 0.680928 0.654342 0.181547
H25   H     H_    0.679729 0.867904 0.834509 0.101414
H26   H     H_    0.322006 0.057910 0.142031 0.101191
H27   H     H_    0.835774 0.053075 0.653301 0.131546
H28   H     H_    0.216926 0.875004 0.323421 0.114423
H29   H     H_    0.171342 0.937739 0.015325 0.126722
H30   H     H_    0.002169 0.841637 0.916311 0.168027
N1    N     N_R   0.705410 0.966550 0.689210 -0.058169
N2    N     N_R   0.294590 0.033450 0.310790 -0.045559
N3    N     N_R   0.294590 0.188320 0.465660 -0.110558
N4    N     N_R   0.705410 0.811680 0.534340 -0.122592
N5    N     N_R   0.556610 0.157790 0.497330 -0.047379
N6    N     N_R   0.443390 0.842210 0.502670 -0.055654
N7    N     N_R   0.443390 0.997080 0.657540 -0.049800
N8    N     N_R   0.556610 0.002920 0.342460 -0.039460
N9    N     N_R   0.443390 0.203250 0.451380 -0.044726
N10   N     N_R   0.556610 0.796750 0.548620 -0.047813
N11   N     N_R   0.556610 0.951620 0.703500 -0.053698
N12   N     N_R   0.443390 0.048380 0.296500 -0.043428
N13   N     N_R   0.294590 0.131500 0.522480 -0.120086
N14   N     N_R   0.705410 0.868500 0.477520 -0.109158
N15   N     N_R   0.705410 0.023370 0.632390 -0.057045
N16   N     N_R   0.294590 0.976630 0.367610 -0.053143
Ni1   Ni    Ni4+2 0.629830 0.882720 0.617850 0.240979
Ni2   Ni    Ni4+2 0.370170 0.117280 0.382150 0.287577
Ni3   Ni    Ni4+2 0.629830 0.013030 0.487540 0.266693
Ni4   Ni    Ni4+2 0.370170 0.986970 0.512460 0.228936
Cl1   Cl    Cl    0.044542 0.623838 0.965628 -0.416647
Cl2   Cl    Cl    0.011763 0.373541 0.032042 -0.391032
Cl3   Cl    Cl    0.869296 0.526086 0.820399 -0.397263
Cl4   Cl    Cl    0.238455 0.387017 0.110862 -0.359781
Cl5   Cl    Cl    0.639865 0.631731 0.835865 -0.594044
Cl6   Cl    Cl    0.438131 0.188232 0.075279 -0.556074
Cl7   Cl    Cl    0.063991 0.634051 0.719955 -0.526412
Cl8   Cl    Cl    0.950728 0.432749 0.452701 -0.512702
N17   N     N_3   0.973284 0.607615 0.413750 -0.142318
H31   H     H_    0.901977 0.652102 0.354473 0.172648
H32   H     H_    0.037600 0.620852 0.424561 0.172690
N18   N     N_3   0.239383 0.422593 0.699427 -0.159603
H33   H     H_    0.300081 0.411789 0.680857 0.103952
H34   H     H_    0.276090 0.370049 0.752954 0.205101
Cl9   Cl    Cl    0.146396 0.367954 0.371383 -0.575063
Cl10  Cl    Cl    0.831806 0.625432 0.617981 -0.570644
Cl11  Cl    Cl    0.224608 0.619597 0.363437 -0.595878
Cl12  Cl    Cl    0.819607 0.319886 0.770830 -0.543729
N19   N     N_3   0.027798 0.824468 0.362335 -0.171366
H35   H     H_    0.002597 0.764201 0.332639 0.195779
H36   H     H_    0.053346 0.827199 0.311902 0.133653
N20   N     N_3   0.998376 0.163033 0.701855 -0.191838
H37   H     H_    0.053518 0.103300 0.672034 0.130288
H38   H     H_    0.030591 0.218327 0.743494 0.224942
Cl13  Cl    Cl    0.200744 0.175134 0.655423 -0.694806
Cl14  Cl    Cl    0.859465 0.877350 0.449977 -0.762803

loop_
_geom_bond_atom_site_label_1
_geom_bond_atom_site_label_2
_ccdc_geom_bond_type
C33   C55   D    
C57   N7    A    
C55   C56   S    
C34   C56   D    
C66   C68   A    
N2    Ni2   S    
C47   H11   S    
C61   N11   A    
C1    N1    A    
C35   H13   S    
C39   C41   A    
N19   H36   S    
C7    C26   S    
C57   H21   S    
N13   Ni4   S    
C16   H6    S    
N10   Ni1   S    
C45   H19   S    
N20   H38   S    
N11   Ni1   S    
C2    C68   A    
N1    Ni1   S    
N14   Ni3   S    
C4    C24   A    
C61   H25   S    
C64   N14   A    
C39   C54   S    
C49   C54   A    
C42   Cl12  S    
C3    C29   S    
C7    C61   A    
N7    N11   A    
N4    Ni1   S    
C45   N5    A    
C33   H4    S    
C17   C19   A    
C3    C23   A    
C9    C19   A    
C31   C32   S    
C10   C20   A    
C49   C51   A    
C20   Cl2   S    
C62   N12   A    
C9    Cl3   S    
C13   C28   S    
C36   C48   A    
C14   C27   S    
C6    C46   A    
C46   H20   S    
C60   N10   A    
C8    C58   A    
C40   C42   A    
N4    N14   A    
C2    N2    A    
C44   N20   S    
C38   C40   A    
C8    C25   S    
C41   C43   A    
N5    Ni3   S    
C42   C44   A    
C56   H29   S    
C52   C54   A    
N6    Ni4   S    
C60   H24   S    
C50   C53   A    
C5    C59   A    
C49   H17   S    
N2    N16   A    
N20   H37   S    
C22   H10   S    
C36   H14   S    
C23   Cl9   S    
C64   Cl14  S    
C65   C67   A    
C46   N6    A    
C1    H1    S    
C51   C53   A    
C32   Cl7   S    
N18   H34   S    
N17   H32   S    
C6    C60   A    
C24   N4    A    
C9    C11   A    
C50   C52   A    
C29   N18   S    
C12   Cl6   S    
C59   H23   S    
C58   H22   S    
N16   Ni4   S    
C10   C12   A    
C41   Cl11  S    
N15   Ni3   S    
C16   C18   A    
C15   H5    S    
C21   C28   A    
C12   C14   A    
C22   C27   A    
C13   C15   A    
N8    Ni3   S    
C14   C16   A    
N7    Ni4   S    
N3    N13   A    
C34   C68   S    
N17   H31   S    
N12   Ni2   S    
N6    N10   A    
C33   C67   S    
C66   H28   S    
N8    N12   A    
C24   Cl10  S    
C15   C17   A    
C21   C25   A    
C30   N17   S    
C18   H8    S    
C66   N16   A    
C38   H16   S    
C65   N15   A    
C11   Cl5   S    
C10   Cl4   S    
N1    N15   A    
C3    C63   A    
C25   C27   A    
N19   H35   S    
C4    C64   A    
C26   C28   A    
C6    C52   S    
C48   H12   S    
C62   H26   S    
N18   H33   S    
C35   C37   A    
C29   C31   D    
C30   C32   D    
C11   C13   A    
C23   N3    A    
C5    C45   A    
C55   H30   S    
C36   C38   A    
C1    C67   A    
C43   N19   S    
C18   C20   A    
C63   N13   A    
C59   N9    A    
N9    Ni2   S    
C50   H18   S    
C19   Cl1   S    
C65   H27   S    
C37   C39   A    
C40   C53   S    
C22   C26   A    
C21   H9    S    
C17   H7    S    
N3    Ni2   S    
C63   Cl13  S    
C37   H15   S    
N5    N9    A    
C31   Cl8   S    
C58   N8    A    
C35   C47   A    
C2    H2    S    
C43   C47   A    
C34   H3    S    
C7    C57   A    
C4    C30   S    
C44   C48   A    
C8    C62   A    
C5    C51   S    
