data_mof_unit_53721.cif
_audit_creation_date              2012-12-11T15:48:47-0500
_audit_creation_method            fapswitch 2.2
_symmetry_space_group_name_H-M    P1
_symmetry_Int_Tables_number       1
_space_group_crystal_system       triclinic
_cell_length_a                    11.076989
_cell_length_b                    10.881588
_cell_length_c                    18.8157
_cell_angle_alpha                 90.329194
_cell_angle_beta                  90.384901
_cell_angle_gamma                 60.521808
_cell_volume                      1974.29995363

loop_
_atom_site_label
_atom_site_type_symbol
_atom_type_description
_atom_site_fract_x
_atom_site_fract_y
_atom_site_fract_z
_atom_type_partial_charge
C1    C     C_R   0.238706 0.645858 0.610001 0.543924
C2    C     C_R   0.580845 0.130661 0.707883 -0.173408
C3    C     C_R   0.578782 0.130448 0.781208 -0.157969
C4    C     C_R   0.653858 0.621485 0.601161 0.536334
C5    C     C_3   0.909930 0.120869 0.790741 -0.261892
C6    C     C_3   0.911377 0.121323 0.710226 -0.292649
C7    C     C_R   0.669554 0.166080 0.672214 0.018023
C8    C     C_R   0.183101 0.674488 0.835908 0.029027
C9    C     C_R   0.191530 0.562710 0.796336 -0.034077
C10   C     C_R   0.198854 0.557524 0.724637 0.004257
C11   C     C_R   0.201023 0.775664 0.723362 -0.181905
C12   C     C_3   0.741427 0.518993 0.796120 -0.243954
C13   C     C_R   0.200501 0.779111 0.798765 0.225043
C14   C     C_3   0.195524 0.424895 0.802450 -0.281347
C15   C     C_3   0.204803 0.417910 0.720726 -0.269526
C16   C     C_R   0.628665 0.226436 0.601789 0.540597
C17   C     C_R   0.201652 0.662862 0.684927 -0.022933
C18   C     C_R   0.700307 0.704295 0.179341 0.003586
C19   C     C_R   0.788170 0.578793 0.213552 0.016851
C20   C     C_R   0.770854 0.559918 0.283125 0.035588
C21   C     C_R   0.582629 0.798709 0.292345 -0.174912
C22   C     C_R   0.600072 0.817991 0.219802 -0.144371
C23   C     C_3   0.707281 0.671420 0.812064 0.050224
C24   C     C_3   0.826643 0.430494 0.194249 -0.264127
C25   C     C_3   0.805150 0.410507 0.271491 -0.255697
C26   C     C_R   0.665744 0.665383 0.323462 -0.013985
C27   C     C_R   0.661155 0.144364 0.178490 0.012660
C28   C     C_R   0.220075 0.650848 0.401795 0.537599
C29   C     C_R   0.548614 0.151988 0.214168 0.008627
C30   C     C_R   0.541379 0.161595 0.286644 0.003689
C31   C     C_R   0.771914 0.131418 0.292552 -0.172162
C32   C     C_R   0.776980 0.126085 0.218515 -0.167547
C33   C     C_3   0.397937 0.251495 0.203687 -0.281609
C34   C     C_3   0.674713 0.645528 0.676537 0.055749
C35   C     C_3   0.388906 0.264766 0.283738 -0.223522
C36   C     C_R   0.648166 0.162559 0.326584 0.017944
C37   C     C_R   0.055664 0.725931 0.195423 -0.035363
C38   C     C_R   0.075772 0.825793 0.232193 0.003604
C39   C     C_R   0.108578 0.811386 0.302977 -0.067386
C40   C     C_R   0.641788 0.624005 0.392828 0.526832
C41   C     C_R   0.087017 0.600110 0.307702 0.214232
C42   C     C_R   0.055818 0.615418 0.234234 -0.145741
C43   C     C_3   0.168966 0.887160 0.216941 0.170162
C44   C     C_3   0.200720 0.876547 0.295683 -0.233214
C45   C     C_3   0.786260 0.689790 0.687042 -0.249010
C46   C     C_R   0.130349 0.690490 0.339643 -0.005241
C47   C     C_R   0.700967 0.099569 0.895383 0.538464
C48   C     C_R   0.726349 0.688154 0.887939 0.553809
C49   C     C_R   0.119955 0.706038 0.906433 0.562773
C50   C     C_R   0.677165 0.104402 0.104610 0.528562
C51   C     C_R   0.728800 0.716047 0.105423 0.540856
C52   C     C_R   0.616083 0.228372 0.395680 0.538539
C53   C     C_R   0.030132 0.745371 0.119254 0.549478
C54   C     C_3   0.557732 0.771035 0.789741 -0.247598
C55   C     C_3   0.538580 0.758967 0.709740 -0.241071
C56   C     C_3   0.719457 0.505088 0.717054 -0.210562
C57   C     C_3   0.803658 0.707944 0.767459 -0.222861
C58   C     C_3   0.231982 0.982821 0.802220 -0.027309
C59   C     C_3   0.256278 0.073159 0.855771 -0.359343
C60   C     C_3   0.018926 0.518476 0.403674 0.025769
C61   C     C_3   0.049158 0.384915 0.443464 -0.332041
C62   C     C_3   0.374429 0.664900 0.190707 0.010757
C63   C     C_3   0.439751 0.577255 0.124352 -0.347918
C64   C     C_R   0.675467 0.151136 0.822004 0.017970
C65   C     C_R   0.759279 0.190496 0.786317 -0.020316
C66   C     C_R   0.757366 0.197241 0.712316 0.019019
Cr1   Cr    Cr6+3 0.392960 0.397920 0.502240 1.000513
Cr2   Cr    Cr6+3 0.398340 0.708480 0.501250 0.992538
Cr3   Cr    Cr6+3 0.708670 0.393570 0.496460 0.978763
Cr4   Cr    Cr6+3 0.937650 0.938540 0.007610 1.032861
Cr5   Cr    Cr6+3 0.625330 0.937370 0.994520 1.002033
Cr6   Cr    Cr6+3 0.937940 0.625230 0.001190 0.991316
H1    H     H_    0.530774 0.881449 0.801918 0.131832
H2    H     H_    0.953529 0.014602 0.686176 0.137680
H3    H     H_    0.205915 0.858089 0.694164 0.122735
H4    H     H_    0.488424 0.743835 0.820276 0.160234
H5    H     H_    0.098407 0.433555 0.823760 0.147831
H6    H     H_    0.292309 0.347099 0.829608 0.142882
H7    H     H_    0.305581 0.334038 0.700371 0.162292
H8    H     H_    0.112088 0.423729 0.694471 0.116868
H9    H     H_    0.500791 0.883841 0.322310 0.129724
H10   H     H_    0.531874 0.917838 0.194785 0.159139
H11   H     H_    0.936728 0.367389 0.177514 0.141230
H12   H     H_    0.818462 0.420272 0.695235 0.142802
H13   H     H_    0.750356 0.423751 0.158118 0.145806
H14   H     H_    0.713134 0.397442 0.280484 0.148683
H15   H     H_    0.457171 0.729043 0.701558 0.144113
H16   H     H_    0.902168 0.333917 0.299001 0.146358
H17   H     H_    0.858574 0.126200 0.322091 0.124571
H18   H     H_    0.870265 0.110427 0.192669 0.130113
H19   H     H_    0.342571 0.198069 0.181332 0.148498
H20   H     H_    0.376524 0.350590 0.176441 0.134598
H21   H     H_    0.364258 0.371641 0.302385 0.184799
H22   H     H_    0.326152 0.221451 0.307616 0.169473
H23   H     H_    0.913142 0.638953 0.782948 0.134150
H24   H     H_    0.041690 0.535793 0.206919 0.152048
H25   H     H_    0.109374 0.998657 0.199220 0.117517
H26   H     H_    0.504039 0.862638 0.683551 0.111535
H27   H     H_    0.310971 0.805563 0.309720 0.161035
H28   H     H_    0.154920 0.981513 0.322154 0.094558
H29   H     H_    0.779126 0.818498 0.778314 0.124472
H30   H     H_    0.755179 0.790794 0.658907 0.113362
H31   H     H_    0.851216 0.443804 0.810288 0.128233
H32   H     H_    0.674257 0.490758 0.827970 0.123260
H33   H     H_    0.638009 0.474323 0.710151 0.134954
H34   H     H_    0.886463 0.608566 0.664198 0.118281
H35   H     H_    0.146593 0.051288 0.767579 0.123522
H36   H     H_    0.316685 0.936617 0.765001 0.107472
H37   H     H_    0.344909 0.005925 0.891179 0.178916
H38   H     H_    0.280024 0.146486 0.826867 0.076209
H39   H     H_    0.162042 0.134769 0.888478 0.151726
H40   H     H_    0.908636 0.578709 0.389404 0.149679
H41   H     H_    0.036577 0.586926 0.441135 0.124134
H42   H     H_    0.160110 0.326771 0.459515 0.142729
H43   H     H_    0.984230 0.412672 0.491942 0.121185
H44   H     H_    0.026437 0.315482 0.409115 0.143414
H45   H     H_    0.507704 0.109615 0.679250 0.120596
H46   H     H_    0.323873 0.614614 0.220016 0.119605
H47   H     H_    0.458858 0.659783 0.224568 0.138933
H48   H     H_    0.496972 0.620602 0.094896 0.183377
H49   H     H_    0.513293 0.466456 0.139438 0.075010
H50   H     H_    0.358043 0.578551 0.089323 0.181052
H51   H     H_    0.506777 0.103405 0.805162 0.132734
H52   H     H_    0.954163 0.013634 0.813530 0.203025
H53   H     H_    0.942370 0.192192 0.816445 0.131524
H54   H     H_    0.954391 0.185498 0.687560 0.120167
O1    O     O_R   0.507380 0.255700 0.581440 -0.532802
O2    O     O_R   0.837170 0.593410 0.915250 -0.529649
O3    O     O_R   0.065200 0.635530 0.931570 -0.515477
O4    O     O_R   0.280320 0.527350 0.578930 -0.502503
O5    O     O_R   0.068260 0.828890 0.091840 -0.466639
O6    O     O_R   0.798870 0.057410 0.079340 -0.531602
O7    O     O_R   0.584930 0.080350 0.076780 -0.518866
O8    O     O_R   0.626960 0.809650 0.067060 -0.489452
O9    O     O_R   0.816040 0.596610 0.076510 -0.526108
O10   O     O_R   0.045610 0.638500 0.081060 -0.525579
O11   O     O_3   0.833640 0.833710 0.001100 -0.296078
O12   O     O_R   0.524480 0.695810 0.424040 -0.509045
O13   O     O_R   0.260510 0.739590 0.584590 -0.537188
O14   O     O_R   0.532300 0.695080 0.573820 -0.509131
O15   O     O_R   0.744840 0.503500 0.576370 -0.540600
O16   O     O_R   0.699120 0.276560 0.571960 -0.499563
O17   O     O_R   0.498940 0.256500 0.419860 -0.521049
O18   O     O_R   0.272500 0.528080 0.429150 -0.482554
O19   O     O_R   0.252060 0.740380 0.423010 -0.531270
O20   O     O_3   0.211527 0.881828 0.839320 -0.538205
O21   O     O_3   0.101854 0.480814 0.341817 -0.574117
O22   O     O_3   0.283388 0.806957 0.170455 -0.519363
O23   O     O_R   0.736390 0.504290 0.414790 -0.535053
O24   O     O_R   0.691300 0.277290 0.422170 -0.510794
O25   O     O_3   0.499990 0.499990 0.499980 -0.246473
O26   O     O_R   0.089400 0.825690 0.930570 -0.452568
O27   O     O_R   0.818460 0.054440 0.929850 -0.501410
O28   O     O_R   0.606060 0.077150 0.915510 -0.536774
O29   O     O_R   0.646550 0.806680 0.917570 -0.506771

loop_
_geom_bond_atom_site_label_1
_geom_bond_atom_site_label_2
_ccdc_geom_bond_type
C21   C26   A    
C34   C56   S    
C8    C13   A    
C27   C29   A    
Cr4   O27   S    
C11   C13   A    
C41   C42   A    
Cr2   O12   S    
C2    C7    A    
C43   C44   S    
Cr1   O17   S    
Cr5   O8    S    
Cr6   O3    S    
Cr5   O11   S    
C3    C64   A    
C12   C23   S    
C45   C57   S    
C28   O19   A    
C37   C38   A    
C30   C35   S    
Cr6   O2    S    
C42   H24   S    
Cr3   O24   S    
C22   H10   S    
C24   H11   S    
C12   H32   S    
C10   C15   S    
C33   H19   S    
C38   C39   A    
C51   O8    A    
Cr6   O10   S    
C48   O2    A    
C20   C25   S    
C10   C17   A    
Cr3   O15   S    
C29   C33   S    
C59   H38   S    
C58   H35   S    
C14   H5    S    
C37   C42   A    
C25   H14   S    
C43   O22   S    
C59   H37   S    
C51   O9    A    
C15   H7    S    
C15   H8    S    
C8    C9    A    
C31   H17   S    
C40   O12   A    
C61   H43   S    
C59   H39   S    
C41   C46   A    
C56   H12   S    
C28   O18   A    
C60   O21   S    
C29   C30   A    
C24   H13   S    
C31   C36   A    
C36   C52   S    
C27   C50   S    
C37   C53   S    
C34   C55   S    
C62   O22   S    
C21   C22   A    
C60   H41   S    
C53   O10   A    
C13   O20   S    
Cr1   O18   S    
C32   H18   S    
C63   H49   S    
C2    H45   S    
C3    H51   S    
C18   C51   S    
C6    H2    S    
C35   H21   S    
C4    C34   S    
C52   O17   A    
Cr1   O25   S    
Cr3   O25   S    
Cr4   O26   S    
C24   C25   S    
C6    H54   S    
C12   H31   S    
C5    C65   S    
C1    O4    A    
C33   H20   S    
C47   C64   S    
C18   C19   A    
Cr6   O9    S    
C47   O27   A    
C58   C59   S    
Cr5   O28   S    
C49   O3    A    
C25   H16   S    
C60   C61   S    
C16   O16   A    
C9    C14   S    
C62   C63   S    
C60   H40   S    
Cr1   O1    S    
C4    O14   A    
C54   H1    S    
C31   C32   A    
C41   O21   S    
Cr5   O29   S    
C61   H44   S    
Cr4   O6    S    
C34   C45   S    
C62   H47   S    
C12   C56   S    
C50   O6    A    
C39   C46   A    
C54   H4    S    
Cr6   O11   S    
C48   O29   A    
C21   H9    S    
Cr2   O14   S    
Cr1   O4    S    
C4    O15   A    
C63   H50   S    
C45   H34   S    
C23   C54   S    
C9    C10   A    
C35   H22   S    
C23   C57   S    
C54   C55   S    
C11   C17   A    
C23   C48   S    
C49   O26   A    
C27   C32   A    
C18   C22   A    
C44   H27   S    
C7    C16   S    
C53   O5    A    
C43   H25   S    
C50   O7    A    
C1    O13   A    
Cr5   O7    S    
C58   O20   S    
C39   C44   S    
C47   O28   A    
C57   H29   S    
C1    C17   S    
C30   C36   A    
C28   C46   S    
Cr3   O23   S    
C64   C65   A    
C19   C20   A    
C2    C3    A    
Cr3   O16   S    
C38   C43   S    
C5    H52   S    
Cr2   O25   S    
C11   H3    S    
C7    C66   A    
C63   H48   S    
C44   H28   S    
C26   C40   S    
C5    C6    S    
C20   C26   A    
C55   H26   S    
Cr4   O5    S    
C33   C35   S    
C40   O23   A    
C19   C24   S    
C58   H36   S    
C14   H6    S    
C55   H15   S    
C16   O1    A    
C56   H33   S    
C62   H46   S    
C45   H30   S    
C6    C66   S    
Cr4   O11   S    
C52   O24   A    
C65   C66   A    
C57   H23   S    
C5    H53   S    
C61   H42   S    
C14   C15   S    
Cr2   O13   S    
C8    C49   S    
Cr2   O19   S    
