data_mof_unit_58953.cif
_audit_creation_date              2012-12-11T15:48:48-0500
_audit_creation_method            fapswitch 2.2
_symmetry_space_group_name_H-M    P1
_symmetry_Int_Tables_number       1
_space_group_crystal_system       triclinic
_cell_length_a                    10.912804
_cell_length_b                    11.069779
_cell_length_c                    18.748351
_cell_angle_alpha                 90.873562
_cell_angle_beta                  90.389298
_cell_angle_gamma                 60.297622
_cell_volume                      1967.03929535

loop_
_atom_site_label
_atom_site_type_symbol
_atom_type_description
_atom_site_fract_x
_atom_site_fract_y
_atom_site_fract_z
_atom_type_partial_charge
C1    C     C_R   0.235366 0.647640 0.609015 0.532485
C2    C     C_R   0.593666 0.105422 0.698777 -0.161598
C3    C     C_R   0.599372 0.081077 0.771465 0.096664
C4    C     C_R   0.628181 0.588116 0.608681 0.555772
C5    C     C_3   0.931233 0.095904 0.785845 -0.276115
C6    C     C_3   0.927075 0.107419 0.705218 -0.274140
C7    C     C_R   0.679382 0.150243 0.667393 -0.011095
C8    C     C_R   0.168468 0.674998 0.832101 0.014542
C9    C     C_R   0.137281 0.587716 0.790891 0.020747
C10   C     C_R   0.146845 0.583456 0.716945 -0.001366
C11   C     C_R   0.190071 0.775565 0.722719 -0.182612
C12   C     C_3   0.757705 0.493697 0.802034 -0.238040
C13   C     C_R   0.197867 0.767680 0.796661 -0.186949
C14   C     C_3   0.208016 0.434509 0.794600 -0.290402
C15   C     C_3   0.216881 0.429039 0.713991 -0.269779
C16   C     C_R   0.631149 0.223681 0.600649 0.539266
C17   C     C_R   0.179015 0.673933 0.681484 0.013486
C18   C     C_R   0.651175 0.659885 0.165096 0.018316
C19   C     C_R   0.746168 0.538049 0.201126 0.032230
C20   C     C_R   0.742460 0.531093 0.273911 0.036963
C21   C     C_R   0.532065 0.754091 0.278540 -0.162171
C22   C     C_R   0.534994 0.762066 0.203659 -0.171313
C23   C     C_3   0.690851 0.651745 0.818234 0.067742
C24   C     C_3   0.904886 0.455479 0.201628 -0.265292
C25   C     C_3   0.898655 0.450931 0.281814 -0.280120
C26   C     C_R   0.643757 0.642235 0.314626 0.018094
C27   C     C_R   0.633548 0.191652 0.168067 0.019629
C28   C     C_R   0.220607 0.648790 0.402183 0.555069
C29   C     C_R   0.515006 0.210219 0.205851 0.019272
C30   C     C_R   0.512196 0.221201 0.278812 0.032781
C31   C     C_R   0.730324 0.225153 0.277748 -0.154447
C32   C     C_R   0.731733 0.217783 0.203371 -0.156626
C33   C     C_3   0.443880 0.124093 0.207626 -0.270868
C34   C     C_3   0.649831 0.614648 0.684120 0.044437
C35   C     C_3   0.440505 0.137730 0.287969 -0.279772
C36   C     C_R   0.626335 0.213884 0.316187 0.022282
C37   C     C_R   0.118219 0.691283 0.188497 0.025409
C38   C     C_R   0.069367 0.809938 0.231907 0.045908
C39   C     C_R   0.081780 0.801030 0.304435 0.016075
C40   C     C_R   0.639490 0.619255 0.390637 0.554190
C41   C     C_R   0.173048 0.552843 0.293929 -0.165547
C42   C     C_R   0.161048 0.562921 0.220009 -0.178887
C43   C     C_3   0.100879 0.926409 0.228708 -0.265439
C44   C     C_3   0.110787 0.920225 0.308997 -0.272977
C45   C     C_3   0.731866 0.694527 0.689290 -0.229745
C46   C     C_R   0.146685 0.670459 0.335826 0.018220
C47   C     C_R   0.724134 0.047129 0.888319 0.567665
C48   C     C_R   0.717864 0.681719 0.891740 0.539051
C49   C     C_R   0.116196 0.707413 0.905139 0.533988
C50   C     C_R   0.672318 0.112284 0.102115 0.555241
C51   C     C_R   0.694779 0.689140 0.096819 0.542693
C52   C     C_R   0.612299 0.237684 0.392274 0.549723
C53   C     C_R   0.088948 0.712786 0.113719 0.547766
C54   C     C_3   0.531391 0.714519 0.803261 -0.247237
C55   C     C_3   0.507890 0.699078 0.723270 -0.243785
C56   C     C_3   0.732491 0.473728 0.722853 -0.233373
C57   C     C_3   0.766428 0.704706 0.767648 -0.226395
C58   C     C_3   0.377799 0.112801 0.820253 -0.285898
C59   C     C_R   0.700363 0.095447 0.814641 0.036145
C60   C     C_R   0.777139 0.151026 0.783667 -0.027866
C61   C     C_R   0.771124 0.171479 0.710638 -0.005562
Cr1   Cr    Cr6+3 0.392960 0.397920 0.502240 1.000912
Cr2   Cr    Cr6+3 0.398340 0.708480 0.501250 0.998205
Cr3   Cr    Cr6+3 0.708670 0.393570 0.496460 1.001982
Cr4   Cr    Cr6+3 0.937650 0.938540 0.007610 1.000730
Cr5   Cr    Cr6+3 0.625330 0.937370 0.994520 1.006542
Cr6   Cr    Cr6+3 0.937940 0.625230 0.001190 0.995676
H1    H     H_    0.468071 0.822899 0.821773 0.139197
H2    H     H_    0.210709 0.851648 0.698356 0.137708
H3    H     H_    0.490550 0.657410 0.834689 0.114073
H4    H     H_    0.217723 0.841233 0.826124 0.128030
H5    H     H_    0.136690 0.399134 0.816320 0.131238
H6    H     H_    0.312588 0.393164 0.820757 0.139560
H7    H     H_    0.327250 0.378864 0.694209 0.177416
H8    H     H_    0.149098 0.391927 0.688434 0.126188
H9    H     H_    0.446504 0.837365 0.308069 0.120773
H10   H     H_    0.453137 0.852137 0.176996 0.114774
H11   H     H_    0.954482 0.516070 0.183993 0.178299
H12   H     H_    0.835692 0.407791 0.696430 0.139333
H13   H     H_    0.946492 0.351676 0.175499 0.122620
H14   H     H_    0.938720 0.344445 0.302281 0.130417
H15   H     H_    0.451280 0.639798 0.717353 0.130055
H16   H     H_    0.940437 0.512129 0.309803 0.145821
H17   H     H_    0.812789 0.234081 0.305064 0.128207
H18   H     H_    0.817311 0.217298 0.174398 0.118194
H19   H     H_    0.514721 0.016057 0.189080 0.169438
H20   H     H_    0.337400 0.177361 0.182826 0.127360
H21   H     H_    0.332057 0.200296 0.309820 0.132803
H22   H     H_    0.508154 0.037648 0.315307 0.140173
H23   H     H_    0.881597 0.637526 0.774481 0.133241
H24   H     H_    0.217925 0.450633 0.316956 0.142802
H25   H     H_    0.190871 0.470430 0.187753 0.122633
H26   H     H_    0.011045 0.023440 0.208935 0.143127
H27   H     H_    0.444502 0.803475 0.699303 0.127047
H28   H     H_    0.203338 0.895331 0.202204 0.137363
H29   H     H_    0.217814 0.892782 0.327570 0.163151
H30   H     H_    0.023934 0.012889 0.335992 0.129349
H31   H     H_    0.747974 0.809191 0.781657 0.136898
H32   H     H_    0.668269 0.800331 0.666830 0.122172
H33   H     H_    0.873356 0.437620 0.812326 0.130624
H34   H     H_    0.831665 0.640153 0.658058 0.141710
H35   H     H_    0.710930 0.446247 0.836701 0.125405
H36   H     H_    0.667084 0.423249 0.719746 0.125662
H37   H     H_    0.517119 0.953242 0.758859 0.231656
H38   H     H_    0.311066 0.166696 0.773601 0.119894
H39   H     H_    0.374947 0.186556 0.861458 0.182702
H40   H     H_    0.333021 0.052903 0.845124 0.118263
H41   H     H_    0.518308 0.091420 0.666783 0.133621
H42   H     H_    0.982366 0.990295 0.806610 0.167934
H43   H     H_    0.959058 0.168413 0.813676 0.129946
H44   H     H_    0.962543 0.178935 0.685611 0.126843
H45   H     H_    0.972863 0.006660 0.675936 0.149604
N1    N     N_2   0.520343 0.019425 0.796889 -0.486684
O1    O     O_R   0.507380 0.255700 0.581440 -0.535342
O2    O     O_R   0.837170 0.593410 0.915250 -0.532089
O3    O     O_R   0.065200 0.635530 0.931570 -0.498181
O4    O     O_R   0.280320 0.527350 0.578930 -0.504539
O5    O     O_R   0.068260 0.828890 0.091840 -0.519847
O6    O     O_R   0.798870 0.057410 0.079340 -0.503321
O7    O     O_R   0.584930 0.080350 0.076780 -0.525251
O8    O     O_R   0.626960 0.809650 0.067060 -0.510678
O9    O     O_R   0.816040 0.596610 0.076510 -0.525750
O10   O     O_R   0.045610 0.638500 0.081060 -0.511878
O11   O     O_3   0.833640 0.833710 0.001100 -0.264273
O12   O     O_R   0.524480 0.695810 0.424040 -0.503313
O13   O     O_R   0.260510 0.739590 0.584590 -0.538693
O14   O     O_R   0.532300 0.695080 0.573820 -0.504728
O15   O     O_R   0.744840 0.503500 0.576370 -0.527037
O16   O     O_R   0.699120 0.276560 0.571960 -0.511341
O17   O     O_R   0.498940 0.256500 0.419860 -0.518419
O18   O     O_R   0.272500 0.528080 0.429150 -0.509371
O19   O     O_R   0.252060 0.740380 0.423010 -0.524497
O20   O     O_R   0.736390 0.504290 0.414790 -0.516748
O21   O     O_R   0.691300 0.277290 0.422170 -0.512011
O22   O     O_3   0.499990 0.499990 0.499980 -0.268303
O23   O     O_R   0.089400 0.825690 0.930570 -0.537750
O24   O     O_R   0.818460 0.054440 0.929850 -0.509713
O25   O     O_R   0.606060 0.077150 0.915510 -0.496705
O26   O     O_R   0.646550 0.806680 0.917570 -0.497345

loop_
_geom_bond_atom_site_label_1
_geom_bond_atom_site_label_2
_ccdc_geom_bond_type
C15   H8    S    
C21   C26   A    
C34   C56   S    
C8    C13   A    
C27   C29   A    
C52   O21   A    
C6    H44   S    
Cr1   O17   S    
C2    C7    A    
C9    C14   S    
Cr6   O11   S    
C45   H32   S    
C21   H9    S    
C45   C57   S    
C37   C38   A    
C56   H12   S    
C20   C26   A    
C30   C35   S    
C50   O7    A    
C6    C61   S    
Cr1   O1    S    
C10   C15   S    
C31   C36   A    
C38   C39   A    
C54   H1    S    
C20   C25   S    
C32   H18   S    
C10   C17   A    
Cr5   O25   S    
Cr6   O3    S    
C29   C33   S    
C18   C19   A    
C41   C42   A    
Cr4   O11   S    
C37   C42   A    
C15   H7    S    
Cr6   O2    S    
C7    C61   A    
Cr1   O4    S    
C43   H26   S    
Cr3   O20   S    
C40   O12   A    
C24   H13   S    
Cr5   O26   S    
C19   C20   A    
C8    C9    A    
Cr3   O15   S    
C54   H3    S    
C58   N1    S    
C43   H28   S    
C41   C46   A    
C9    C10   A    
C36   C52   S    
C27   C50   S    
Cr4   O24   S    
Cr3   O22   S    
C34   C55   S    
Cr5   O7    S    
C21   C22   A    
C25   H14   S    
C14   H5    S    
C55   H27   S    
C18   C51   S    
C4    C34   S    
Cr3   O21   S    
C57   H23   S    
C4    O15   A    
C50   O6    A    
Cr4   O23   S    
C14   H6    S    
C1    O13   A    
C56   H36   S    
C35   H21   S    
C3    N1    S    
C53   O5    A    
C13   H4    S    
C31   H17   S    
C16   O1    A    
C60   C61   A    
C58   H39   S    
Cr2   O22   S    
Cr1   O22   S    
C12   C56   S    
C43   C44   S    
C12   H35   S    
C29   C30   A    
C44   H29   S    
C44   H30   S    
C31   C32   A    
C12   C23   S    
Cr4   O5    S    
C28   C46   S    
C47   O24   A    
Cr4   O6    S    
Cr5   O8    S    
C34   C45   S    
C1    O4    A    
Cr2   O19   S    
C24   C25   S    
C55   H15   S    
C16   O16   A    
Cr2   O12   S    
C45   H34   S    
C48   O2    A    
C35   H22   S    
C24   H11   S    
C7    C16   S    
C41   H24   S    
C49   O23   A    
C39   C46   A    
C53   O10   A    
C51   O8    A    
Cr5   O11   S    
Cr6   O9    S    
C58   H40   S    
C23   C54   S    
C23   C57   S    
C54   C55   S    
C11   C17   A    
C23   C48   S    
C4    O14   A    
C27   C32   A    
C18   C22   A    
C6    H45   S    
Cr1   O18   S    
C22   H10   S    
Cr6   O10   S    
C11   H2    S    
C39   C44   S    
C40   O20   A    
C1    C17   S    
C30   C36   A    
C28   O18   A    
C52   O17   A    
C58   H38   S    
C2    C3    A    
C33   H20   S    
C37   C53   S    
C38   C43   S    
C48   O26   A    
C11   C13   A    
C26   C40   S    
C5    C6    S    
C5    H42   S    
C57   H31   S    
C47   O25   A    
C2    H41   S    
C33   C35   S    
C19   C24   S    
C42   H25   S    
C5    C60   S    
C12   H33   S    
Cr2   O13   S    
C47   C59   S    
H37   N1    S    
C59   C60   A    
C49   O3    A    
Cr3   O16   S    
C5    H43   S    
C25   H16   S    
C51   O9    A    
C14   C15   S    
C28   O19   A    
C8    C49   S    
C33   H19   S    
Cr2   O14   S    
C3    C59   A    
