data_mof_unit_6376.cif
_audit_creation_date              2012-12-11T16:31:32-0500
_audit_creation_method            fapswitch 2.2
_symmetry_space_group_name_H-M    P1
_symmetry_Int_Tables_number       1
_space_group_crystal_system       triclinic
_cell_length_a                    6.963144
_cell_length_b                    18.203065
_cell_length_c                    20.252458
_cell_angle_alpha                 68.323281
_cell_angle_beta                  91.003017
_cell_angle_gamma                 91.108326
_cell_volume                      2384.8839085

loop_
_atom_site_label
_atom_site_type_symbol
_atom_type_description
_atom_site_fract_x
_atom_site_fract_y
_atom_site_fract_z
_atom_type_partial_charge
O1    O     O_R   0.488990 0.443920 0.942160 -0.534037
O2    O     O_R   0.823840 0.406530 0.087600 -0.538373
O3    O     O_R   0.999650 0.556080 0.057840 -0.536044
C1    C     C_R   0.655295 0.383622 0.115088 0.693292
O4    O     O_R   0.818390 0.434590 0.944530 -0.539868
O5    O     O_R   0.994160 0.584350 0.913750 -0.535992
C2    C     C_R   0.647901 0.420762 0.923995 0.728572
O6    O     O_R   0.494480 0.415650 0.086250 -0.536164
O7    O     O_3   0.662600 0.549100 0.990070 -0.368897
V1    V     V_3+5 0.935320 0.490890 0.001840 1.417727
O8    O     O_R   0.324240 0.593470 0.912400 -0.537950
C3    C     C_R   0.154844 0.619803 0.887194 0.713302
O9    O     O_R   0.329690 0.565410 0.055470 -0.542513
C4    C     C_R   0.163095 0.576508 0.078460 0.728940
V2    V     V_3+5 0.435990 0.509110 0.998160 1.416329
O10   O     O_3   0.158840 0.450900 0.009930 -0.366868
C5    C     C_3   0.040037 0.657447 0.280804 -0.326276
C6    C     C_3   0.345569 0.729265 0.228010 -0.333745
C7    C     C_3   0.335488 0.777631 0.277176 -0.327377
H1    H     H_    0.105075 0.673196 0.381278 0.143916
H2    H     H_    0.118791 0.601719 0.308779 0.146044
H3    H     H_    0.431363 0.675201 0.254820 0.146482
H4    H     H_    0.416351 0.746459 0.327378 0.137885
H5    H     H_    0.406692 0.836293 0.250810 0.137041
C8    C     C_1   0.108733 0.873756 0.379143 -0.188159
C9    C     C_3   0.141198 0.706065 0.209951 0.289803
C10   C     C_3   0.030264 0.705802 0.330031 -0.327108
C11   C     C_3   0.123941 0.788901 0.294109 0.290203
C12   C     C_3   0.016533 0.831600 0.222692 -0.331047
C13   C     C_3   0.026793 0.783228 0.173491 -0.323578
C14   C     C_1   0.114845 0.835426 0.341119 -0.100326
C15   C     C_1   0.150769 0.659734 0.162758 -0.104464
C16   C     C_1   0.157582 0.621874 0.124330 -0.182061
H6    H     H_    0.891979 0.640615 0.269642 0.137081
H7    H     H_    0.877592 0.711790 0.342422 0.138714
H8    H     H_    0.080957 0.891416 0.195231 0.137942
H9    H     H_    0.102272 0.518059 0.698102 0.115029
C17   C     C_R   0.167149 0.793796 0.875147 0.112177
C18   C     C_R   0.181844 0.874116 0.865963 -0.096864
C19   C     C_R   0.178167 0.933138 0.798979 0.182871
C20   C     C_R   0.156486 0.912562 0.739913 -0.157591
C21   C     C_R   0.143035 0.832641 0.745871 0.000195
C22   C     C_R   0.151943 0.770433 0.814513 0.047928
C23   C     C_R   0.120242 0.815604 0.683419 -0.142671
C24   C     C_R   0.111944 0.736452 0.687690 0.027210
C25   C     C_R   0.125322 0.673484 0.754841 0.062573
C26   C     C_R   0.144116 0.689397 0.818545 -0.151510
C27   C     C_R   0.093438 0.718779 0.625385 -0.149114
C28   C     C_R   0.089911 0.640712 0.628623 0.231208
C29   C     C_R   0.103911 0.578940 0.694516 -0.127937
C30   C     C_R   0.120875 0.594811 0.756619 -0.188003
H10   H     H_    0.083055 0.765425 0.573430 0.096482
H11   H     H_    0.131684 0.544287 0.805918 0.118159
C31   C     C_R   0.736021 0.223831 0.125960 -0.135029
C32   C     C_R   0.775217 0.147747 0.129305 -0.121782
C33   C     C_R   0.764215 0.084113 0.193661 -0.126232
C34   C     C_R   0.713549 0.096047 0.255163 -0.141527
C35   C     C_R   0.674265 0.172704 0.253624 0.066051
C36   C     C_R   0.686092 0.237987 0.187632 0.071526
C37   C     C_R   0.621056 0.184696 0.316195 -0.171012
C38   C     C_R   0.581790 0.262163 0.312821 0.070049
C39   C     C_R   0.593916 0.327445 0.246903 0.028126
C40   C     C_R   0.645262 0.315389 0.184136 -0.172035
C41   C     C_R   0.534348 0.276325 0.374665 -0.186212
C42   C     C_R   0.499115 0.352493 0.371834 -0.117740
C43   C     C_R   0.510893 0.416754 0.307456 0.226630
C44   C     C_R   0.558033 0.404237 0.245608 -0.155285
H12   H     H_    0.744492 0.271158 0.074453 0.098985
H13   H     H_    0.813504 0.138089 0.081591 0.109173
H14   H     H_    0.704632 0.044415 0.303676 0.106369
H15   H     H_    0.525589 0.228878 0.426101 0.109887
H16   H     H_    0.567969 0.455511 0.196775 0.115602
O11   O     O_R   0.770890 0.084490 0.414040 -0.536260
O12   O     O_R   0.445980 0.065450 0.555510 -0.539764
O13   O     O_R   0.270670 0.915620 0.586180 -0.536286
C45   C     C_R   0.616218 0.079751 0.575861 0.729188
O14   O     O_R   0.441480 0.093500 0.412450 -0.537906
O15   O     O_R   0.266140 0.943870 0.442100 -0.535183
C46   C     C_R   0.610217 0.116423 0.385108 0.693213
O16   O     O_R   0.775410 0.056240 0.558120 -0.534786
O17   O     O_3   0.602660 0.950990 0.510100 -0.368195
V3    V     V_3+5 0.329740 0.009100 0.498130 1.424909
O18   O     O_R   0.936120 0.934420 0.444240 -0.542452
C47   C     C_R   0.103271 0.920125 0.424085 0.721762
O19   O     O_R   0.940610 0.906370 0.587310 -0.537417
C48   C     C_R   0.109813 0.881791 0.613331 0.691114
V4    V     V_3+5 0.829110 0.990690 0.501470 1.424705
O20   O     O_3   0.106080 0.049010 0.489880 -0.366802
C49   C     C_3   0.781312 0.286649 0.677219 0.059455
C50   C     C_3   0.423959 0.247108 0.703461 0.039100
C51   C     C_3   0.416520 0.292149 0.756670 0.044465
H17   H     H_    0.329756 0.193373 0.723604 0.147926
H18   H     H_    0.363586 0.353188 0.728707 0.145524
C52   C     C_1   0.634300 0.376728 0.877367 -0.199501
C53   C     C_3   0.631233 0.216421 0.701045 0.221108
C54   C     C_3   0.761964 0.339457 0.723604 -0.020722
C55   C     C_3   0.622713 0.297784 0.787335 0.223871
C56   C     C_3   0.696964 0.212478 0.827301 -0.401591
C57   C     C_3   0.686113 0.163440 0.778829 -0.459857
C58   C     C_1   0.625659 0.340954 0.837301 -0.059718
C59   C     C_1   0.634142 0.166828 0.656472 -0.068113
C60   C     C_1   0.628689 0.126921 0.619866 -0.196072
H19   H     H_    0.827207 0.135252 0.780328 0.162641
H20   H     H_    0.578909 0.114620 0.800507 0.170206
H21   H     H_    0.847287 0.214855 0.845474 0.152059
H22   H     H_    0.906079 0.342868 0.746848 0.124021
H23   H     H_    0.615089 0.181736 0.876704 0.171250
C61   C     C_3   0.166677 0.737299 0.950761 -0.787509
H24   H     H_    0.033315 0.700894 0.960828 0.209628
H25   H     H_    0.298863 0.701943 0.961316 0.218234
H26   H     H_    0.167950 0.767561 0.989433 0.190128
H27   H     H_    0.196324 0.891274 0.911715 0.113026
C62   C     C_3   0.196843 0.018812 0.789436 -0.836179
H28   H     H_    0.212005 0.026773 0.841087 0.203223
H29   H     H_    0.325412 0.044989 0.757058 0.211203
H30   H     H_    0.067848 0.050972 0.761222 0.210740
H31   H     H_    0.151084 0.960839 0.688861 0.126710
C63   C     C_3   0.072505 0.624317 0.561309 -0.830292
H32   H     H_    0.075088 0.559927 0.572053 0.201874
H33   H     H_    0.935330 0.648325 0.533688 0.212367
H34   H     H_    0.193892 0.653200 0.525771 0.208713
C64   C     C_3   0.474502 0.499086 0.303939 -0.839915
H35   H     H_    0.438410 0.500034 0.356828 0.205902
H36   H     H_    0.604493 0.536623 0.284215 0.205241
H37   H     H_    0.352756 0.524290 0.266909 0.214409
H38   H     H_    0.794085 0.025067 0.195917 0.106621
H39   H     H_    0.463588 0.361203 0.420280 0.114619
C65   C     C_3   0.712461 0.427067 0.681211 -0.784114
H40   H     H_    0.829522 0.456429 0.643798 0.215402
H41   H     H_    0.577121 0.433588 0.650443 0.212631
H42   H     H_    0.699697 0.460169 0.717201 0.213577
H43   H     H_    0.421498 0.764903 0.178241 0.137425
C66   C     C_3   0.795456 0.332575 0.596107 -0.782618
H44   H     H_    0.919954 0.374223 0.584480 0.203799
H45   H     H_    0.820321 0.291669 0.567967 0.209273
H46   H     H_    0.666667 0.367517 0.572940 0.230875
C67   C     C_3   0.339438 0.296235 0.629531 -0.840491
H47   H     H_    0.370098 0.360213 0.613575 0.207134
H48   H     H_    0.390756 0.276184 0.587529 0.228394
H49   H     H_    0.182433 0.289007 0.630129 0.210698
C68   C     C_3   0.268271 0.252528 0.815138 -0.868647
H50   H     H_    0.128427 0.250021 0.789713 0.199338
H51   H     H_    0.305443 0.190669 0.847813 0.222800
H52   H     H_    0.251847 0.286814 0.850010 0.226705
H53   H     H_    0.922788 0.257806 0.691816 0.106283
H54   H     H_    0.878601 0.768615 0.160305 0.138034
H55   H     H_    0.096319 0.819962 0.122628 0.136078
H56   H     H_    0.863479 0.839916 0.232964 0.134682

loop_
_geom_bond_atom_site_label_1
_geom_bond_atom_site_label_2
_ccdc_geom_bond_type
C8    C14   T    
C57   H19   S    
V4    O20   S    
C37   C46   S    
C9    C15   S    
C59   C60   T    
C20   C21   A    
C6    H43   S    
C6    C9    S    
C1    O6    A    
C65   H40   S    
C50   C67   S    
C12   H56   S    
C55   C56   S    
C50   C51   S    
C13   H55   S    
O19   C48   A    
C33   C34   A    
C49   H53   S    
C67   H48   S    
C12   H8    S    
C12   C13   S    
C56   H21   S    
O12   C45   A    
C39   C44   A    
C8    C47   S    
C18   H27   S    
C5    C9    S    
C42   H39   S    
C11   C12   S    
O12   V3    S    
C6    C7    S    
O16   V4    S    
C68   H51   S    
O5    C3    A    
C17   C18   A    
C53   C57   S    
C31   H12   S    
C35   C37   A    
V2    O10   S    
C61   H24   S    
C54   C65   S    
C44   H16   S    
C41   H15   S    
C28   C29   A    
C63   H32   S    
O11   V4    S    
C31   C32   A    
O8    V2    S    
C19   C62   S    
C66   H46   S    
C43   C64   S    
C13   H54   S    
O1    V2    S    
C33   H38   S    
C34   H14   S    
O7    V1    S    
C62   H30   S    
O19   V4    S    
C57   H20   S    
C6    H3    S    
O9    C4    A    
C21   C23   A    
C4    C16   S    
C3    C26   S    
C23   C48   S    
O4    V1    S    
O17   V3    S    
C31   C36   A    
O14   C46   A    
C45   C60   S    
C67   H49   S    
C49   C66   S    
C5    C10   S    
C50   C53   S    
C68   H52   S    
C18   C19   A    
O4    C2    A    
C10   H7    S    
C35   C36   A    
C24   C25   A    
C25   C30   A    
C5    H2    S    
C56   H23   S    
C37   C38   A    
C30   H11   S    
C63   H34   S    
C49   C53   S    
C38   C41   A    
C7    H4    S    
C39   C40   A    
C51   H18   S    
O15   V3    S    
O13   C48   A    
C50   H17   S    
O18   C47   A    
C1    C40   S    
C52   C58   T    
C54   C55   S    
C32   C33   A    
C29   C30   A    
O11   C46   A    
C32   H13   S    
C51   C55   S    
C7    C11   S    
O17   V4    S    
O3    C4    A    
C27   C28   A    
C42   C43   A    
O6    V2    S    
O9    V2    S    
C66   H44   S    
C21   C22   A    
C64   H36   S    
O2    V1    S    
C65   H42   S    
C55   C58   S    
C23   C24   A    
C62   H28   S    
C24   C27   A    
C2    C52   S    
C54   H22   S    
C25   C26   A    
C19   C20   A    
O1    C2    A    
C11   C14   S    
C45   O16   A    
C65   H41   S    
O18   V4    S    
O5    V1    S    
O8    C3    A    
O13   V3    S    
C9    C13   S    
H1    C10   S    
C51   C68   S    
C67   H47   S    
C36   C40   A    
C61   H26   S    
C41   C42   A    
C49   C54   S    
C7    H5    S    
O7    V2    S    
C17   C22   A    
O3    V1    S    
V1    O10   S    
C68   H50   S    
C15   C16   T    
H9    C29   S    
C34   C35   A    
O14   V3    S    
C64   H37   S    
V3    O20   S    
O2    C1    A    
C61   H25   S    
C43   C44   A    
C17   C61   S    
C38   C39   A    
C63   H33   S    
C28   C63   S    
O15   C47   A    
C27   H10   S    
C56   C57   S    
C5    H6    S    
C10   C11   S    
C66   H45   S    
C20   H31   S    
C64   H35   S    
C22   C26   A    
C53   C59   S    
C62   H29   S    
