data_mof_unit_47472.cif
_audit_creation_date              2012-12-11T15:25:37-0500
_audit_creation_method            fapswitch 2.2
_symmetry_space_group_name_H-M    P1
_symmetry_Int_Tables_number       1
_space_group_crystal_system       triclinic
_cell_length_a                    24.542092
_cell_length_b                    17.102298
_cell_length_c                    15.6399
_cell_angle_alpha                 89.999748
_cell_angle_beta                  50.597172
_cell_angle_gamma                 89.999963
_cell_volume                      5072.38482363

loop_
_atom_site_label
_atom_site_type_symbol
_atom_type_description
_atom_site_fract_x
_atom_site_fract_y
_atom_site_fract_z
_atom_type_partial_charge
C1    C     C_R   0.337014 0.121826 0.788669 -0.109633
C2    C     C_R   0.661026 0.872910 0.219246 -0.105862
C3    C     C_R   0.662988 0.121820 0.211324 -0.109690
C4    C     C_R   0.338980 0.872898 0.780738 -0.105830
C5    C     C_R   0.837010 0.621815 0.788681 -0.109626
C6    C     C_R   0.161017 0.372892 0.219269 -0.105815
C7    C     C_R   0.162986 0.621825 0.211329 -0.109599
C8    C     C_R   0.838981 0.372897 0.780738 -0.105890
C9    C     C_2   0.675366 0.219569 0.083161 -0.212721
C10   C     C_2   0.312092 0.803408 0.942858 -0.243115
C11   C     C_2   0.324638 0.219583 0.916823 -0.212773
C12   C     C_2   0.687918 0.803435 0.057111 -0.243155
C13   C     C_2   0.175360 0.719578 0.083172 -0.212723
C14   C     C_2   0.812095 0.303404 0.942854 -0.243170
C15   C     C_2   0.824636 0.719560 0.916845 -0.212653
C16   C     C_2   0.187900 0.303391 0.057162 -0.243130
C17   C     C_2   0.691938 0.284287 0.112353 -0.123947
C18   C     C_2   0.248523 0.835498 0.023930 -0.119983
C19   C     C_2   0.308049 0.284291 0.887638 -0.123879
C20   C     C_2   0.751506 0.835501 0.976068 -0.119833
C21   C     C_2   0.191938 0.784293 0.112361 -0.123891
C22   C     C_2   0.748525 0.335491 0.023924 -0.119921
C23   C     C_2   0.808079 0.784287 0.887645 -0.123927
C24   C     C_2   0.251460 0.335492 0.976073 -0.120023
C25   C     C_R   0.587798 0.146729 0.589286 -0.021847
C26   C     C_R   0.384897 0.897594 0.408846 -0.098306
C27   C     C_R   0.412201 0.146729 0.410713 -0.021830
C28   C     C_R   0.615103 0.897591 0.591153 -0.098364
C29   C     C_R   0.087797 0.646729 0.589287 -0.021817
C30   C     C_R   0.884897 0.397594 0.408846 -0.098355
C31   C     C_R   0.912203 0.646729 0.410712 -0.021848
C32   C     C_R   0.115103 0.397595 0.591155 -0.098328
C33   C     C_R   0.664985 0.142759 0.406524 -0.103855
C34   C     C_R   0.311139 0.896553 0.592155 -0.114689
C35   C     C_R   0.335013 0.142757 0.593475 -0.103866
C36   C     C_R   0.688860 0.896551 0.407844 -0.114674
C37   C     C_R   0.164985 0.642759 0.406526 -0.103873
C38   C     C_R   0.811139 0.396553 0.592155 -0.114680
C39   C     C_R   0.835018 0.642761 0.593474 -0.103858
C40   C     C_R   0.188860 0.396554 0.407845 -0.114692
C41   C     C_R   0.575144 0.119944 0.205235 -0.043100
C42   C     C_R   0.427389 0.872020 0.786546 -0.016574
C43   C     C_R   0.424858 0.119951 0.794759 -0.043110
C44   C     C_R   0.572616 0.872031 0.213440 -0.016619
C45   C     C_R   0.075142 0.619948 0.205239 -0.043088
C46   C     C_R   0.927391 0.372018 0.786543 -0.016558
C47   C     C_R   0.924855 0.619939 0.794768 -0.043069
C48   C     C_R   0.072607 0.372013 0.213463 -0.016532
C49   C     C_R   0.360095 0.153878 0.840580 0.094585
C50   C     C_R   0.639044 0.840972 0.165279 0.091308
C51   C     C_R   0.639910 0.153866 0.159406 0.094676
C52   C     C_R   0.360966 0.840949 0.834692 0.091336
C53   C     C_R   0.860088 0.653857 0.840602 0.094543
C54   C     C_R   0.139027 0.340938 0.165322 0.091345
C55   C     C_R   0.139906 0.653874 0.159416 0.094524
C56   C     C_R   0.860968 0.340948 0.834691 0.091314
C57   C     C_R   0.639845 0.189145 0.496945 0.001066
C58   C     C_R   0.316360 0.881545 0.500306 0.037793
C59   C     C_R   0.360153 0.189143 0.503054 0.001057
C60   C     C_R   0.683640 0.881542 0.499693 0.037789
C61   C     C_R   0.139845 0.689144 0.496947 0.001068
C62   C     C_R   0.816360 0.381545 0.500306 0.037799
C63   C     C_R   0.860158 0.689146 0.503051 0.001076
C64   C     C_R   0.183640 0.381547 0.499695 0.037804
C65   C     C_R   0.269576 0.292523 0.603282 -0.078975
C66   C     C_R   0.807726 0.843134 0.402049 -0.142393
C67   C     C_R   0.730419 0.292529 0.396719 -0.079003
C68   C     C_R   0.192274 0.843139 0.597947 -0.142389
C69   C     C_R   0.769589 0.792536 0.603275 -0.079042
C70   C     C_R   0.307726 0.343143 0.402057 -0.142397
C71   C     C_R   0.230418 0.792529 0.396721 -0.078998
C72   C     C_R   0.692274 0.343140 0.597944 -0.142398
C73   C     C_R   0.724517 0.840177 0.602353 -0.132918
C74   C     C_R   0.353064 0.295880 0.403111 -0.127438
C75   C     C_R   0.275487 0.840174 0.397643 -0.132901
C76   C     C_R   0.646935 0.295880 0.596890 -0.127440
C77   C     C_R   0.224508 0.340170 0.602359 -0.132893
C78   C     C_R   0.853067 0.795877 0.403103 -0.127435
C79   C     C_R   0.775489 0.340173 0.397641 -0.132910
C80   C     C_R   0.146935 0.795878 0.596893 -0.127431
C81   C     C_R   0.740240 0.858628 0.501348 0.112232
C82   C     C_R   0.330213 0.263065 0.503353 0.111127
C83   C     C_R   0.259761 0.858631 0.498649 0.112217
C84   C     C_R   0.669784 0.263068 0.496647 0.111160
C85   C     C_R   0.240238 0.358632 0.501353 0.112216
C86   C     C_R   0.830221 0.763070 0.503347 0.111162
C87   C     C_R   0.759761 0.358630 0.498648 0.112226
C88   C     C_R   0.169783 0.763067 0.496650 0.111135
H1    H     H_    0.284196 0.126138 0.816171 0.095327
H2    H     H_    0.712950 0.868675 0.195757 0.104379
H3    H     H_    0.715806 0.126132 0.183822 0.095331
H4    H     H_    0.287055 0.868660 0.804227 0.104367
H5    H     H_    0.784193 0.626128 0.816181 0.095336
H6    H     H_    0.212942 0.368654 0.195778 0.104361
H7    H     H_    0.215804 0.626139 0.183827 0.095328
H8    H     H_    0.787056 0.368659 0.804227 0.104388
H9    H     H_    0.557704 0.167280 0.671959 0.098962
H10   H     H_    0.404058 0.905041 0.325655 0.136011
H11   H     H_    0.442297 0.167281 0.328039 0.098964
H12   H     H_    0.595943 0.905036 0.674343 0.136038
H13   H     H_    0.057700 0.667280 0.671962 0.098963
H14   H     H_    0.904057 0.405042 0.325656 0.136027
H15   H     H_    0.942298 0.667279 0.328038 0.098961
H16   H     H_    0.095941 0.405043 0.674345 0.136014
H17   H     H_    0.709011 0.154949 0.321817 0.092584
H18   H     H_    0.263472 0.900307 0.677198 0.097122
H19   H     H_    0.290986 0.154945 0.678182 0.092577
H20   H     H_    0.736528 0.900306 0.322801 0.097135
H21   H     H_    0.209012 0.654949 0.321819 0.092577
H22   H     H_    0.763471 0.400306 0.677198 0.097123
H23   H     H_    0.790994 0.654954 0.678182 0.092581
H24   H     H_    0.236528 0.400307 0.322802 0.097112
H25   H     H_    0.252576 0.272601 0.682442 0.134165
H26   H     H_    0.823348 0.860681 0.322859 0.124853
H27   H     H_    0.747417 0.272612 0.317559 0.134142
H28   H     H_    0.176650 0.860689 0.677137 0.124847
H29   H     H_    0.752597 0.772625 0.682435 0.134132
H30   H     H_    0.323351 0.360698 0.322866 0.124838
H31   H     H_    0.247416 0.772612 0.317561 0.134154
H32   H     H_    0.676649 0.360692 0.677135 0.124843
H33   H     H_    0.674665 0.855021 0.681163 0.127800
H34   H     H_    0.402174 0.279161 0.324394 0.129233
H35   H     H_    0.325341 0.855015 0.318833 0.127806
H36   H     H_    0.597825 0.279159 0.675607 0.129229
H37   H     H_    0.174653 0.355007 0.681169 0.127804
H38   H     H_    0.902174 0.779153 0.324385 0.129235
H39   H     H_    0.825343 0.355012 0.318833 0.127803
H40   H     H_    0.097826 0.779156 0.675611 0.129241
H41   H     H_    0.323190 0.743185 0.949432 0.174392
H42   H     H_    0.698094 0.209991 0.997600 0.179400
H43   H     H_    0.676794 0.743230 0.050508 0.174384
H44   H     H_    0.301924 0.210013 0.002379 0.179401
H45   H     H_    0.823194 0.243182 0.949428 0.174375
H46   H     H_    0.198083 0.710004 0.997613 0.179385
H47   H     H_    0.176812 0.243158 0.050605 0.174379
H48   H     H_    0.801899 0.709979 0.002410 0.179379
N1    N     N_R   0.388930 0.078160 0.705470 -0.042672
N2    N     N_R   0.611070 0.921840 0.294530 -0.056204
N3    N     N_R   0.611070 0.078160 0.294530 -0.042674
N4    N     N_R   0.388930 0.921840 0.705470 -0.056195
N5    N     N_R   0.888930 0.578160 0.705470 -0.042673
N6    N     N_R   0.111070 0.421840 0.294530 -0.056192
N7    N     N_R   0.111070 0.578160 0.294530 -0.042671
N8    N     N_R   0.888930 0.421840 0.705470 -0.056201
N9    N     N_R   0.580500 0.077840 0.556650 -0.035939
N10   N     N_R   0.419500 0.922160 0.443350 -0.051371
N11   N     N_R   0.419500 0.077840 0.443350 -0.035942
N12   N     N_R   0.580500 0.922160 0.556650 -0.051367
N13   N     N_R   0.080500 0.577840 0.556650 -0.035941
N14   N     N_R   0.919500 0.422160 0.443350 -0.051374
N15   N     N_R   0.919500 0.577840 0.443350 -0.035941
N16   N     N_R   0.080500 0.422160 0.556650 -0.051374
N17   N     N_R   0.626210 0.077590 0.443410 -0.049606
N18   N     N_R   0.373790 0.922410 0.556590 -0.049303
N19   N     N_R   0.373790 0.077590 0.556590 -0.049606
N20   N     N_R   0.626210 0.922410 0.443410 -0.049300
N21   N     N_R   0.126210 0.577590 0.443410 -0.049607
N22   N     N_R   0.873790 0.422410 0.556590 -0.049301
N23   N     N_R   0.873790 0.577590 0.556590 -0.049607
N24   N     N_R   0.126210 0.422410 0.443410 -0.049304
N25   N     N_R   0.554800 0.077270 0.294580 -0.057323
N26   N     N_R   0.445200 0.922730 0.705420 -0.073330
N27   N     N_R   0.445200 0.077270 0.705420 -0.057306
N28   N     N_R   0.554800 0.922730 0.294580 -0.073352
N29   N     N_R   0.054800 0.577270 0.294580 -0.057302
N30   N     N_R   0.945200 0.422730 0.705420 -0.073344
N31   N     N_R   0.945200 0.577270 0.705420 -0.057312
N32   N     N_R   0.054800 0.422730 0.294580 -0.073330
Ni1   Ni    Ni4+2 0.382710 0.000000 0.629850 0.225576
Ni2   Ni    Ni4+2 0.617290 0.000000 0.370150 0.225580
Ni3   Ni    Ni4+2 0.882710 0.500000 0.629850 0.225568
Ni4   Ni    Ni4+2 0.117290 0.500000 0.370150 0.225569
Ni5   Ni    Ni4+2 0.513020 0.000000 0.629850 0.286425
Ni6   Ni    Ni4+2 0.486980 0.000000 0.370150 0.286397
Ni7   Ni    Ni4+2 0.013020 0.500000 0.629850 0.286401
Ni8   Ni    Ni4+2 0.986980 0.500000 0.370150 0.286419
C89   C     C_2   0.544381 0.115303 0.148949 1.007445
O1    O     O_2   0.570574 0.152646 0.064249 -0.631206
O2    O     O_R   0.485408 0.068537 0.192276 -0.781971
H49   H     H_    0.468621 0.071749 0.147534 0.346239
C90   C     C_2   0.464197 0.859849 0.831358 0.983369
O3    O     O_2   0.475868 0.793225 0.844234 -0.638952
O4    O     O_R   0.481332 0.923213 0.866071 -0.765596
H50   H     H_    0.504963 0.906814 0.897863 0.324632
C91   C     C_2   0.455617 0.115315 0.851050 1.007420
O5    O     O_2   0.429425 0.152664 0.935745 -0.631244
O6    O     O_R   0.514588 0.068546 0.807733 -0.781930
H51   H     H_    0.531372 0.071761 0.852478 0.346243
C92   C     C_2   0.535799 0.859854 0.168645 0.983351
O7    O     O_2   0.524094 0.793230 0.155832 -0.638959
O8    O     O_R   0.518692 0.923211 0.133880 -0.765596
H52   H     H_    0.495051 0.906807 0.102105 0.324635
C93   C     C_2   0.044383 0.615306 0.148949 1.007431
O9    O     O_2   0.070575 0.652651 0.064251 -0.631231
O10   O     O_R   0.985412 0.568535 0.192270 -0.781945
H53   H     H_    0.968628 0.571745 0.147525 0.346244
C94   C     C_2   0.964204 0.359843 0.831345 0.983376
O11   O     O_2   0.975910 0.293219 0.844158 -0.638953
O12   O     O_R   0.981306 0.423201 0.866116 -0.765581
H54   H     H_    0.004946 0.406797 0.897893 0.324629
C95   C     C_2   0.955619 0.615294 0.851052 1.007451
O13   O     O_2   0.929426 0.652632 0.935755 -0.631198
O14   O     O_R   0.014594 0.568529 0.807718 -0.781973
H55   H     H_    0.031381 0.571737 0.852460 0.346239
C96   C     C_2   0.035797 0.359840 0.168654 0.983379
O15   O     O_2   0.024106 0.293217 0.155815 -0.638951
O16   O     O_R   0.018684 0.423202 0.133905 -0.765578
H56   H     H_    0.995050 0.406801 0.102117 0.324629
C97   C     C_2   0.233501 0.920502 0.028507 1.081019
O17   O     O_2   0.172864 0.942601 0.077678 -0.634508
O18   O     O_R   0.287952 0.975320 0.980514 -0.793040
H57   H     H_    0.270239 0.031014 0.993006 0.316991
C98   C     C_2   0.655819 0.306020 0.229915 1.061542
O19   O     O_2   0.683959 0.352231 0.250837 -0.648804
O20   O     O_R   0.589105 0.276072 0.316065 -0.798389
H58   H     H_    0.570829 0.295192 0.391493 0.327967
C99   C     C_2   0.766566 0.920487 0.971529 1.080919
O21   O     O_2   0.827202 0.942536 0.922517 -0.634536
O22   O     O_R   0.712154 0.975345 0.019392 -0.792948
H59   H     H_    0.729893 0.031024 0.006959 0.316969
C100  C     C_2   0.344149 0.306015 0.770080 1.061607
O23   O     O_2   0.315988 0.352205 0.749173 -0.648829
O24   O     O_R   0.410869 0.276081 0.683916 -0.798369
H60   H     H_    0.429126 0.295191 0.608493 0.327955
C101  C     C_2   0.733504 0.420493 0.028498 1.081101
O25   O     O_2   0.672879 0.442588 0.077606 -0.634562
O26   O     O_R   0.787944 0.475312 0.980567 -0.793021
H61   H     H_    0.770234 0.531005 0.993052 0.316999
C102  C     C_2   0.155828 0.806023 0.229921 1.061568
O27   O     O_2   0.183978 0.852227 0.250833 -0.648815
O28   O     O_R   0.089112 0.776078 0.316079 -0.798373
H62   H     H_    0.070844 0.795195 0.391506 0.327950
C103  C     C_2   0.266467 0.420506 0.971469 1.081050
O29   O     O_2   0.327105 0.442630 0.922218 -0.634491
O30   O     O_R   0.212000 0.475308 0.019519 -0.793071
H63   H     H_    0.229704 0.531007 0.006990 0.317006
C104  C     C_2   0.844203 0.806024 0.770083 1.061447
O31   O     O_2   0.816072 0.852253 0.749166 -0.648791
O32   O     O_R   0.910910 0.776058 0.683929 -0.798383
H64   H     H_    0.929186 0.795183 0.608502 0.327959

loop_
_geom_bond_atom_site_label_1
_geom_bond_atom_site_label_2
_ccdc_geom_bond_type
C68   C80   A    
N14   Ni8   S    
O14   H55   S    
N16   N24   A    
N4    Ni1   S    
N25   Ni6   S    
C12   H43   S    
C41   N25   A    
C36   H20   S    
C18   C21   S    
C95   O13   D    
C14   C56   S    
O32   H64   S    
C8    H8    S    
C59   C82   S    
C7    C55   A    
C72   C76   A    
C10   C52   S    
C11   H44   S    
C76   C84   A    
C7    N7    A    
C65   C82   A    
N11   Ni6   S    
C77   H37   S    
C40   H24   S    
C22   C101  S    
C90   O3    D    
N29   Ni8   S    
C48   C54   A    
N8    Ni3   S    
C11   C19   D    
N30   Ni7   S    
C100  O23   D    
N23   Ni3   S    
C12   C20   D    
C4    C52   A    
C20   C99   S    
C75   H35   S    
C15   C53   S    
C3    H3    S    
N20   Ni2   S    
C35   N19   A    
N7    Ni4   S    
N21   Ni4   S    
C23   C104  S    
C33   N17   A    
N22   Ni3   S    
C91   O6    S    
N2    Ni2   S    
C43   C91   S    
N4    N26   A    
N5    Ni3   S    
C31   N15   A    
C47   C95   S    
N3    Ni2   S    
C35   C59   A    
C13   H46   S    
C37   N21   A    
C26   N10   A    
C67   H27   S    
N7    N29   A    
C44   C50   A    
C24   C103  S    
C2    C50   A    
C101  O26   S    
N16   Ni7   S    
C5    N5    A    
C75   C83   A    
O24   H60   S    
N12   N20   A    
C89   O2    S    
C9    C51   S    
N17   Ni2   S    
C70   C74   A    
C1    H1    S    
O30   H63   S    
C32   H16   S    
N28   Ni6   S    
C96   O15   D    
C38   H22   S    
C66   H26   S    
C103  O29   D    
C37   H21   S    
C46   N30   A    
C47   C53   A    
N9    N17   A    
C78   C86   A    
C15   C23   D    
C77   C85   A    
C67   C84   A    
C16   C24   D    
C104  O31   D    
C95   O14   S    
C8    C56   A    
C94   O11   D    
C25   C57   A    
C6    C54   A    
C17   C98   S    
C73   C81   A    
C101  O25   D    
C34   N18   A    
C42   C90   S    
C45   C93   S    
C66   C78   A    
C29   C61   A    
C28   N12   A    
N5    N31   A    
C29   H13   S    
O16   H56   S    
C2    N2    A    
C31   C63   A    
N3    N25   A    
C18   C97   S    
C67   C79   A    
C32   C64   A    
C1    C49   A    
C34   H18   S    
C90   O4    S    
O22   H59   S    
N1    N27   A    
C3    C51   A    
C43   C49   A    
C46   C94   S    
C19   C100  S    
C80   H40   S    
C6    H6    S    
C99   O21   D    
C9    H42   S    
N6    N32   A    
O10   H53   S    
N18   Ni1   S    
N8    N30   A    
N13   Ni7   S    
C76   H36   S    
C48   C96   S    
O4    H50   S    
O18   H57   S    
C102  O27   D    
C11   C49   S    
C61   C88   S    
C44   C92   S    
C4    N4    A    
C65   C77   A    
C47   N31   A    
C60   C81   S    
N19   Ni1   S    
C5    H5    S    
O26   H61   S    
C32   N16   A    
C20   C23   S    
C98   O19   D    
C21   C102  S    
N26   Ni5   S    
C30   H14   S    
C93   O10   S    
C97   O17   D    
N24   Ni4   S    
C57   C84   S    
C13   C21   D    
C8    N8    A    
C94   O12   S    
C69   C73   A    
C71   C88   A    
C26   C58   A    
C38   N22   A    
C79   C87   A    
C28   C60   A    
C68   H28   S    
C9    C17   D    
C74   H34   S    
C26   H10   S    
C89   O1    D    
C73   H33   S    
C72   H32   S    
C30   C62   A    
C63   C86   S    
N10   N18   A    
C3    N3    A    
C46   C56   A    
C78   H38   S    
C64   C85   S    
C72   C87   A    
C1    N1    A    
C37   C61   A    
C36   N20   A    
N6    Ni4   S    
C74   C82   A    
C25   H9    S    
O8    H52   S    
N32   Ni8   S    
C98   O20   S    
C79   H39   S    
C42   C52   A    
C33   C57   A    
N15   Ni8   S    
N14   N22   A    
C30   N14   A    
C39   N23   A    
C68   C83   A    
C65   H25   S    
N1    Ni1   S    
C40   N24   A    
N12   Ni5   S    
N9    Ni5   S    
C2    H2    S    
C12   C50   S    
C7    H7    S    
C42   N26   A    
C15   H48   S    
C14   H45   S    
N11   N19   A    
C99   O22   S    
C39   C63   A    
C62   C87   S    
C17   C22   S    
C40   C64   A    
C33   H17   S    
C71   H31   S    
C100  O24   S    
C14   C22   D    
C104  O32   S    
C19   C24   S    
C5    C53   A    
C10   H41   S    
O6    H51   S    
C102  O28   S    
C27   N11   A    
C27   C59   A    
C58   C83   S    
C66   C81   A    
C71   C75   A    
C39   H23   S    
C16   H47   S    
C28   H12   S    
C91   O5    D    
N13   N21   A    
C10   C18   D    
C41   C89   S    
N10   Ni6   S    
C69   H29   S    
C97   O18   S    
N15   N23   A    
C70   C85   A    
N31   Ni7   S    
O12   H54   S    
O20   H58   S    
C4    H4    S    
C92   O7    D    
C27   H11   S    
C16   C54   S    
C6    N6    A    
C35   H19   S    
C29   N13   A    
O2    H49   S    
N2    N28   A    
C43   N27   A    
C70   H30   S    
C45   C55   A    
C80   C88   A    
C93   O9    D    
C103  O30   S    
O28   H62   S    
C34   C58   A    
C36   C60   A    
C25   N9    A    
C44   N28   A    
C13   C55   S    
C96   O16   S    
C45   N29   A    
C48   N32   A    
C41   C51   A    
C69   C86   A    
C31   H15   S    
C92   O8    S    
C38   C62   A    
N27   Ni5   S    
