data_mof_unit_46120.cif
_audit_creation_date              2012-12-11T15:48:49-0500
_audit_creation_method            fapswitch 2.2
_symmetry_space_group_name_H-M    P1
_symmetry_Int_Tables_number       1
_space_group_crystal_system       triclinic
_cell_length_a                    11.066215
_cell_length_b                    10.979577
_cell_length_c                    18.723288
_cell_angle_alpha                 90.18673
_cell_angle_beta                  89.90074
_cell_angle_gamma                 60.474923
_cell_volume                      1979.4772086

loop_
_atom_site_label
_atom_site_type_symbol
_atom_type_description
_atom_site_fract_x
_atom_site_fract_y
_atom_site_fract_z
_atom_type_partial_charge
C1    C     C_R   0.290448 0.622637 0.615982 0.551649
C2    C     C_R   0.552366 0.199439 0.719682 -0.176307
C3    C     C_R   0.556337 0.198358 0.792904 -0.160306
C4    C     C_R   0.650298 0.619999 0.601794 0.528146
C5    C     C_3   0.926695 0.138578 0.789740 -0.281419
C6    C     C_3   0.919351 0.141860 0.707780 -0.284098
C7    C     C_R   0.659672 0.193939 0.678671 0.003643
C8    C     C_R   0.212931 0.655650 0.843361 0.016876
C9    C     C_R   0.253399 0.527917 0.808079 0.022165
C10   C     C_R   0.274598 0.516800 0.733940 0.033891
C11   C     C_R   0.242345 0.749367 0.731769 -0.200397
C12   C     C_3   0.696484 0.538101 0.799743 -0.267267
C13   C     C_R   0.228937 0.757258 0.805717 -0.179742
C14   C     C_3   0.189227 0.436840 0.808496 -0.281689
C15   C     C_3   0.196624 0.437433 0.727584 -0.270631
C16   C     C_R   0.627163 0.231640 0.603761 0.531676
C17   C     C_R   0.262441 0.630522 0.693721 -0.005039
C18   C     C_R   0.648948 0.673295 0.166943 0.013172
C19   C     C_R   0.707241 0.541724 0.198705 0.000816
C20   C     C_R   0.708681 0.530162 0.271527 0.032720
C21   C     C_R   0.574412 0.779048 0.285414 -0.176940
C22   C     C_R   0.572407 0.792602 0.210819 -0.163624
C23   C     C_3   0.692791 0.677745 0.812799 0.047014
C24   C     C_3   0.844416 0.410050 0.191175 -0.276957
C25   C     C_3   0.847900 0.402169 0.272038 -0.268493
C26   C     C_R   0.650493 0.646753 0.316538 0.022829
C27   C     C_R   0.661591 0.140280 0.178734 0.020838
C28   C     C_R   0.218775 0.651375 0.402480 0.543013
C29   C     C_R   0.540890 0.164355 0.213124 0.029451
C30   C     C_R   0.530410 0.179751 0.285656 0.005295
C31   C     C_R   0.770929 0.118605 0.293842 -0.170747
C32   C     C_R   0.779369 0.110851 0.219830 -0.167971
C33   C     C_3   0.394092 0.276166 0.200891 -0.127124
C34   C     C_3   0.662232 0.650324 0.676757 0.039265
C35   C     C_3   0.383000 0.297165 0.281460 -0.223929
C36   C     C_R   0.642756 0.166348 0.326350 0.021143
C37   C     C_R   0.050998 0.729837 0.195879 0.009004
C38   C     C_R   0.074198 0.827115 0.232577 0.006955
C39   C     C_R   0.107769 0.811728 0.303230 0.019684
C40   C     C_R   0.641969 0.622156 0.392026 0.543991
C41   C     C_R   0.086632 0.603461 0.307598 -0.166082
C42   C     C_R   0.044660 0.624428 0.235631 -0.163901
C43   C     C_3   0.166152 0.888158 0.215672 -0.246359
C44   C     C_3   0.199038 0.876907 0.294766 -0.105749
C45   C     C_3   0.790318 0.664239 0.686225 -0.222711
C46   C     C_R   0.130850 0.690964 0.339580 0.000805
C47   C     C_R   0.700490 0.105829 0.897647 0.534101
C48   C     C_R   0.721488 0.687758 0.889042 0.535880
C49   C     C_R   0.123643 0.703561 0.907676 0.539904
C50   C     C_R   0.677374 0.102863 0.104735 0.536472
C51   C     C_R   0.695708 0.690364 0.097184 0.545997
C52   C     C_R   0.615614 0.228864 0.395826 0.545776
C53   C     C_R   0.028440 0.746456 0.119092 0.561280
C54   C     C_3   0.547360 0.796368 0.787993 -0.211385
C55   C     C_3   0.533022 0.785195 0.706081 -0.088987
C56   C     C_3   0.677966 0.522806 0.720057 -0.237460
C57   C     C_3   0.808104 0.683875 0.766359 -0.092358
C58   C     C_3   0.375665 0.400234 0.154234 -0.266081
C59   C     C_3   0.437415 0.487696 0.183942 -0.425512
C60   C     C_3   0.502855 0.921373 0.666555 -0.276565
C61   C     C_3   0.348852 0.031425 0.669404 -0.463795
C62   C     C_3   0.138722 0.018513 0.334582 -0.262309
C63   C     C_3   0.249240 0.058421 0.350283 -0.445159
C64   C     C_3   0.822969 0.814118 0.781844 -0.266831
C65   C     C_3   0.914884 0.833406 0.727942 -0.448464
C66   C     C_R   0.675737 0.177932 0.829349 0.014776
C67   C     C_R   0.773328 0.195938 0.789734 0.008882
C68   C     C_R   0.765609 0.202558 0.715965 0.017640
Cr1   Cr    Cr6+3 0.392960 0.397920 0.502240 0.996838
Cr2   Cr    Cr6+3 0.398340 0.708480 0.501250 0.983755
Cr3   Cr    Cr6+3 0.708670 0.393570 0.496460 0.996930
Cr4   Cr    Cr6+3 0.937650 0.938540 0.007610 0.991931
Cr5   Cr    Cr6+3 0.625330 0.937370 0.994520 0.989378
Cr6   Cr    Cr6+3 0.937940 0.625230 0.001190 0.985259
H1    H     H_    0.529359 0.901855 0.803173 0.141584
H2    H     H_    0.971058 0.037758 0.681578 0.137250
H3    H     H_    0.227364 0.841879 0.704188 0.130844
H4    H     H_    0.464855 0.785244 0.816076 0.110231
H5    H     H_    0.209164 0.854144 0.831000 0.133734
H6    H     H_    0.086257 0.484913 0.833036 0.164116
H7    H     H_    0.257525 0.333333 0.832219 0.119077
H8    H     H_    0.254258 0.332227 0.704320 0.127327
H9    H     H_    0.095167 0.499827 0.701743 0.121390
H10   H     H_    0.524638 0.871318 0.318632 0.121968
H11   H     H_    0.523572 0.897011 0.188576 0.145016
H12   H     H_    0.771990 0.428980 0.700933 0.153611
H13   H     H_    0.929725 0.423490 0.168896 0.156690
H14   H     H_    0.833049 0.325015 0.165429 0.133599
H15   H     H_    0.842910 0.311573 0.293481 0.148802
H16   H     H_    0.445366 0.768160 0.696658 0.162995
H17   H     H_    0.929068 0.420824 0.296241 0.133598
H18   H     H_    0.859809 0.099869 0.325238 0.117944
H19   H     H_    0.876858 0.084415 0.194712 0.138348
H20   H     H_    0.330798 0.229865 0.180988 0.123892
H21   H     H_    0.372216 0.397252 0.301083 0.167969
H22   H     H_    0.308488 0.270148 0.306263 0.113467
H23   H     H_    0.905719 0.592375 0.780679 0.132958
H24   H     H_    0.096494 0.512857 0.335532 0.120961
H25   H     H_    0.020201 0.551542 0.209799 0.124655
H26   H     H_    0.109283 0.996479 0.194678 0.129164
H27   H     H_    0.258008 0.816281 0.182879 0.141853
H28   H     H_    0.310266 0.802371 0.305881 0.174126
H29   H     H_    0.779761 0.751575 0.652373 0.123825
H30   H     H_    0.797222 0.449935 0.817698 0.132854
H31   H     H_    0.612848 0.533288 0.830629 0.126924
H32   H     H_    0.586791 0.507365 0.711541 0.123585
H33   H     H_    0.371430 0.558050 0.227384 0.143399
H34   H     H_    0.882515 0.568398 0.665666 0.111428
H35   H     H_    0.543619 0.419618 0.204402 0.169629
H36   H     H_    0.442257 0.554389 0.140840 0.144139
H37   H     H_    0.421564 0.359658 0.100733 0.164620
H38   H     H_    0.263639 0.469619 0.145557 0.176881
H39   H     H_    0.285284 0.989776 0.645007 0.159451
H40   H     H_    0.314782 0.064109 0.725414 0.135204
H41   H     H_    0.330595 0.123854 0.637540 0.141936
H42   H     H_    0.566527 0.962977 0.689751 0.145366
H43   H     H_    0.533615 0.902285 0.609524 0.173837
H44   H     H_    0.326493 0.982805 0.388250 0.170367
H45   H     H_    0.465891 0.199209 0.694900 0.143277
H46   H     H_    0.300842 0.060551 0.299786 0.141537
H47   H     H_    0.199974 0.163937 0.375352 0.129256
H48   H     H_    0.056510 0.103892 0.302779 0.128905
H49   H     H_    0.092064 0.013044 0.386289 0.171596
H50   H     H_    0.991455 0.733598 0.703338 0.165510
H51   H     H_    0.851447 0.905744 0.684909 0.142869
H52   H     H_    0.971672 0.876712 0.755612 0.159867
H53   H     H_    0.721105 0.910376 0.782475 0.160467
H54   H     H_    0.868227 0.803931 0.835782 0.179998
H55   H     H_    0.474089 0.190303 0.819222 0.141525
H56   H     H_    0.984023 0.034446 0.814505 0.155190
H57   H     H_    0.956098 0.214300 0.811729 0.122611
H58   H     H_    0.949428 0.215583 0.684027 0.132829
O1    O     O_R   0.507380 0.255700 0.581440 -0.536094
O2    O     O_R   0.837170 0.593410 0.915250 -0.536386
O3    O     O_R   0.065200 0.635530 0.931570 -0.510169
O4    O     O_R   0.280320 0.527350 0.578930 -0.495610
O5    O     O_R   0.068260 0.828890 0.091840 -0.523853
O6    O     O_R   0.798870 0.057410 0.079340 -0.527076
O7    O     O_R   0.584930 0.080350 0.076780 -0.523531
O8    O     O_R   0.626960 0.809650 0.067060 -0.506869
O9    O     O_R   0.816040 0.596610 0.076510 -0.529523
O10   O     O_R   0.045610 0.638500 0.081060 -0.519819
O11   O     O_3   0.833640 0.833710 0.001100 -0.268669
O12   O     O_R   0.524480 0.695810 0.424040 -0.514014
O13   O     O_R   0.260510 0.739590 0.584590 -0.530866
O14   O     O_R   0.532300 0.695080 0.573820 -0.527246
O15   O     O_R   0.744840 0.503500 0.576370 -0.528209
O16   O     O_R   0.699120 0.276560 0.571960 -0.501094
O17   O     O_R   0.498940 0.256500 0.419860 -0.525619
O18   O     O_R   0.272500 0.528080 0.429150 -0.508174
O19   O     O_R   0.252060 0.740380 0.423010 -0.522177
O20   O     O_R   0.736390 0.504290 0.414790 -0.515423
O21   O     O_R   0.691300 0.277290 0.422170 -0.508167
O22   O     O_3   0.499990 0.499990 0.499980 -0.264485
O23   O     O_R   0.089400 0.825690 0.930570 -0.528320
O24   O     O_R   0.818460 0.054440 0.929850 -0.501615
O25   O     O_R   0.606060 0.077150 0.915510 -0.538150
O26   O     O_R   0.646550 0.806680 0.917570 -0.511341

loop_
_geom_bond_atom_site_label_1
_geom_bond_atom_site_label_2
_ccdc_geom_bond_type
C8    C9    A    
Cr4   O11   S    
Cr3   O15   S    
Cr6   O11   S    
C13   H5    S    
C34   C56   S    
C33   C58   S    
Cr4   O24   S    
C29   C33   S    
C27   C29   A    
C11   C13   A    
C41   C42   A    
C1    O13   A    
C2    C7    A    
C12   H31   S    
C5    C67   S    
C33   H20   S    
C35   H22   S    
C28   O18   A    
C12   C23   S    
C45   C57   S    
C37   C38   A    
C30   C35   S    
C23   C54   S    
C53   O5    A    
Cr1   O18   S    
C48   O2    A    
C12   H30   S    
C55   H16   S    
C2    C3    A    
C10   C15   S    
C31   C36   A    
Cr5   O11   S    
C5    C6    S    
C22   H11   S    
C20   C25   S    
C10   C17   A    
Cr3   O21   S    
Cr5   O25   S    
C59   H36   S    
C40   O20   A    
C53   O10   A    
C65   H50   S    
C37   C42   A    
C45   H29   S    
C33   C35   S    
C7    C68   A    
C11   C17   A    
C57   H23   S    
C31   C32   A    
C52   O17   A    
C64   H54   S    
C61   H41   S    
C41   C46   A    
Cr2   O14   S    
C14   H6    S    
C1    O4    A    
C11   H3    S    
C9    C10   A    
C47   C66   S    
C36   C52   S    
C45   H34   S    
C37   C53   S    
C51   O8    A    
Cr4   O6    S    
C66   C67   A    
C49   O3    A    
C4    O14   A    
C34   C55   S    
Cr4   O23   S    
Cr2   O22   S    
C55   C60   S    
Cr3   O16   S    
C16   O1    A    
C62   H49   S    
C63   H47   S    
C21   C26   A    
C18   C51   S    
C15   H8    S    
C51   O9    A    
C4    C34   S    
C25   H17   S    
C67   C68   A    
C43   H26   S    
C6    H58   S    
C34   C45   S    
C63   H44   S    
C44   H28   S    
C50   O7    A    
C18   C19   A    
C15   H9    S    
Cr5   O7    S    
C44   C62   S    
C58   C59   S    
Cr3   O22   S    
C48   O26   A    
Cr5   O26   S    
C59   H33   S    
C58   H37   S    
C60   C61   S    
C65   H51   S    
C43   C44   S    
C43   H27   S    
C62   C63   S    
C56   H12   S    
Cr3   O20   S    
C14   C15   S    
C21   H10   S    
C64   H53   S    
C28   C46   S    
Cr6   O3    S    
C9    C14   S    
C60   H43   S    
Cr2   O13   S    
C24   C25   S    
C24   H14   S    
C56   H32   S    
C12   C56   S    
C39   C46   A    
Cr4   O5    S    
Cr6   O9    S    
Cr1   O4    S    
C40   O12   A    
C61   H39   S    
C58   H38   S    
C60   H42   S    
C3    C66   A    
C62   H48   S    
C57   C64   S    
C47   O25   A    
C23   C57   S    
C54   C55   S    
C7    C16   S    
Cr1   O1    S    
C23   C48   S    
C27   C32   A    
C3    H55   S    
C25   H15   S    
C49   O23   A    
Cr2   O19   S    
C2    H45   S    
C50   O6    A    
C6    H2    S    
C39   C44   S    
Cr5   O8    S    
C35   H21   S    
Cr2   O12   S    
Cr1   O22   S    
C30   C36   A    
C16   O16   A    
Cr1   O17   S    
C64   C65   S    
C19   C20   A    
C18   C22   A    
C19   C24   S    
C52   O21   A    
C38   C43   S    
C42   H25   S    
C65   H52   S    
C63   H46   S    
C4    O15   A    
C26   C40   S    
C38   C39   A    
C20   C26   A    
Cr6   O2    S    
C6    C68   S    
C59   H35   S    
C32   H19   S    
Cr6   O10   S    
C24   H13   S    
C29   C30   A    
C54   H1    S    
C8    C13   A    
C5    H56   S    
C5    H57   S    
C1    C17   S    
C27   C50   S    
C28   O19   A    
C31   H18   S    
C47   O24   A    
C61   H40   S    
C41   H24   S    
C14   H7    S    
C21   C22   A    
C8    C49   S    
C54   H4    S    
