data_mof_unit_14556.cif
_audit_creation_date              2012-12-11T14:21:22-0500
_audit_creation_method            fapswitch 2.2
_symmetry_space_group_name_H-M    P1
_symmetry_Int_Tables_number       1
_space_group_crystal_system       triclinic
_cell_length_a                    21.947398
_cell_length_b                    7.200232
_cell_length_c                    14.875293
_cell_angle_alpha                 90.000763
_cell_angle_beta                  106.835857
_cell_angle_gamma                 90.000066
_cell_volume                      2249.93416765

loop_
_atom_site_label
_atom_site_type_symbol
_atom_type_description
_atom_site_fract_x
_atom_site_fract_y
_atom_site_fract_z
_atom_type_partial_charge
O1    O     O_R   0.584770 0.505770 0.002090 -0.546524
O2    O     O_R   0.415230 0.005770 0.997910 -0.546513
O3    O     O_R   0.467060 0.173340 0.861950 -0.547947
O4    O     O_R   0.532940 0.673340 0.138050 -0.547794
C1    C     C_R   0.455514 0.344269 0.825789 0.732001
C2    C     C_R   0.544489 0.844271 0.174210 0.732232
O5    O     O_R   0.587510 0.175890 0.993210 -0.504508
O6    O     O_R   0.412490 0.675890 0.006790 -0.504462
O7    O     O_R   0.536540 0.008150 0.130100 -0.538890
O8    O     O_R   0.463460 0.508150 0.869900 -0.538880
C3    C     C_R   0.613071 0.344330 0.997193 0.774432
C4    C     C_R   0.386928 0.844330 0.002806 0.774514
O9    O     O_3   0.483140 0.340040 0.044760 -0.377721
O10   O     O_3   0.516860 0.840040 0.955240 -0.377833
V1    V     V_3+5 0.503130 0.064190 0.991700 1.490039
V2    V     V_3+5 0.496870 0.564190 0.008300 1.490321
C5    C     C_2   0.214003 0.728026 0.006502 -0.223341
C6    C     C_2   0.785994 0.228028 0.993487 -0.223343
C7    C     C_2   0.179647 0.886299 0.993137 -0.389012
C8    C     C_2   0.820353 0.386298 0.006866 -0.388995
H1    H     H_    0.192040 0.600947 0.021306 0.169671
H2    H     H_    0.807954 0.100956 0.978665 0.169655
H3    H     H_    0.199703 0.015218 0.976994 0.140295
H4    H     H_    0.800300 0.515210 0.023024 0.140273
C9    C     C_2   0.280481 0.709128 0.999293 0.493939
C10   C     C_2   0.719518 0.209127 0.000702 0.493918
C11   C     C_2   0.319849 0.857134 0.005611 -0.380931
C12   C     C_2   0.680150 0.357132 0.994384 -0.380947
C13   C     C_R   0.925941 0.883490 0.724054 -0.052501
C14   C     C_R   0.074058 0.383499 0.275945 -0.052498
C15   C     C_R   0.571823 0.850582 0.276274 -0.117384
C16   C     C_R   0.428176 0.350575 0.723727 -0.117493
C17   C     C_R   0.935721 0.839963 0.568269 -0.168187
C18   C     C_R   0.064277 0.339997 0.431730 -0.168187
C19   C     C_R   0.963933 0.858156 0.664463 -0.172855
C20   C     C_R   0.036065 0.358189 0.335536 -0.172856
C21   C     C_R   0.859619 0.886717 0.687774 -0.193768
C22   C     C_R   0.140381 0.386706 0.312224 -0.193769
C23   C     C_R   0.829449 0.852402 0.591450 0.087660
C24   C     C_R   0.170550 0.352398 0.408548 0.087652
C25   C     C_R   0.869122 0.838727 0.531334 0.141096
C26   C     C_R   0.130876 0.338742 0.468665 0.141099
C27   C     C_R   0.761650 0.836929 0.552281 -0.061778
C28   C     C_R   0.238349 0.336919 0.447719 -0.061771
C29   C     C_R   0.735062 0.838944 0.452139 0.025893
C30   C     C_R   0.264937 0.338936 0.547861 0.025885
C31   C     C_R   0.776873 0.830296 0.395586 -0.164141
C32   C     C_R   0.223124 0.330304 0.604413 -0.164161
C33   C     C_R   0.842310 0.825566 0.434704 -0.207286
C34   C     C_R   0.157687 0.325584 0.565294 -0.207283
C35   C     C_R   0.719371 0.810808 0.608334 0.428842
C36   C     C_R   0.280629 0.310796 0.391665 0.428880
C37   C     C_R   0.653699 0.818370 0.567637 -0.247029
C38   C     C_R   0.346300 0.318373 0.432363 -0.247225
C39   C     C_R   0.627420 0.834616 0.470951 0.000441
C40   C     C_R   0.372579 0.334627 0.529048 0.000302
C41   C     C_R   0.667469 0.843156 0.411575 0.090079
C42   C     C_R   0.332528 0.343147 0.588426 0.090100
C43   C     C_R   0.560885 0.835206 0.433067 -0.227695
C44   C     C_R   0.439112 0.335242 0.566932 -0.227645
C45   C     C_R   0.532768 0.837037 0.335630 0.446856
C46   C     C_R   0.467225 0.337094 0.664362 0.446736
C47   C     C_R   0.638021 0.855691 0.313613 -0.278676
C48   C     C_R   0.361977 0.355655 0.686390 -0.278583
H5    H     H_    0.872332 0.815284 0.388429 0.118491
H6    H     H_    0.127665 0.315318 0.611570 0.118492
H7    H     H_    0.664859 0.868549 0.263723 0.106562
H8    H     H_    0.335140 0.368471 0.736283 0.106544
H9    H     H_    0.622902 0.803387 0.612571 0.152019
H10   H     H_    0.377098 0.303399 0.387429 0.152043
H11   H     H_    0.966013 0.825777 0.522614 0.117463
H12   H     H_    0.033984 0.325827 0.477385 0.117462
H13   H     H_    0.015326 0.854565 0.692337 0.105239
H14   H     H_    0.984672 0.354615 0.307663 0.105238
H15   H     H_    0.833317 0.921893 0.736252 0.169188
H16   H     H_    0.166683 0.421864 0.263745 0.169190
H17   H     H_    0.760700 0.820744 0.320204 0.111305
H18   H     H_    0.239295 0.320764 0.679795 0.111303
H19   H     H_    0.530660 0.831634 0.479196 0.126894
H20   H     H_    0.469349 0.331631 0.520818 0.127096
O11   O     O_R   0.036450 0.233070 0.130130 -0.535149
O12   O     O_R   0.963550 0.733070 0.869870 -0.535151
O13   O     O_R   0.912470 0.560570 0.006790 -0.542500
O14   O     O_R   0.087530 0.060570 0.993210 -0.542496
C49   C     C_R   0.887026 0.392045 0.002821 0.761723
C50   C     C_R   0.112974 0.892046 0.997179 0.761732
O15   O     O_R   0.032920 0.562940 0.138050 -0.542221
O16   O     O_R   0.967080 0.062940 0.861950 -0.542219
O17   O     O_R   0.084790 0.730500 0.002090 -0.537888
O18   O     O_R   0.915210 0.230500 0.997910 -0.537889
C51   C     C_R   0.045159 0.394309 0.174528 0.689320
C52   C     C_R   0.954841 0.894306 0.825472 0.689314
O19   O     O_3   0.016820 0.396170 0.955260 -0.379585
O20   O     O_3   0.983180 0.896170 0.044740 -0.379585
V3    V     V_3+5 0.996880 0.672090 0.008300 1.415558
V4    V     V_3+5 0.003120 0.172090 0.991700 1.415564
O21   O     O_3   0.740464 0.768020 0.702817 -0.563132
C53   C     C_3   0.747425 0.573610 0.712414 -0.235052
H21   H     H_    0.782929 0.520244 0.678378 0.136229
H22   H     H_    0.700956 0.501594 0.683543 0.153627
H23   H     H_    0.765167 0.539542 0.788292 0.169713
O22   O     O_3   0.259536 0.268000 0.297183 -0.563125
C54   C     C_3   0.252588 0.073586 0.287587 -0.235029
H24   H     H_    0.217090 0.020195 0.321627 0.136216
H25   H     H_    0.299062 0.001599 0.316455 0.153578
H26   H     H_    0.234846 0.039510 0.211709 0.169722
O23   O     O_3   0.304055 0.531299 0.995739 -0.530924
C55   C     C_3   0.271778 0.448655 0.909040 -0.236303
H27   H     H_    0.272966 0.538633 0.848622 0.114486
H28   H     H_    0.221872 0.413566 0.905819 0.125001
H29   H     H_    0.296251 0.316870 0.902149 0.148857
O24   O     O_3   0.695942 0.031299 0.004260 -0.530950
C56   C     C_3   0.728252 0.948603 0.090929 -0.236334
H30   H     H_    0.727128 0.038587 0.151377 0.114500
H31   H     H_    0.778137 0.913416 0.094068 0.125032
H32   H     H_    0.703762 0.816865 0.097850 0.148849
H33   H     H_    0.302820 0.995894 0.013013 0.112648
H34   H     H_    0.697179 0.495891 0.986978 0.112647
O25   O     O_3   0.467210 0.839461 0.297834 -0.563539
C57   C     C_3   0.442267 0.665401 0.312823 -0.247433
H35   H     H_    0.445886 0.644231 0.388221 0.134310
H36   H     H_    0.465891 0.549294 0.286324 0.145013
H37   H     H_    0.390980 0.661775 0.273160 0.178734
O26   O     O_3   0.532781 0.339548 0.702106 -0.563572
C58   C     C_3   0.557639 0.165006 0.687704 -0.247349
H38   H     H_    0.553679 0.142228 0.612304 0.134088
H39   H     H_    0.534195 0.049677 0.715077 0.145352
H40   H     H_    0.609007 0.161822 0.726950 0.178683

loop_
_geom_bond_atom_site_label_1
_geom_bond_atom_site_label_2
_ccdc_geom_bond_type
C35   O21   S    
O16   V4    S    
O4    V2    S    
O15   C51   A    
C45   O25   S    
C15   C45   A    
C6    C10   S    
C7    C50   S    
O2    C4    A    
C2    O7    A    
C46   O26   S    
O21   C53   S    
C23   C25   A    
C22   H16   S    
O5    C3    A    
C36   O22   S    
C33   H5    S    
C48   H8    S    
O14   C50   A    
C39   C43   A    
O12   C52   A    
C55   H27   S    
C14   C22   A    
C44   C46   A    
O14   V4    S    
C29   C31   A    
C32   H18   S    
C17   C19   A    
C44   H20   S    
C8    H4    S    
C28   C30   A    
C18   C26   A    
O15   V3    S    
C58   H40   S    
O23   C55   S    
C18   C20   A    
C57   H37   S    
C56   H32   S    
C28   C36   A    
C32   C34   A    
C2    C15   S    
C21   H15   S    
C37   H9    S    
O6    V2    S    
C30   C42   A    
O22   C54   S    
C25   C33   A    
O24   C56   S    
C36   C38   A    
C41   C47   A    
C47   H7    S    
C37   C39   A    
C42   C48   A    
C29   C41   A    
C49   O18   A    
C38   C40   A    
C43   C45   A    
C4    C11   S    
C15   C47   A    
C16   C48   A    
O4    C2    A    
C43   H19   S    
O11   V4    S    
C23   C27   A    
O5    V1    S    
C5    H1    S    
C40   C44   A    
C35   C37   A    
O17   V3    S    
C7    H3    S    
C27   C29   A    
C38   H10   S    
O6    C4    A    
O13   V3    S    
C8    C49   S    
C54   H25   S    
O1    V2    S    
O16   C52   A    
O2    V1    S    
C34   H6    S    
C20   H14   S    
C26   C34   A    
O13   C49   A    
O19   V4    S    
C53   H22   S    
C39   C41   A    
C58   H38   S    
C9    C11   D    
C31   H17   S    
C10   O24   S    
O3    V1    S    
C57   H35   S    
C57   H36   S    
C56   H30   S    
C11   H33   S    
C19   H13   S    
O12   V3    S    
C6    H2    S    
C14   C51   S    
O3    C1    A    
C50   O17   A    
O25   C57   S    
C55   H28   S    
O18   V4    S    
C31   C33   A    
C53   H23   S    
C13   C19   A    
C10   C12   D    
C55   H29   S    
C14   C20   A    
C5    C9    S    
C1    C16   S    
O7    V1    S    
C17   C25   A    
C1    O8    A    
C21   C23   A    
O8    V2    S    
C22   C24   A    
C27   C35   A    
C3    C12   S    
C24   C26   A    
C5    C7    D    
C40   C42   A    
C54   H26   S    
C6    C8    D    
C13   C52   S    
O20   V3    S    
C17   H11   S    
C18   H12   S    
C16   C46   A    
O11   C51   A    
C30   C32   A    
C24   C28   A    
C53   H21   S    
O9    V2    S    
C13   C21   A    
C54   H24   S    
C58   H39   S    
O10   V1    S    
C12   H34   S    
O1    C3    A    
C9    O23   S    
O26   C58   S    
C56   H31   S    
