data_mof_unit_32655.cif
_audit_creation_date              2012-12-11T15:17:45-0500
_audit_creation_method            fapswitch 2.2
_symmetry_space_group_name_H-M    P1
_symmetry_Int_Tables_number       1
_space_group_crystal_system       triclinic
_cell_length_a                    7.105678
_cell_length_b                    17.483442
_cell_length_c                    25.580531
_cell_angle_alpha                 89.99758
_cell_angle_beta                  89.998852
_cell_angle_gamma                 89.962493
_cell_volume                      3177.91240357

loop_
_atom_site_label
_atom_site_type_symbol
_atom_type_description
_atom_site_fract_x
_atom_site_fract_y
_atom_site_fract_z
_atom_type_partial_charge
O1    O     O_R   0.620180 0.810610 0.187990 -0.528172
O2    O     O_R   0.379820 0.189390 0.812010 -0.528172
O3    O     O_R   0.379820 0.189390 0.687990 -0.528178
O4    O     O_R   0.620180 0.810610 0.312010 -0.528178
O5    O     O_R   0.120180 0.689390 0.312010 -0.528362
O6    O     O_R   0.879820 0.310610 0.687990 -0.528362
O7    O     O_R   0.879820 0.310610 0.812010 -0.528367
O8    O     O_R   0.120180 0.689390 0.187990 -0.528367
O9    O     O_R   0.290420 0.818570 0.311590 -0.525253
O10   O     O_R   0.709580 0.181430 0.688410 -0.525253
O11   O     O_R   0.709580 0.181430 0.811590 -0.525249
O12   O     O_R   0.290420 0.818570 0.188410 -0.525249
O13   O     O_R   0.790420 0.681430 0.188410 -0.525239
O14   O     O_R   0.209580 0.318570 0.811590 -0.525239
O15   O     O_R   0.209580 0.318570 0.688410 -0.525234
O16   O     O_R   0.790420 0.681430 0.311590 -0.525234
H1    H     H_    0.988062 0.616657 0.614774 0.197526
H2    H     H_    0.011937 0.383342 0.385226 0.197526
H3    H     H_    0.012108 0.383332 0.114761 0.197525
H4    H     H_    0.987892 0.616668 0.885239 0.197525
H5    H     H_    0.475943 0.884813 0.885994 0.196992
H6    H     H_    0.524057 0.115187 0.114006 0.196992
H7    H     H_    0.524164 0.115196 0.386003 0.196992
H8    H     H_    0.475836 0.884804 0.613997 0.196992
C1    C     C_R   0.458198 0.833358 0.332774 0.789215
C2    C     C_R   0.541802 0.166642 0.667226 0.789216
C3    C     C_R   0.541802 0.166656 0.832781 0.789235
C4    C     C_R   0.458198 0.833344 0.167219 0.789235
C5    C     C_R   0.958410 0.666352 0.167308 0.787582
C6    C     C_R   0.041590 0.333648 0.832692 0.787581
C7    C     C_R   0.041596 0.333633 0.667300 0.787595
C8    C     C_R   0.958404 0.666367 0.332700 0.787594
O17   O     O_3   0.453640 0.707610 0.250000 -0.376842
O18   O     O_3   0.546360 0.292390 0.750000 -0.376842
O19   O     O_3   0.953640 0.792390 0.250000 -0.376374
O20   O     O_3   0.046360 0.207610 0.750000 -0.376374
V1    V     V_3+5 0.178800 0.757860 0.250000 1.599397
V2    V     V_3+5 0.821200 0.242140 0.750000 1.599397
V3    V     V_3+5 0.678800 0.742140 0.250000 1.599306
V4    V     V_3+5 0.321200 0.257860 0.750000 1.599307
C9    C     C_R   0.024476 0.346118 0.565303 0.169278
C10   C     C_R   0.975524 0.653882 0.434697 0.169277
C11   C     C_R   0.975510 0.653872 0.065312 0.169282
C12   C     C_R   0.024490 0.346127 0.934688 0.169282
C13   C     C_R   0.524294 0.153769 0.934670 0.168523
C14   C     C_R   0.475705 0.846230 0.065330 0.168523
C15   C     C_R   0.475697 0.846241 0.434664 0.168529
C16   C     C_R   0.524303 0.153759 0.565336 0.168529
C17   C     C_R   0.032696 0.380754 0.616064 -0.149801
C18   C     C_R   0.967304 0.619246 0.383936 -0.149801
C19   C     C_R   0.967316 0.619230 0.116073 -0.149806
C20   C     C_R   0.032684 0.380770 0.883927 -0.149806
C21   C     C_R   0.533234 0.119325 0.884011 -0.150395
C22   C     C_R   0.466766 0.880675 0.115989 -0.150395
C23   C     C_R   0.466765 0.880690 0.384004 -0.150396
C24   C     C_R   0.533235 0.119310 0.615996 -0.150396
C25   C     C_R   0.035281 0.461239 0.617522 0.098852
C26   C     C_R   0.964719 0.538760 0.382478 0.098852
C27   C     C_R   0.964770 0.538741 0.117527 0.098868
C28   C     C_R   0.035230 0.461259 0.882473 0.098868
C29   C     C_R   0.537963 0.039120 0.882853 0.100168
C30   C     C_R   0.462037 0.960880 0.117147 0.100168
C31   C     C_R   0.462075 0.960897 0.382850 0.100182
C32   C     C_R   0.537924 0.039103 0.617150 0.100182
C33   C     C_R   0.015489 0.507905 0.572545 0.039563
C34   C     C_R   0.984511 0.492095 0.427455 0.039563
C35   C     C_R   0.984569 0.492086 0.072544 0.039557
C36   C     C_R   0.015431 0.507914 0.927456 0.039558
C37   C     C_R   0.514294 0.992351 0.927670 0.038336
C38   C     C_R   0.485706 0.007649 0.072330 0.038336
C39   C     C_R   0.485747 0.007656 0.427670 0.038330
C40   C     C_R   0.514253 0.992344 0.572330 0.038329
C41   C     C_R   0.008883 0.474930 0.522597 -0.010976
C42   C     C_R   0.991117 0.525070 0.477403 -0.010977
C43   C     C_R   0.991124 0.525067 0.022599 -0.010968
C44   C     C_R   0.008876 0.474932 0.977401 -0.010968
C45   C     C_R   0.508736 0.025042 0.977430 -0.010850
C46   C     C_R   0.491263 0.974958 0.022570 -0.010850
C47   C     C_R   0.491269 0.974961 0.477429 -0.010846
C48   C     C_R   0.508731 0.025039 0.522571 -0.010846
C49   C     C_R   0.021853 0.393211 0.518014 0.022327
C50   C     C_R   0.978147 0.606789 0.481986 0.022328
C51   C     C_R   0.978124 0.606787 0.018022 0.022324
C52   C     C_R   0.021876 0.393213 0.981978 0.022324
C53   C     C_R   0.522419 0.106595 0.981907 0.022549
C54   C     C_R   0.477581 0.893405 0.018093 0.022548
C55   C     C_R   0.477566 0.893409 0.481902 0.022545
C56   C     C_R   0.522434 0.106591 0.518098 0.022545
C57   C     C_R   0.997046 0.588128 0.576905 -0.123120
C58   C     C_R   0.002954 0.411872 0.423095 -0.123120
C59   C     C_R   0.003059 0.411864 0.076897 -0.123134
C60   C     C_R   0.996941 0.588136 0.923103 -0.123134
C61   C     C_R   0.491187 0.912612 0.923503 -0.125249
C62   C     C_R   0.508813 0.087388 0.076496 -0.125249
C63   C     C_R   0.508883 0.087393 0.423509 -0.125255
C64   C     C_R   0.491117 0.912607 0.576491 -0.125254
C65   C     C_R   0.966029 0.635381 0.533817 0.234921
C66   C     C_R   0.033970 0.364619 0.466183 0.234921
C67   C     C_R   0.034034 0.364615 0.033807 0.234917
C68   C     C_R   0.965966 0.635385 0.966193 0.234917
C69   C     C_R   0.463299 0.865097 0.966434 0.234419
C70   C     C_R   0.536701 0.134902 0.033565 0.234419
C71   C     C_R   0.536741 0.134903 0.466441 0.234417
C72   C     C_R   0.463259 0.865097 0.533559 0.234417
I1    I     I_    0.068425 0.514914 0.687423 -0.278354
I2    I     I_    0.931576 0.485086 0.312577 -0.278355
I3    I     I_    0.931628 0.485023 0.187420 -0.278314
I4    I     I_    0.068372 0.514977 0.812580 -0.278314
I5    I     I_    0.566651 0.986729 0.812307 -0.277286
I6    I     I_    0.433348 0.013271 0.187693 -0.277286
I7    I     I_    0.433350 0.013332 0.312314 -0.277251
I8    I     I_    0.566650 0.986668 0.687685 -0.277252
I9    I     I_    0.837315 0.738565 0.558271 -0.237475
I10   I     I_    0.162685 0.261435 0.441729 -0.237476
I11   I     I_    0.162710 0.261419 0.058260 -0.237514
I12   I     I_    0.837289 0.738581 0.941740 -0.237514
I13   I     I_    0.340150 0.761037 0.941831 -0.239155
I14   I     I_    0.659850 0.238963 0.058169 -0.239155
I15   I     I_    0.659855 0.238974 0.441835 -0.239183
I16   I     I_    0.340145 0.761026 0.558164 -0.239183
I17   I     I_    0.018374 0.221895 0.569304 -0.306925
I18   I     I_    0.981627 0.778105 0.430696 -0.306925
I19   I     I_    0.981585 0.778099 0.069312 -0.306907
I20   I     I_    0.018415 0.221901 0.930688 -0.306907
I21   I     I_    0.519582 0.278474 0.930378 -0.306415
I22   I     I_    0.480418 0.721526 0.069622 -0.306416
I23   I     I_    0.480463 0.721539 0.430376 -0.306404
I24   I     I_    0.519537 0.278461 0.569623 -0.306404

loop_
_geom_bond_atom_site_label_1
_geom_bond_atom_site_label_2
_ccdc_geom_bond_type
C25   I1    S    
O5    V1    S    
C38   C46   A    
C11   C51   A    
C41   C42   A    
C37   C45   A    
C10   C50   A    
C29   I5    S    
C44   C52   A    
C47   C55   A    
O4    C1    A    
O9    C1    A    
C34   C58   A    
C45   C46   A    
C33   C57   A    
H4    C60   S    
C10   I18   S    
O17   V3    S    
O12   C4    A    
O18   V4    S    
O8    C5    A    
O13   C5    A    
O19   V1    S    
O14   C6    A    
C37   C61   A    
H8    C64   S    
C67   I11   S    
O19   V3    S    
C66   I10   S    
C39   C63   A    
C49   C66   A    
C9    I17   S    
C34   C42   A    
C33   C41   A    
C30   C38   A    
C41   C49   A    
O12   V1    S    
C20   C28   A    
C27   C35   A    
C21   C29   A    
C26   C34   A    
C13   I21   S    
C23   C31   A    
O1    C4    A    
C16   C56   A    
O2    C3    A    
C28   I4    S    
O5    C8    A    
C12   C20   A    
O6    C7    A    
C13   C21   A    
O7    C6    A    
C14   C54   A    
H6    C62   S    
C7    C17   S    
C9    C17   A    
C63   C71   A    
C18   C26   A    
O20   V4    S    
H1    C57   S    
C61   C69   A    
C4    C22   S    
C22   C30   A    
O14   V4    S    
C12   I20   S    
C27   I3    S    
C39   C47   A    
C47   C48   A    
C2    C24   S    
C26   I2    S    
H2    C58   S    
O11   V2    S    
C13   C53   A    
C43   C44   A    
C16   I24   S    
C30   I6    S    
O4    V3    S    
O11   C3    A    
C9    C49   A    
C14   C22   A    
C35   C59   A    
O10   C2    A    
C36   C44   A    
O15   C7    A    
C8    C18   S    
C10   C18   A    
C31   C39   A    
O3    V4    S    
C51   C68   A    
C64   C72   A    
C50   C65   A    
C19   C27   A    
O8    V1    S    
C65   I9    S    
C11   I19   S    
C56   C71   A    
C60   C68   A    
C15   C23   A    
O9    V1    S    
C5    C19   S    
C29   C37   A    
C16   C24   A    
C6    C20   S    
C38   C62   A    
O18   V2    S    
C52   C67   A    
C14   I22   S    
O3    C2    A    
C71   I15   S    
C1    C23   S    
C25   C33   A    
C12   C52   A    
C70   I14   S    
C17   C25   A    
C3    C21   S    
C15   I23   S    
O16   C8    A    
O10   V2    S    
C69   I13   S    
C68   I12   S    
O20   V2    S    
C40   C48   A    
C43   C51   A    
C24   C32   A    
H5    C61   S    
C11   C19   A    
C36   C60   A    
O7    V2    S    
H7    C63   S    
C32   C40   A    
C31   I7    S    
O17   V1    S    
O15   V4    S    
O13   V3    S    
C32   I8    S    
O1    V3    S    
O16   V3    S    
C45   C53   A    
C55   C72   A    
C40   C64   A    
O2    V4    S    
C35   C43   A    
C28   C36   A    
C48   C56   A    
C46   C54   A    
C57   C65   A    
H3    C59   S    
C59   C67   A    
O6    V2    S    
C54   C69   A    
C58   C66   A    
C42   C50   A    
C53   C70   A    
C62   C70   A    
C15   C55   A    
C72   I16   S    
