data_mof_unit_16982.cif
_audit_creation_date              2012-10-26T21:02:38-0400
_audit_creation_method            fapswitch 2.2
_symmetry_space_group_name_H-M    P1
_symmetry_Int_Tables_number       1
_space_group_crystal_system       triclinic
_cell_length_a                    12.28911
_cell_length_b                    13.054618
_cell_length_c                    15.014966
_cell_angle_alpha                 78.929993
_cell_angle_beta                  100.189093
_cell_angle_gamma                 116.339868
_cell_volume                      2107.03890988

loop_
_atom_site_label
_atom_site_type_symbol
_atom_type_description
_atom_site_fract_x
_atom_site_fract_y
_atom_site_fract_z
_atom_type_partial_charge
C1    C     C_R   0.854644 0.285445 0.513211 0.532068
C2    C     C_R   0.037217 0.427809 0.830881 -0.141436
C3    C     C_R   0.003668 0.504976 0.767612 -0.020306
C4    C     C_R   0.000458 0.501963 0.670810 0.543824
C5    C     C_R   0.982716 0.588999 0.796728 -0.149406
C6    C     C_R   0.287024 0.010112 0.357808 -0.138154
C7    C     C_R   0.228460 0.834608 0.463340 -0.001600
C8    C     C_R   0.805146 0.085237 0.598243 0.010895
C9    C     C_R   0.720855 0.968913 0.615764 0.024046
C10   C     C_R   0.603035 0.932144 0.570922 -0.114554
C11   C     C_R   0.565292 0.007415 0.506953 0.006693
C12   C     C_R   0.976361 0.583948 0.076561 -0.000841
C13   C     C_R   0.654255 0.117739 0.478186 -0.007087
C14   C     C_R   0.441749 0.974483 0.469146 0.020034
C15   C     C_R   0.410594 0.045592 0.394507 0.060258
C16   C     C_R   0.145107 0.713660 0.485617 0.543066
C17   C     C_R   0.504032 0.148356 0.357460 -0.007176
C18   C     C_R   0.623763 0.182254 0.399343 -0.109256
C19   C     C_R   0.347703 0.872485 0.504800 -0.131751
C20   C     C_R   0.197250 0.904936 0.391285 -0.143248
C21   C     C_R   0.772224 0.160373 0.527851 -0.005987
C22   C     C_R   0.352212 0.336897 0.649704 -0.150983
C23   C     C_R   0.083629 0.356929 0.083042 -0.130087
C24   C     C_R   0.748966 0.624055 0.364514 0.064193
C25   C     C_R   0.643687 0.640125 0.328141 -0.027236
C26   C     C_R   0.541642 0.589483 0.377235 -0.125893
C27   C     C_R   0.545753 0.526096 0.463799 -0.050166
C28   C     C_R   0.001979 0.500736 0.329210 0.543198
C29   C     C_R   0.657108 0.517296 0.499070 0.164634
C30   C     C_R   0.444827 0.471545 0.518004 -0.036179
C31   C     C_R   0.452826 0.395890 0.598297 0.032026
C32   C     C_R   0.565608 0.390014 0.629309 -0.010514
C33   C     C_R   0.669666 0.476783 0.591598 0.088072
C34   C     C_R   0.082310 0.354192 0.990098 0.002451
C35   C     C_R   0.337924 0.490669 0.497588 0.043010
C36   C     C_R   0.250431 0.360771 0.626532 0.033414
C37   C     C_R   0.972323 0.580082 0.169276 -0.138790
C38   C     C_R   0.007322 0.504050 0.232951 -0.007508
C39   C     C_R   0.047004 0.431569 0.204553 -0.143790
C40   C     C_R   0.048124 0.432094 0.111765 -0.000175
C41   C     C_R   0.012586 0.508472 0.047259 0.047489
C42   C     C_3   0.480310 0.224944 0.274017 -0.261978
C43   C     C_3   0.432621 0.304502 0.299997 -0.288398
C44   C     C_3   0.403892 0.378528 0.215966 -0.452549
C45   C     C_R   0.044566 0.429587 0.924663 0.020439
C46   C     C_3   0.928267 0.129046 0.654965 -0.382620
C47   C     C_3   0.752855 0.882023 0.683413 -0.409397
C48   C     C_3   0.582101 0.312657 0.714010 -0.403999
C49   C     C_3   0.638269 0.708593 0.236270 -0.426138
C50   C     C_3   0.737200 0.571868 0.650886 -0.371569
C51   C     C_3   0.123902 0.271540 0.964074 -0.255644
C52   C     C_3   0.014666 0.161650 0.936646 -0.296968
C53   C     C_3   0.056944 0.081617 0.905946 -0.462971
C54   C     C_3   0.909350 0.750920 0.854310 -0.421092
C55   C     C_R   0.012507 0.508927 0.953800 0.030103
C56   C     C_R   0.980633 0.588991 0.889562 0.027097
C57   C     C_R   0.946665 0.666135 0.919812 0.006429
C58   C     C_R   0.944091 0.661852 0.013223 -0.116069
Cu1   Cu    Cu3+1 0.098270 0.475420 0.521130 0.918240
Cu2   Cu    Cu3+1 0.901730 0.524580 0.478870 0.918311
H1    H     H_    0.943432 0.637250 0.192140 0.105527
H2    H     H_    0.826841 0.661031 0.325679 0.126319
H3    H     H_    0.460118 0.599361 0.345980 0.105006
H4    H     H_    0.111092 0.298930 0.133446 0.098239
H5    H     H_    0.057075 0.366577 0.805437 0.115151
H6    H     H_    0.968512 0.654192 0.746276 0.111173
H7    H     H_    0.916743 0.719583 0.036863 0.100950
H8    H     H_    0.104795 0.876244 0.358042 0.116642
H9    H     H_    0.487860 0.434715 0.182015 0.157138
H10   H     H_    0.334066 0.323007 0.166952 0.140034
H11   H     H_    0.367642 0.433742 0.236559 0.146236
H12   H     H_    0.258441 0.060813 0.301311 0.105728
H13   H     H_    0.348748 0.253500 0.335175 0.162985
H14   H     H_    0.503196 0.361631 0.347654 0.187120
H15   H     H_    0.566052 0.279379 0.241480 0.139553
H16   H     H_    0.416070 0.172006 0.221253 0.133065
H17   H     H_    0.938167 0.066670 0.713178 0.111501
H18   H     H_    0.001474 0.149676 0.611614 0.149671
H19   H     H_    0.943010 0.206257 0.684864 0.133226
H20   H     H_    0.770465 0.905823 0.753382 0.126804
H21   H     H_    0.677848 0.793796 0.684579 0.118175
H22   H     H_    0.834634 0.878400 0.665052 0.131062
H23   H     H_    0.364234 0.818822 0.564725 0.114503
H24   H     H_    0.563005 0.336832 0.774570 0.122893
H25   H     H_    0.519536 0.221489 0.705954 0.132523
H26   H     H_    0.676998 0.319857 0.725878 0.142482
H27   H     H_    0.725089 0.742010 0.205027 0.111521
H28   H     H_    0.563228 0.653415 0.189784 0.132878
H29   H     H_    0.620779 0.782937 0.243412 0.140830
H30   H     H_    0.819453 0.641356 0.621326 0.153993
H31   H     H_    0.676986 0.612780 0.657012 0.100634
H32   H     H_    0.761206 0.535940 0.720419 0.134028
H33   H     H_    0.111445 0.125933 0.847051 0.142622
H34   H     H_    0.542940 0.842226 0.585485 0.107170
H35   H     H_    0.113066 0.053572 0.962786 0.153762
H36   H     H_    0.976090 0.004412 0.884603 0.134750
H37   H     H_    0.961204 0.115633 0.995935 0.162021
H38   H     H_    0.953312 0.182913 0.880206 0.158259
H39   H     H_    0.184642 0.314786 0.908632 0.135902
H40   H     H_    0.180491 0.246555 0.022637 0.129259
H41   H     H_    0.986749 0.813053 0.815474 0.127342
H42   H     H_    0.830156 0.704279 0.806452 0.125576
H43   H     H_    0.881231 0.800517 0.890367 0.118359
H44   H     H_    0.693846 0.259256 0.367902 0.140040
H45   H     H_    0.175718 0.319556 0.668599 0.109526
H46   H     H_    0.353687 0.277284 0.710369 0.092350
H47   H     H_    0.073995 0.372895 0.254572 0.118353
H48   H     H_    0.327871 0.550481 0.439974 0.123118
N1    N     N_R   0.246280 0.438190 0.553160 -0.231391
N2    N     N_R   0.754320 0.561190 0.447410 -0.249139
O1    O     O_R   0.972510 0.318130 0.526570 -0.503719
O2    O     O_R   0.806530 0.359650 0.490890 -0.494066
O3    O     O_R   0.082980 0.479210 0.647590 -0.506166
O4    O     O_R   0.917000 0.520730 0.611900 -0.502773
O5    O     O_R   0.193470 0.640350 0.509110 -0.501468
O6    O     O_R   0.027490 0.681870 0.473430 -0.508306
O7    O     O_R   0.083000 0.479270 0.388100 -0.506464
O8    O     O_R   0.917020 0.520790 0.352410 -0.520980

loop_
_geom_bond_atom_site_label_1
_geom_bond_atom_site_label_2
_ccdc_geom_bond_type
C43   H13   S    
C55   C56   A    
C1    C21   S    
C53   H35   S    
C49   H27   S    
C5    C56   A    
Cu2   O4    S    
C43   C44   S    
C2    H5    S    
C6    H12   S    
C42   H15   S    
C37   C38   A    
C13   C18   A    
C4    O4    A    
C28   O7    A    
C1    O2    A    
C46   H19   S    
C11   C14   A    
C27   C29   A    
C10   H34   S    
C23   C40   A    
C29   C33   A    
C52   H37   S    
C56   C57   A    
C44   H11   S    
C47   H22   S    
C12   C37   A    
C17   C42   S    
C41   C55   A    
C35   H48   S    
C54   H41   S    
C6    C15   A    
C50   H30   S    
C8    C9    A    
Cu1   O1    S    
Cu2   O8    S    
C9    C10   A    
C35   N1    A    
C12   C58   A    
C43   H14   S    
Cu1   Cu2   S    
Cu1   O7    S    
C53   H36   S    
C32   C48   S    
C49   H28   S    
C47   H20   S    
C19   H23   S    
C16   O6    A    
C54   H42   S    
C8    C21   A    
C25   C49   S    
C2    C45   A    
C51   H39   S    
C38   C39   A    
C22   C31   A    
C53   H33   S    
C51   C52   S    
C54   H43   S    
C24   N2    A    
C24   C25   A    
C39   C40   A    
C46   H18   S    
C33   C50   S    
C22   H46   S    
C48   H24   S    
C39   H47   S    
C26   H3    S    
C12   C41   A    
Cu2   O2    S    
C4    O3    A    
C31   C32   A    
C28   C38   S    
Cu1   O3    S    
C23   C34   A    
C17   C18   A    
C34   C51   S    
C13   C21   A    
C44   H9    S    
C34   C45   A    
C18   H44   S    
C44   H10   S    
C30   C35   A    
C50   H32   S    
C23   H4    S    
C9    C47   S    
C7    C19   A    
C26   C27   A    
C48   H26   S    
C29   N2    A    
Cu2   O6    S    
C42   C43   S    
C3    C4    S    
C16   O5    A    
C6    C20   A    
C52   C53   S    
C51   H40   S    
C15   C17   A    
C7    C16   S    
C24   H2    S    
C36   H45   S    
C48   H25   S    
C14   C19   A    
C20   H8    S    
C49   H29   S    
C5    H6    S    
C3    C5    A    
C46   H17   S    
C37   H1    S    
C22   C36   A    
C42   H16   S    
C32   C33   A    
C2    C3    A    
C25   C26   A    
C28   O8    A    
C1    O1    A    
C11   C13   A    
C57   C58   A    
C30   C31   A    
C52   H38   S    
Cu1   N1    S    
C47   H21   S    
C8    C46   S    
Cu2   N2    S    
C10   C11   A    
C58   H7    S    
C45   C55   A    
Cu1   O5    S    
C7    C20   A    
C36   N1    A    
C14   C15   A    
C40   C41   A    
C50   H31   S    
C27   C30   A    
C54   C57   S    
