data_mof_unit_52034.cif
_audit_creation_date              2012-12-10T17:11:01-0500
_audit_creation_method            fapswitch 2.2
_symmetry_space_group_name_H-M    P1
_symmetry_Int_Tables_number       1
_space_group_crystal_system       triclinic
_cell_length_a                    11.664211
_cell_length_b                    13.008511
_cell_length_c                    13.44702
_cell_angle_alpha                 91.988775
_cell_angle_beta                  76.474336
_cell_angle_gamma                 99.902748
_cell_volume                      1954.19258107

loop_
_atom_site_label
_atom_site_type_symbol
_atom_type_description
_atom_site_fract_x
_atom_site_fract_y
_atom_site_fract_z
_atom_type_partial_charge
C1    C     C_R   0.521103 0.700896 0.501258 0.820417
C2    C     C_R   0.447149 0.501892 0.976125 0.083077
C3    C     C_R   0.476655 0.533368 0.871959 0.090679
C4    C     C_R   0.535440 0.526922 0.034566 0.075541
C5    C     C_R   0.647193 0.589488 0.990674 0.168796
C6    C     C_R   0.668662 0.629109 0.891948 -0.243318
C7    C     C_R   0.583852 0.603092 0.834199 -0.202425
C8    C     C_R   0.516306 0.491813 0.135510 -0.241677
C9    C     C_R   0.712085 0.581481 0.148486 -0.196456
C10   C     C_R   0.397248 0.495295 0.808494 -0.105798
C11   C     C_R   0.467757 0.185765 0.497143 -0.056397
C12   C     C_R   0.436556 0.499419 0.696125 0.787098
C13   C     C_R   0.534384 0.814412 0.501114 -0.106770
C14   C     C_R   0.659198 0.985144 0.502743 0.254837
C15   C     C_R   0.644830 0.875838 0.503987 -0.231576
C16   C     C_R   0.436736 0.861332 0.496862 -0.269445
C17   C     C_R   0.448112 0.969186 0.495922 0.139277
C18   C     C_R   0.559252 0.031898 0.499276 0.094612
C19   C     C_R   0.567046 0.140213 0.500779 -0.254781
C20   C     C_R   0.358911 0.122862 0.492392 -0.195761
C21   C     C_R   0.349068 0.015028 0.492095 -0.192299
C22   C     C_R   0.948487 0.602906 0.588942 -0.342048
C23   C     C_R   0.479139 0.299132 0.498491 0.810986
C24   C     C_R   0.829165 0.592644 0.580776 0.096868
C25   C     C_R   0.855572 0.454344 0.462753 0.025453
C26   C     C_R   0.976552 0.462250 0.467977 0.071483
C27   C     C_R   0.023353 0.537426 0.532231 0.068973
C28   C     C_R   0.144190 0.545176 0.537713 0.022247
C29   C     C_R   0.171404 0.408200 0.418170 0.085769
C30   C     C_R   0.051762 0.397357 0.410598 -0.341871
C31   C     C_R   0.563842 0.505789 0.304167 0.799766
C32   C     C_R   0.735253 0.614356 0.047196 -0.193538
C33   C     C_R   0.601106 0.522551 0.193555 -0.049983
C34   C     C_R   0.282569 0.441498 0.852421 -0.186474
C35   C     C_R   0.248779 0.420013 0.956489 -0.149652
C36   C     C_R   0.330213 0.447574 0.017618 -0.181056
Cu1   Cu    Cu3+1 0.386470 0.492430 0.492410 0.936763
Cu2   Cu    Cu3+1 0.613530 0.507570 0.507590 0.937420
H1    H     H_    0.778383 0.606275 0.192783 0.153842
H2    H     H_    0.281233 0.156848 0.489497 0.152816
H3    H     H_    0.263961 0.967464 0.489147 0.131348
H4    H     H_    0.719923 0.837885 0.505433 0.167626
H5    H     H_    0.351287 0.813936 0.494461 0.158792
H6    H     H_    0.181027 0.602208 0.587411 0.117361
H7    H     H_    0.228772 0.357824 0.373808 0.118531
H8    H     H_    0.981957 0.661933 0.638709 0.132898
H9    H     H_    0.018485 0.338744 0.360369 0.133398
H10   H     H_    0.772799 0.644471 0.623527 0.111603
H11   H     H_    0.751317 0.680859 0.859202 0.137042
H12   H     H_    0.818600 0.397057 0.413345 0.115685
H13   H     H_    0.820607 0.662095 0.014012 0.133322
H14   H     H_    0.434859 0.441929 0.172282 0.138279
H15   H     H_    0.219836 0.413005 0.805676 0.157092
H16   H     H_    0.297622 0.426890 0.097291 0.124551
H17   H     H_    0.159882 0.378562 0.989578 0.139865
H18   H     H_    0.602178 0.640543 0.760459 0.151788
H19   H     H_    0.650117 0.189795 0.505633 0.169007
N1    N     N_R   0.215880 0.481050 0.481000 -0.178781
N2    N     N_R   0.784100 0.518950 0.519000 -0.178948
O1    O     O_R   0.419710 0.645650 0.494620 -0.587033
O2    O     O_R   0.611450 0.658430 0.507430 -0.602049
O3    O     O_R   0.357340 0.490460 0.641450 -0.583395
O4    O     O_R   0.549080 0.503250 0.654260 -0.576660
O5    O     O_R   0.388550 0.341570 0.492570 -0.592730
O6    O     O_R   0.580290 0.354350 0.505380 -0.586750
O7    O     O_R   0.450920 0.496750 0.345740 -0.583531
O8    O     O_R   0.642660 0.509540 0.358550 -0.586985
N3    N     N_2   0.772552 0.048856 0.502296 -0.433479
H20   H     H_    0.804591 0.099975 0.441296 0.240308
C37   C     C_3   0.864188 0.005241 0.534639 -0.705924
H21   H     H_    0.936772 0.069277 0.544811 0.230011
H22   H     H_    0.903308 0.951252 0.475585 0.216927
H23   H     H_    0.826575 0.963890 0.609094 0.235436

loop_
_geom_bond_atom_site_label_1
_geom_bond_atom_site_label_2
_ccdc_geom_bond_type
C31   O7    A    
C14   C18   A    
C35   C36   A    
C4    C8    A    
Cu1   O3    S    
C19   H19   S    
C31   O8    A    
C11   C19   A    
C26   C27   A    
C29   C30   A    
C34   C35   A    
C3    C7    A    
C5    C6    A    
C20   H2    S    
C9    H1    S    
C18   C19   A    
C25   H12   S    
C9    C32   A    
C16   C17   A    
C31   C33   S    
C37   H21   S    
C8    H14   S    
Cu1   N1    S    
C5    C32   A    
C9    C33   A    
C7    H18   S    
C11   C20   A    
C35   H17   S    
C24   H10   S    
C30   H9    S    
Cu2   O8    S    
C1    O1    A    
C12   O4    A    
N3    H20   S    
C25   C26   A    
C28   H6    S    
C17   C21   A    
C29   H7    S    
C2    C4    A    
C32   H13   S    
Cu1   Cu2   S    
C12   O3    A    
Cu2   O6    S    
Cu1   O7    S    
C37   H23   S    
C17   C18   A    
C10   C34   A    
C20   C21   A    
C16   H5    S    
C10   C12   S    
C21   H3    S    
C23   O5    A    
C22   H8    S    
C26   C30   A    
C22   C27   A    
C13   C15   A    
C22   C24   A    
C1    C13   S    
Cu1   O5    S    
Cu2   O4    S    
C2    C36   A    
C15   H4    S    
C4    C5    A    
C1    O2    A    
C6    C7    A    
C28   N1    A    
Cu2   O2    S    
C2    C3    A    
C3    C10   A    
C23   O6    A    
C24   N2    A    
C11   C23   S    
C8    C33   A    
C6    H11   S    
Cu1   O1    S    
C36   H16   S    
Cu2   N2    S    
C29   N1    A    
C34   H15   S    
N3    C37   S    
C13   C16   A    
C27   C28   A    
C14   N3    S    
C14   C15   A    
C37   H22   S    
C25   N2    A    
