data_mof_unit_21229.cif
_audit_creation_date              2012-12-11T17:09:27-0500
_audit_creation_method            fapswitch 2.2
_symmetry_space_group_name_H-M    P1
_symmetry_Int_Tables_number       1
_space_group_crystal_system       triclinic
_cell_length_a                    14.814685
_cell_length_b                    6.957866
_cell_length_c                    13.477947
_cell_angle_alpha                 90.246292
_cell_angle_beta                  99.817421
_cell_angle_gamma                 89.681
_cell_volume                      1368.91409691

loop_
_atom_site_label
_atom_site_type_symbol
_atom_type_description
_atom_site_fract_x
_atom_site_fract_y
_atom_site_fract_z
_atom_type_partial_charge
O1    O     O_R   0.586930 0.505770 0.416350 -0.538964
O2    O     O_R   0.413070 0.005770 0.583650 -0.548149
O3    O     O_R   0.397900 0.173100 0.389630 -0.539466
O4    O     O_R   0.602100 0.673100 0.610370 -0.533361
C1    C     C_R   0.364332 0.345464 0.362927 0.711360
C2    C     C_R   0.635712 0.845284 0.637010 0.735419
O5    O     O_R   0.585280 0.175870 0.404330 -0.519540
O6    O     O_R   0.414720 0.675870 0.595670 -0.527569
O7    O     O_R   0.601790 0.008380 0.598460 -0.536586
O8    O     O_R   0.398210 0.508380 0.401540 -0.539803
C3    C     C_R   0.615224 0.343843 0.383377 0.735893
C4    C     C_R   0.386339 0.845261 0.618271 0.763385
O9    O     O_3   0.505200 0.340120 0.563670 -0.372317
O10   O     O_3   0.494800 0.840120 0.436330 -0.367633
V1    V     V_3+5 0.499040 0.064180 0.488190 1.441379
V2    V     V_3+5 0.500960 0.564180 0.511810 1.443148
C5    C     C_R   0.257670 0.006884 0.684338 0.017093
C6    C     C_R   0.732989 0.519364 0.309108 0.110597
C7    C     C_R   0.321782 0.857337 0.691083 -0.255728
C8    C     C_R   0.681188 0.353785 0.311841 -0.264964
C9    C     C_R   0.325074 0.726456 0.772204 0.341252
C10   C     C_R   0.712368 0.188178 0.266037 0.372273
C11   C     C_R   0.260168 0.741783 0.839010 0.350665
C12   C     C_R   0.760068 0.214599 0.183712 0.360496
C13   C     C_R   0.188494 0.880150 0.821372 -0.254283
C14   C     C_R   0.813493 0.381128 0.181861 -0.245331
C15   C     C_R   0.193273 0.018539 0.747689 0.058629
C16   C     C_R   0.800659 0.530640 0.248120 0.012676
C17   C     C_3   0.120687 0.090983 0.665646 -0.389446
C18   C     C_3   0.869769 0.607812 0.332180 -0.401331
C19   C     C_3   0.191149 0.077056 0.595921 -0.396063
C20   C     C_3   0.797256 0.591355 0.398474 -0.366062
H1    H     H_    0.100256 0.241400 0.679509 0.171140
H2    H     H_    0.889725 0.757198 0.318508 0.181606
H3    H     H_    0.062974 0.988516 0.646119 0.153889
H4    H     H_    0.928701 0.508282 0.354205 0.148573
H5    H     H_    0.210520 0.219214 0.568955 0.157644
H6    H     H_    0.769113 0.723543 0.426288 0.208263
H7    H     H_    0.174584 0.965664 0.536264 0.161726
H8    H     H_    0.814756 0.482774 0.458900 0.134078
C21   C     C_1   0.783544 0.877265 0.782802 -0.180750
C22   C     C_1   0.216486 0.377061 0.217130 -0.203762
C23   C     C_1   0.716250 0.859975 0.716696 -0.183278
C24   C     C_1   0.283813 0.360192 0.283233 -0.194118
O11   O     O_R   0.101720 0.231700 0.098560 -0.540576
O12   O     O_R   0.898280 0.731700 0.901440 -0.542191
O13   O     O_R   0.914700 0.558980 0.095690 -0.556002
O14   O     O_R   0.085300 0.058980 0.904310 -0.542850
C25   C     C_R   0.884284 0.390835 0.116017 0.754262
C26   C     C_R   0.115346 0.889599 0.883858 0.755429
O15   O     O_R   0.102080 0.561590 0.110390 -0.535670
O16   O     O_R   0.897920 0.061590 0.889610 -0.532479
O17   O     O_R   0.086950 0.728940 0.916330 -0.515155
O18   O     O_R   0.913050 0.228940 0.083670 -0.518650
C27   C     C_R   0.135998 0.391870 0.137412 0.749080
C28   C     C_R   0.864020 0.892039 0.862566 0.736075
O19   O     O_3   0.994770 0.394510 0.936380 -0.368201
O20   O     O_3   0.005230 0.894510 0.063620 -0.379119
V3    V     V_3+5 0.000970 0.670520 0.011800 1.435354
V4    V     V_3+5 0.999030 0.170520 0.988200 1.457876
O21   O     O_3   0.396000 0.594205 0.791031 -0.550284
C29   C     C_3   0.362200 0.410402 0.760573 -0.112277
H9    H     H_    0.421106 0.310243 0.763484 0.148274
H10   H     H_    0.324560 0.410474 0.681704 0.108821
H11   H     H_    0.317871 0.353802 0.812246 0.159359
O22   O     O_3   0.738239 0.030278 0.327113 -0.554021
C30   C     C_3   0.810725 0.087075 0.405615 -0.296722
H12   H     H_    0.782137 0.149794 0.469598 0.142899
H13   H     H_    0.859977 0.187789 0.379796 0.127581
H14   H     H_    0.854017 0.964726 0.435916 0.140908
O23   O     O_3   0.265000 0.615355 0.918604 -0.547248
C31   C     C_3   0.320501 0.697565 0.003324 -0.197919
H15   H     H_    0.324686 0.596185 0.067258 0.150361
H16   H     H_    0.290431 0.834389 0.026212 0.109856
H17   H     H_    0.391509 0.721659 0.989418 0.154409
O24   O     O_3   0.744063 0.101247 0.097382 -0.564969
C32   C     C_3   0.752610 0.905119 0.120487 -0.127026
H18   H     H_    0.821091 0.874842 0.165344 0.150970
H19   H     H_    0.747843 0.822909 0.049098 0.132706
H20   H     H_    0.695967 0.855608 0.158371 0.154455

loop_
_geom_bond_atom_site_label_1
_geom_bond_atom_site_label_2
_ccdc_geom_bond_type
O11   V4    S    
O12   V3    S    
C15   C17   S    
O1    C3    A    
O2    C4    A    
C2    O7    A    
O17   V3    S    
O13   C25   A    
O18   V4    S    
C32   H18   S    
O5    C3    A    
C7    C9    A    
C12   C14   A    
O19   V3    S    
O20   V4    S    
C25   O18   A    
C17   H1    S    
C6    C8    A    
C13   C26   S    
C10   O22   S    
C29   H10   S    
O16   V4    S    
O10   V2    S    
C20   H6    S    
C9    O21   S    
O14   C26   A    
O22   C30   S    
O6    V2    S    
C21   C23   T    
C22   C24   T    
C31   H17   S    
O14   V4    S    
C32   H19   S    
C9    C11   A    
C3    C8    S    
C26   O17   A    
C18   H2    S    
C30   H12   S    
C5    C15   A    
C11   O23   S    
C6    C16   A    
O24   C32   S    
C31   H16   S    
C14   C25   S    
C12   O24   S    
O19   V4    S    
O20   V3    S    
C19   H5    S    
C30   H13   S    
O4    V2    S    
C21   C28   S    
C29   H9    S    
C22   C27   S    
O6    C4    A    
O1    V2    S    
O2    V1    S    
O4    C2    A    
C1    C24   S    
C8    C10   A    
C2    C23   S    
O9    V1    S    
C5    C19   S    
C10   C12   A    
O15   V3    S    
O3    V1    S    
C32   H20   S    
C29   H11   S    
C31   H15   S    
O3    C1    A    
C13   C15   A    
C17   H3    S    
C14   C16   A    
C18   H4    S    
C30   H14   S    
C16   C18   S    
O7    V1    S    
C1    O8    A    
C17   C19   S    
O8    V2    S    
C18   C20   S    
C4    C7    S    
O5    V1    S    
C5    C7    A    
C19   H7    S    
O15   C27   A    
C20   H8    S    
O21   C29   S    
O13   V3    S    
O23   C31   S    
C11   C13   A    
C6    C20   S    
O11   C27   A    
O9    V2    S    
O12   C28   A    
O10   V1    S    
O16   C28   A    
