data_mof_unit_36386.cif
_audit_creation_date              2013-03-05T15:45:14-0500
_audit_creation_method            fapswitch 2.2
_symmetry_space_group_name_H-M    P1
_symmetry_Int_Tables_number       1
_space_group_crystal_system       triclinic
_cell_length_a                    16.854313
_cell_length_b                    7.034019
_cell_length_c                    16.850514
_cell_angle_alpha                 89.999634
_cell_angle_beta                  100.383771
_cell_angle_gamma                 89.999402
_cell_volume                      1964.97137145

loop_
_atom_site_label
_atom_site_type_symbol
_atom_site_description
_atom_site_fract_x
_atom_site_fract_y
_atom_site_fract_z
_atom_type_partial_charge
O1    O     O_R   0.579510 0.506290 0.439030 -0.605124
O2    O     O_R   0.420490 0.006290 0.560970 -0.605127
O3    O     O_R   0.412540 0.170090 0.405290 -0.598292
O4    O     O_R   0.587460 0.670090 0.594710 -0.598285
C1    C     C_R   0.385453 0.345772 0.381933 0.899481
C2    C     C_R   0.614545 0.845770 0.618069 0.899460
O5    O     O_R   0.578390 0.176230 0.429330 -0.568217
O6    O     O_R   0.421610 0.676230 0.570670 -0.568215
O7    O     O_R   0.587530 0.011250 0.585190 -0.548462
O8    O     O_R   0.412470 0.511250 0.414810 -0.548440
C3    C     C_R   0.605894 0.345889 0.414826 0.972408
C4    C     C_R   0.394105 0.845890 0.585173 0.972423
O9    O     O_3   0.502800 0.340940 0.551110 -0.270610
O10   O     O_3   0.497200 0.840940 0.448890 -0.270593
V1    V     V_3+5 0.499480 0.064020 0.490520 1.213639
V2    V     V_3+5 0.500520 0.564020 0.509480 1.213642
C5    C     C_R   0.171358 0.903857 0.866238 -0.160619
C6    C     C_R   0.828640 0.403859 0.133761 -0.160607
C7    C     C_R   0.328453 0.863177 0.633504 -0.108931
C8    C     C_R   0.671546 0.363175 0.366495 -0.108932
C9    C     C_R   0.202683 0.009034 0.657125 -0.205535
C10   C     C_R   0.797309 0.509054 0.342869 -0.205543
C11   C     C_R   0.258063 0.973255 0.605655 0.267729
C12   C     C_R   0.741932 0.473265 0.394342 0.267795
C13   C     C_R   0.339658 0.787425 0.712091 -0.323670
C14   C     C_R   0.660344 0.287415 0.287911 -0.323679
C15   C     C_R   0.283995 0.825642 0.763529 0.166785
C16   C     C_R   0.716006 0.325637 0.236471 0.166783
C17   C     C_R   0.215411 0.938667 0.736073 0.164149
C18   C     C_R   0.784583 0.438679 0.263923 0.164140
C19   C     C_R   0.159961 0.978012 0.787497 -0.302711
C20   C     C_R   0.840031 0.478031 0.212498 -0.302738
C21   C     C_R   0.241668 0.794261 0.894340 0.324494
C22   C     C_R   0.758336 0.294245 0.105663 0.324501
C23   C     C_R   0.296613 0.755437 0.842622 -0.229980
C24   C     C_R   0.703391 0.255419 0.157381 -0.229974
H1    H     H_    0.106490 0.061285 0.765332 0.148188
H2    H     H_    0.893496 0.561324 0.234661 0.148252
H3    H     H_    0.149457 0.093898 0.635347 0.149867
H4    H     H_    0.850531 0.593930 0.364645 0.149857
H5    H     H_    0.349711 0.670333 0.864539 0.136051
H6    H     H_    0.650298 0.170301 0.135467 0.136049
H7    H     H_    0.393443 0.704905 0.734262 0.130764
H8    H     H_    0.606563 0.204885 0.265741 0.130769
C25   C     C_3   0.784265 0.689371 0.797731 0.204601
C26   C     C_3   0.215722 0.189351 0.202296 0.204554
H9    H     H_    0.771578 0.642551 0.857494 0.095221
H10   H     H_    0.228401 0.142498 0.142533 0.095249
C27   C     C_3   0.704538 0.670296 0.734309 0.014720
C28   C     C_3   0.295463 0.170294 0.265702 0.014700
H11   H     H_    0.712432 0.561083 0.688876 0.217818
H12   H     H_    0.287598 0.061080 0.311143 0.217927
H13   H     H_    0.786581 0.802373 0.627055 0.135669
H14   H     H_    0.213382 0.302423 0.372928 0.135834
C29   C     C_3   0.832290 0.988873 0.729475 0.043001
C30   C     C_3   0.167729 0.488977 0.270522 0.042950
C31   C     C_3   0.738407 0.017078 0.827067 -0.518105
C32   C     C_3   0.261595 0.517018 0.172919 -0.518244
C33   C     C_3   0.813343 0.904413 0.809951 -0.146002
C34   C     C_3   0.186651 0.404405 0.190055 -0.145879
H15   H     H_    0.754711 0.167539 0.842155 0.215131
H16   H     H_    0.245297 0.667475 0.157808 0.215056
H17   H     H_    0.717133 0.955164 0.880188 0.177310
H18   H     H_    0.282867 0.455048 0.119808 0.177332
C35   C     C_3   0.685711 0.863750 0.688737 -0.144092
C36   C     C_3   0.314287 0.363755 0.311266 -0.144138
C37   C     C_3   0.764907 0.927400 0.657230 0.121651
C38   C     C_3   0.235088 0.427437 0.342770 0.121611
C39   C     C_3   0.668347 0.012334 0.752548 -0.316127
C40   C     C_3   0.331652 0.512316 0.247445 -0.316083
H19   H     H_    0.610342 0.980864 0.772364 0.154037
H20   H     H_    0.389662 0.480847 0.227636 0.154054
H21   H     H_    0.660569 0.156073 0.725484 0.215978
H22   H     H_    0.339420 0.656065 0.274498 0.215950
H23   H     H_    0.828707 0.146029 0.734686 0.245973
H24   H     H_    0.171351 0.646121 0.265290 0.246174
O11   O     O_R   0.087500 0.266000 0.085220 -0.585599
O12   O     O_R   0.912500 0.766000 0.914780 -0.585702
O13   O     O_R   0.921600 0.589950 0.070670 -0.598404
O14   O     O_R   0.078400 0.089950 0.929330 -0.598347
C41   C     C_R   0.894200 0.420909 0.085365 0.941512
C42   C     C_R   0.105799 0.920908 0.914634 0.941510
O15   O     O_R   0.087460 0.596020 0.094710 -0.549728
O16   O     O_R   0.912540 0.096020 0.905290 -0.549559
O17   O     O_R   0.079520 0.760970 0.939020 -0.578808
O18   O     O_R   0.920480 0.260970 0.060980 -0.578746
C43   C     C_R   0.115907 0.425361 0.118321 0.923154
C44   C     C_R   0.884089 0.925366 0.881684 0.922991
O19   O     O_3   0.997180 0.425140 0.948910 -0.230468
O20   O     O_3   0.002820 0.925140 0.051090 -0.230417
V3    V     V_3+5 0.000520 0.702080 0.009480 1.232084
V4    V     V_3+5 0.999480 0.202080 0.990520 1.232173
C45   C     C_3   0.918681 0.954890 0.714282 -0.902643
H25   H     H_    0.942244 0.812385 0.732991 0.279681
H26   H     H_    0.921697 0.977105 0.649643 0.276087
H27   H     H_    0.960187 0.058925 0.749866 0.236991
C46   C     C_3   0.081337 0.455271 0.285733 -0.903866
H28   H     H_    0.058038 0.312034 0.267939 0.280420
H29   H     H_    0.078194 0.479766 0.350214 0.276223
H30   H     H_    0.039720 0.557991 0.249429 0.236932
N1    N     N_R   0.750393 0.080468 0.596970 0.244167
O21   O     O_R   0.727291 0.248071 0.615948 -0.431224
O22   O     O_R   0.765783 0.053214 0.524927 -0.430658
N2    N     N_R   0.249613 0.580478 0.403041 0.244156
O23   O     O_R   0.272750 0.748062 0.384080 -0.431146
O24   O     O_R   0.234203 0.553220 0.475075 -0.430655
C47   C     C_3   0.260952 0.717323 0.979054 -1.043077
H31   H     H_    0.223406 0.782500 0.019391 0.249666
H32   H     H_    0.251787 0.561006 0.977687 0.252027
H33   H     H_    0.324796 0.748561 0.005732 0.245469
C48   C     C_3   0.739058 0.217287 0.020952 -1.043076
H34   H     H_    0.776593 0.282485 0.980610 0.249680
H35   H     H_    0.748243 0.060976 0.022325 0.252028
H36   H     H_    0.675209 0.248481 0.994274 0.245462
C49   C     C_3   0.238398 0.055327 0.521805 -0.812416
H37   H     H_    0.282988 0.019564 0.483532 0.263603
H38   H     H_    0.178881 0.001218 0.490953 0.272221
H39   H     H_    0.235261 0.212127 0.526034 0.248877
C50   C     C_3   0.761596 0.555337 0.478191 -0.812545
H40   H     H_    0.717013 0.519544 0.516468 0.263610
H41   H     H_    0.821120 0.501254 0.509039 0.272216
H42   H     H_    0.764717 0.712138 0.473960 0.248870
N3    N     N_R   0.846078 0.559716 0.777267 0.220541
O25   O     O_R   0.857984 0.541897 0.703427 -0.436572
O26   O     O_R   0.874465 0.428461 0.828587 -0.401926
N4    N     N_R   0.153911 0.059708 0.222776 0.220503
O27   O     O_R   0.142173 0.041532 0.296657 -0.436911
O28   O     O_R   0.125454 0.928597 0.171415 -0.401723
C51   C     C_3   0.635403 0.594912 0.775234 -1.022631
H43   H     H_    0.627595 0.683114 0.827844 0.251275
H44   H     H_    0.576935 0.589152 0.733017 0.269022
H45   H     H_    0.649991 0.448603 0.797895 0.249634
C52   C     C_3   0.364592 0.094924 0.224763 -1.022625
H46   H     H_    0.372380 0.183109 0.172143 0.251283
H47   H     H_    0.423068 0.089200 0.266970 0.269007
H48   H     H_    0.350012 0.948603 0.202116 0.249629

loop_
_geom_bond_atom_site_label_1
_geom_bond_atom_site_label_2
_geom_bond_distance
_ccdc_geom_bond_type
C32   H16   1.111348 S    
O15   C43   1.326794 A    
O11   V4    2.023864 S    
O4    V2    2.001953 S    
C45   H25   1.103053 S    
C30   H24   1.111414 S    
C29   C33   1.565220 S    
C15   C17   1.410474 A    
C49   H38   1.110582 S    
C24   H6    1.084652 S    
C48   H34   1.107993 S    
O1    C3    1.304773 A    
C29   C45   1.541814 S    
O2    C4    1.304773 A    
C13   H7    1.084497 S    
C2    O7    1.333486 A    
N2    O24   1.300473 A    
C46   H28   1.103084 S    
O17   V3    1.980907 S    
C14   H8    1.084497 S    
N3    O25   1.301575 A    
C25   N3    1.471563 S    
O5    C3    1.318952 A    
N4    O27   1.301589 A    
H13   C37   1.110118 S    
C27   C35   1.566584 S    
C35   C39   1.564478 S    
N3    O26   1.296136 A    
H14   C38   1.110115 S    
C36   C38   1.587344 S    
C32   C34   1.561351 S    
C49   H37   1.103965 S    
C6    C41   1.491690 S    
C5    C42   1.491684 S    
O6    V2    1.987274 S    
C39   H19   1.110842 S    
C33   C44   1.544336 S    
C2    C35   1.535514 S    
C8    C12   1.423559 A    
C27   H11   1.109356 S    
C21   C47   1.506304 S    
C40   H22   1.107175 S    
C52   H48   1.109742 S    
C28   H12   1.109331 S    
C47   H31   1.107994 S    
C39   H21   1.107173 S    
C20   H2    1.083253 S    
O19   V3    2.195197 S    
O13   V3    1.987184 S    
C41   O18   1.302421 A    
C51   H45   1.109742 S    
C29   H23   1.111420 S    
C25   H9    1.116220 S    
C45   H26   1.110540 S    
C22   C48   1.506306 S    
C47   H32   1.109998 S    
C5    C21   1.421444 A    
C30   C46   1.541641 S    
C23   H5    1.084653 S    
N2    O23   1.299465 A    
C46   H29   1.110768 S    
C34   C43   1.544332 S    
C31   H17   1.111369 S    
C50   H41   1.110581 S    
C32   H18   1.111370 S    
C26   H10   1.116223 S    
C3    C8    1.492401 S    
N1    O21   1.299466 A    
O16   C44   1.326777 A    
O14   C42   1.315153 A    
O13   C41   1.315155 A    
C32   C40   1.561339 S    
C15   C23   1.401124 A    
C30   C38   1.568479 S    
C9    C17   1.399237 A    
C30   C34   1.565235 S    
O14   V4    1.987179 S    
C7    C11   1.423561 A    
C6    C22   1.421447 A    
O20   V4    2.195185 S    
C9    H3    1.084934 S    
C25   C27   1.564636 S    
O6    C4    1.318952 A    
C49   H39   1.107109 S    
C10   H4    1.084933 S    
C48   H35   1.109995 S    
O1    V2    1.978960 S    
O19   V4    1.716126 S    
O2    V1    1.978960 S    
C28   C36   1.566571 S    
O11   C43   1.304073 A    
O4    C2    1.351151 A    
C45   H27   1.110513 S    
C9    C11   1.406616 A    
C52   H46   1.109129 S    
C5    C19   1.406257 A    
C47   H33   1.110811 S    
C10   C12   1.406613 A    
C6    C20   1.406260 A    
O18   V4    1.980902 S    
C46   H30   1.110667 S    
O3    V1    2.001935 S    
C37   N1    1.469901 S    
C51   H43   1.109132 S    
C50   H42   1.107108 S    
O12   C44   1.304084 A    
C25   C33   1.591924 S    
C12   C50   1.506861 S    
N4    O28   1.296137 A    
C10   C18   1.399237 A    
C26   C34   1.591989 S    
C26   N4    1.471602 S    
C38   N2    1.469894 S    
C1    C36   1.535503 S    
O3    C1    1.351153 A    
C28   C52   1.550537 S    
C29   C37   1.568558 S    
C50   H40   1.103966 S    
C31   H15   1.111339 S    
O12   V3    2.023851 S    
C13   C15   1.413099 A    
C42   O17   1.302418 A    
O15   V3    2.001907 S    
C26   C28   1.564661 S    
C14   C16   1.413100 A    
C35   C37   1.587275 S    
C16   C18   1.410473 A    
O7    V1    2.007854 S    
C1    O8    1.333482 A    
C17   C19   1.411663 A    
O8    V2    2.007864 S    
C18   C20   1.411661 A    
O20   V3    1.716135 S    
C36   C40   1.564497 S    
C8    C14   1.408192 A    
C27   C51   1.550528 S    
C4    C7    1.492401 S    
O5    V1    1.987279 S    
C21   C23   1.408037 A    
C48   H36   1.110810 S    
C22   C24   1.408036 A    
C7    C13   1.408192 A    
C31   C33   1.561316 S    
C11   C49   1.506862 S    
C19   H1    1.083250 S    
C16   C24   1.401124 A    
N1    O22   1.300473 A    
O9    V2    1.716409 S    
C52   H47   1.107300 S    
O10   V1    1.716418 S    
C40   H20   1.110841 S    
O16   V4    2.001928 S    
C31   C39   1.561303 S    
C51   H44   1.107296 S    
