data_mof_unit_8132.cif
_audit_creation_date              2012-12-10T16:42:56-0500
_audit_creation_method            fapswitch 2.2
_symmetry_space_group_name_H-M    P1
_symmetry_Int_Tables_number       1
_space_group_crystal_system       triclinic
_cell_length_a                    7.53936
_cell_length_b                    8.677498
_cell_length_c                    13.040686
_cell_angle_alpha                 86.852147
_cell_angle_beta                  79.373704
_cell_angle_gamma                 102.909469
_cell_volume                      813.209109866

loop_
_atom_site_label
_atom_site_type_symbol
_atom_type_description
_atom_site_fract_x
_atom_site_fract_y
_atom_site_fract_z
_atom_type_partial_charge
C1    C     C_R   0.452727 0.199930 0.503407 0.879873
C2    C     C_R   0.547237 0.800045 0.496115 0.856728
C3    C     C_R   0.467762 0.495568 0.701261 0.807996
C4    C     C_R   0.534453 0.508345 0.298899 0.767881
C5    C     C_R   0.556973 0.513463 0.185109 -0.113707
C6    C     C_R   0.455382 0.496974 0.814834 -0.080867
C7    C     C_R   0.281304 0.536139 0.982437 -0.204776
C8    C     C_R   0.726524 0.455144 0.021965 -0.238034
C9    C     C_R   0.290073 0.513177 0.877592 -0.294265
C10   C     C_R   0.703364 0.457730 0.129401 -0.230366
C11   C     C_R   0.608426 0.485751 0.861228 0.192277
C12   C     C_R   0.436545 0.572844 0.131052 0.207743
C13   C     C_R   0.590514 0.489503 0.970099 0.067688
C14   C     C_R   0.434445 0.533075 0.028165 0.112388
C15   C     C_2   0.426416 0.031521 0.505947 -0.374611
C16   C     C_2   0.573226 0.968371 0.492735 -0.364447
Cu1   Cu    Cu3+1 0.686350 0.517570 0.488220 0.988558
Cu2   Cu    Cu3+1 0.313650 0.482430 0.511780 0.949444
H1    H     H_    0.802106 0.417816 0.168780 0.178108
H2    H     H_    0.169438 0.514620 0.844700 0.177408
H3    H     H_    0.153210 0.552895 0.028220 0.172364
H4    H     H_    0.845960 0.417607 0.982026 0.147070
H5    H     H_    0.284971 0.959209 0.519315 0.189262
H6    H     H_    0.714485 0.040584 0.478886 0.171865
N1    N     N_2   0.033570 0.455950 0.529530 -0.003433
N2    N     N_2   0.966430 0.544050 0.470470 0.006894
O1    O     O_R   0.621060 0.286250 0.492350 -0.554835
O2    O     O_R   0.378940 0.713750 0.507650 -0.576993
O3    O     O_R   0.306310 0.256580 0.512240 -0.608239
O4    O     O_R   0.693690 0.743420 0.487760 -0.600641
O5    O     O_R   0.631800 0.512400 0.642670 -0.525230
O6    O     O_R   0.368200 0.487600 0.357330 -0.593772
O7    O     O_R   0.317060 0.482730 0.662570 -0.609532
O8    O     O_R   0.682940 0.517270 0.337430 -0.585337
N3    N     N_2   0.339332 0.686176 0.175332 -0.430822
H7    H     H_    0.384649 0.727105 0.240613 0.238093
C17   C     C_3   0.332932 0.821736 0.106420 -0.704661
H8    H     H_    0.447001 0.845793 0.035876 0.235047
H9    H     H_    0.348050 0.930766 0.148300 0.215715
H10   H     H_    0.196234 0.801589 0.082848 0.237186
N4    N     N_2   0.783150 0.484569 0.797417 -0.413971
H11   H     H_    0.843376 0.395171 0.818055 0.226424
C18   C     C_3   0.909952 0.639950 0.772041 -0.621438
H12   H     H_    0.955178 0.684795 0.843519 0.197648
H13   H     H_    0.842273 0.725925 0.737694 0.233597
H14   H     H_    0.033546 0.632309 0.713257 0.249113
N5    N     N_3   0.914327 0.312595 0.573204 -0.403192
H15   H     H_    0.937104 0.292801 0.648854 0.203967
H16   H     H_    0.957821 0.224423 0.530907 0.208993
N6    N     N_3   0.076151 0.695364 0.437731 -0.439987
H17   H     H_    0.002023 0.754781 0.395935 0.221263
H18   H     H_    0.185200 0.682867 0.380620 0.232564

loop_
_geom_bond_atom_site_label_1
_geom_bond_atom_site_label_2
_ccdc_geom_bond_type
C8    H4    S    
C18   H12   S    
C11   N4    S    
C8    C13   A    
C1    C15   S    
C2    C16   S    
C7    C14   A    
C11   C13   A    
N4    H11   S    
N1    N5    S    
C9    H2    S    
N6    H18   S    
N5    H15   S    
C10   H1    S    
C2    O4    A    
C3    C6    S    
C6    C9    A    
C15   H5    S    
Cu1   Cu2   S    
C5    C10   A    
N5    H16   S    
Cu2   O3    S    
C13   C14   A    
C12   N3    S    
C3    O5    A    
Cu1   O4    S    
N4    C18   S    
C4    O6    A    
Cu2   N1    S    
Cu1   N2    S    
C1    O3    A    
Cu2   O7    S    
C17   H8    S    
C12   C14   A    
N6    H17   S    
C17   H10   S    
N2    N6    S    
Cu1   O5    S    
C18   H14   S    
C4    O8    A    
Cu2   O6    S    
Cu1   O8    S    
C3    O7    A    
C15   C16   D    
Cu1   O1    S    
C7    C9    A    
C17   H9    S    
Cu2   O2    S    
C5    C12   A    
C16   H6    S    
C6    C11   A    
C1    O1    A    
C2    O2    A    
N3    C17   S    
N1    N2    D    
C7    H3    S    
C18   H13   S    
C8    C10   A    
N3    H7    S    
C4    C5    S    
