data_mof_unit_59935.cif
_audit_creation_date              2012-12-10T18:56:22-0500
_audit_creation_method            fapswitch 2.2
_symmetry_space_group_name_H-M    P1
_symmetry_Int_Tables_number       1
_space_group_crystal_system       triclinic
_cell_length_a                    10.710367
_cell_length_b                    10.006935
_cell_length_c                    19.242729
_cell_angle_alpha                 90.031747
_cell_angle_beta                  93.787974
_cell_angle_gamma                 89.955217
_cell_volume                      2057.88968789

loop_
_atom_site_label
_atom_site_type_symbol
_atom_type_description
_atom_site_fract_x
_atom_site_fract_y
_atom_site_fract_z
_atom_type_partial_charge
C1    C     C_R   0.872370 0.499990 0.500243 -0.003050
C2    C     C_R   0.127628 0.500009 0.499732 -0.003008
C3    C     C_R   0.422688 0.589126 0.961107 -0.186817
C4    C     C_R   0.575255 0.408968 0.038805 -0.186901
C5    C     C_R   0.422934 0.589513 0.033129 -0.187441
C6    C     C_R   0.575020 0.408593 0.966783 -0.187496
C7    C     C_R   0.499253 0.499466 0.072122 0.133963
C8    C     C_R   0.498797 0.498730 0.927796 0.133935
C9    C     C_R   0.260353 0.500026 0.499683 0.847937
C10   C     C_R   0.739646 0.499974 0.500307 0.848058
C11   C     C_R   0.499082 0.499975 0.366578 0.888226
C12   C     C_R   0.500871 0.500019 0.633420 0.888172
C13   C     C_R   0.065049 0.379199 0.508181 -0.196825
C14   C     C_R   0.934949 0.620799 0.491790 -0.196757
C15   C     C_R   0.937199 0.379206 0.508436 -0.196544
C16   C     C_R   0.062799 0.620792 0.491535 -0.196521
C17   C     C_R   0.385187 0.499335 0.739500 0.147484
C18   C     C_R   0.614062 0.500062 0.260240 0.147444
C19   C     C_R   0.384167 0.499793 0.251653 0.146644
C20   C     C_R   0.615076 0.500022 0.748546 0.146591
C21   C     C_R   0.385815 0.498892 0.811841 -0.172991
C22   C     C_R   0.612955 0.499917 0.187882 -0.172852
C23   C     C_R   0.385561 0.499640 0.179412 -0.168461
C24   C     C_R   0.613206 0.499558 0.820767 -0.168339
C25   C     C_R   0.499235 0.498968 0.852242 0.011546
C26   C     C_R   0.499294 0.499705 0.147697 0.011576
C27   C     C_R   0.580548 0.071609 0.544969 0.207919
C28   C     C_R   0.419452 0.928393 0.455032 0.207946
C29   C     C_R   0.419337 0.071668 0.455098 0.204232
C30   C     C_R   0.580661 0.928331 0.544904 0.204280
C31   C     C_R   0.500427 0.499974 0.708177 -0.035646
C32   C     C_R   0.499058 0.499926 0.291803 -0.035737
H1    H     H_    0.114383 0.285038 0.514888 0.161352
H2    H     H_    0.885614 0.714961 0.485085 0.161357
H3    H     H_    0.889701 0.285064 0.515213 0.158521
H4    H     H_    0.110298 0.714933 0.484759 0.158514
H5    H     H_    0.298114 0.497063 0.836905 0.141448
H6    H     H_    0.700477 0.501381 0.162634 0.141432
H7    H     H_    0.298136 0.498038 0.147639 0.141212
H8    H     H_    0.700441 0.501086 0.852714 0.141255
H9    H     H_    0.364563 0.660306 0.931434 0.136185
H10   H     H_    0.633430 0.337834 0.068479 0.136178
H11   H     H_    0.364906 0.660923 0.058473 0.135736
H12   H     H_    0.633121 0.337259 0.941435 0.135773
N1    N     N_R   0.500000 0.857200 0.500000 -0.117574
N2    N     N_R   0.500000 0.142800 0.500000 -0.117580
O1    O     O_R   0.316770 0.614620 0.500000 -0.631630
O2    O     O_R   0.683230 0.385380 0.500000 -0.631663
O3    O     O_R   0.683230 0.614620 0.500000 -0.632921
O4    O     O_R   0.316770 0.385380 0.500000 -0.632992
O5    O     O_R   0.500030 0.614710 0.398180 -0.619557
O6    O     O_R   0.499970 0.385290 0.601820 -0.619584
O7    O     O_R   0.499970 0.614710 0.601820 -0.619169
O8    O     O_R   0.500030 0.385290 0.398180 -0.619188
Zn1   Zn    Zn3+2 0.500000 0.653120 0.500000 0.931432
Zn2   Zn    Zn3+2 0.500000 0.346880 0.500000 0.931399
C33   C     C_3   0.671120 0.142318 0.596147 -0.835729
H13   H     H_    0.668014 0.250311 0.593057 0.286493
H14   H     H_    0.650669 0.116319 0.650279 0.222981
H15   H     H_    0.768716 0.113747 0.586862 0.206354
C34   C     C_3   0.328881 0.857687 0.403858 -0.835913
H16   H     H_    0.331998 0.749701 0.406960 0.286512
H17   H     H_    0.231284 0.886259 0.413141 0.206391
H18   H     H_    0.349334 0.883672 0.349724 0.223002
C35   C     C_3   0.327687 0.142472 0.404536 -0.829519
H19   H     H_    0.332402 0.250447 0.406808 0.287377
H20   H     H_    0.345464 0.114845 0.350218 0.221632
H21   H     H_    0.230333 0.115789 0.415366 0.209563
C36   C     C_3   0.672302 0.857526 0.595472 -0.829658
H22   H     H_    0.667611 0.749547 0.593198 0.287407
H23   H     H_    0.769658 0.884229 0.584658 0.209580
H24   H     H_    0.654495 0.885141 0.649788 0.221583
C37   C     C_3   0.262101 0.498762 0.696500 -0.903964
H25   H     H_    0.254917 0.589196 0.663052 0.246446
H26   H     H_    0.255850 0.408365 0.662956 0.245388
H27   H     H_    0.181082 0.498292 0.729682 0.237343
C38   C     C_3   0.737394 0.500669 0.303005 -0.904263
H28   H     H_    0.744637 0.410462 0.336618 0.246514
H29   H     H_    0.818179 0.500712 0.269653 0.237372
H30   H     H_    0.744007 0.591290 0.336377 0.245309
C39   C     C_3   0.260553 0.499573 0.285018 -0.937886
H31   H     H_    0.253308 0.409144 0.317804 0.237989
H32   H     H_    0.253028 0.589818 0.317980 0.236660
H33   H     H_    0.180082 0.499607 0.245525 0.243967
C40   C     C_3   0.738927 0.500739 0.715433 -0.938175
H34   H     H_    0.746276 0.591497 0.682898 0.238129
H35   H     H_    0.819168 0.500445 0.755073 0.243992
H36   H     H_    0.746751 0.410820 0.682259 0.236621

loop_
_geom_bond_atom_site_label_1
_geom_bond_atom_site_label_2
_ccdc_geom_bond_type
C36   H24   S    
C37   H25   S    
C30   N1    A    
C39   H33   S    
C39   H31   S    
C40   H34   S    
C7    C26   S    
C28   C29   A    
C40   H36   S    
C22   H6    S    
C34   H17   S    
C23   C26   A    
C36   H23   S    
C2    C13   A    
C39   H32   S    
C20   C24   A    
C35   H20   S    
C1    C15   A    
C2    C16   A    
C12   O7    A    
C38   H28   S    
C28   C34   S    
C38   H29   S    
C5    H11   S    
C6    H12   S    
C27   C30   A    
C17   C37   S    
C8    C25   S    
C37   H26   S    
C34   H16   S    
C4    C7    A    
C19   C32   A    
C15   H3    S    
C12   O6    A    
C40   H35   S    
O8    Zn2   S    
C28   N1    A    
C9    O4    A    
C24   C25   A    
C4    C6    A    
C3    C8    A    
C27   C33   S    
C5    C7    A    
C33   H15   S    
C6    C8    A    
O3    Zn1   S    
O4    Zn2   S    
C34   H18   S    
C19   C23   A    
C13   H1    S    
C35   H21   S    
C20   C40   S    
C11   O8    A    
C29   C35   S    
C27   N2    A    
C11   C32   S    
C9    O1    A    
C13   C15   A    
C12   C31   S    
C10   O2    A    
C17   C31   A    
C37   H27   S    
C14   C16   A    
C33   H14   S    
C18   C32   A    
O7    Zn1   S    
C30   C36   S    
O1    Zn1   S    
C38   H30   S    
O2    Zn2   S    
C21   C25   A    
C3    H9    S    
C18   C22   A    
C1    C10   S    
C3    C5    A    
C14   H2    S    
C29   N2    A    
C16   H4    S    
C10   O3    A    
C33   H13   S    
C4    H10   S    
C18   C38   S    
C23   H7    S    
C24   H8    S    
O5    Zn1   S    
C36   H22   S    
C17   C21   A    
C11   O5    A    
C21   H5    S    
N1    Zn1   S    
C35   H19   S    
C22   C26   A    
N2    Zn2   S    
C1    C14   A    
C19   C39   S    
C2    C9    S    
O6    Zn2   S    
C20   C31   A    
