data_mof_unit_31636.cif
_audit_creation_date              2012-12-10T16:49:30-0500
_audit_creation_method            fapswitch 2.2
_symmetry_space_group_name_H-M    P1
_symmetry_Int_Tables_number       1
_space_group_crystal_system       triclinic
_cell_length_a                    19.233165
_cell_length_b                    8.689766
_cell_length_c                    7.551327
_cell_angle_alpha                 103.640348
_cell_angle_beta                  94.638919
_cell_angle_gamma                 93.651244
_cell_volume                      1217.9822188

loop_
_atom_site_label
_atom_site_type_symbol
_atom_type_description
_atom_site_fract_x
_atom_site_fract_y
_atom_site_fract_z
_atom_type_partial_charge
C1    C     C_R   0.497832 0.199776 0.452795 0.876783
C2    C     C_R   0.809576 0.383699 0.379782 0.032924
C3    C     C_R   0.145993 0.495222 0.497276 -0.066004
C4    C     C_R   0.854006 0.504768 0.502718 -0.066055
C5    C     C_R   0.174241 0.368705 0.377242 0.146980
C6    C     C_R   0.825759 0.631296 0.622757 0.146998
C7    C     C_R   0.247714 0.362180 0.384673 0.076453
C8    C     C_R   0.752286 0.637821 0.615328 0.076474
C9    C     C_R   0.291635 0.488076 0.502668 -0.226443
C10   C     C_R   0.708364 0.511919 0.497331 -0.226470
C11   C     C_R   0.929943 0.501463 0.500172 0.443447
C12   C     C_R   0.502168 0.800224 0.547205 0.876784
C13   C     C_R   0.070056 0.498525 0.499822 0.443439
C14   C     C_3   0.160633 0.749271 0.752071 -0.751941
C15   C     C_3   0.839364 0.250692 0.247921 -0.751876
C16   C     C_3   0.127087 0.241142 0.239324 -0.786235
C17   C     C_3   0.872914 0.758869 0.760678 -0.786201
C18   C     C_3   0.278013 0.218837 0.269883 -0.793726
C19   C     C_3   0.721987 0.781165 0.730122 -0.793755
C20   C     C_3   0.413044 0.386235 0.949563 -0.331978
C21   C     C_3   0.586956 0.613765 0.050436 -0.331978
C22   C     C_2   0.496883 0.031093 0.427218 -0.339326
C23   C     C_2   0.503117 0.968907 0.572782 -0.339330
C24   C     C_R   0.367800 0.495772 0.500846 0.869970
C25   C     C_R   0.632200 0.504227 0.499154 0.869974
C26   C     C_R   0.262979 0.612123 0.620436 0.551619
C27   C     C_R   0.737020 0.387863 0.379559 0.551603
C28   C     C_R   0.190423 0.616282 0.620211 0.032906
Cu1   Cu    Cu3+1 0.507710 0.517380 0.684380 0.976925
Cu2   Cu    Cu3+1 0.492290 0.482620 0.315620 0.976925
F1    F     F_    0.306344 0.731383 0.732931 -0.671950
F2    F     F_    0.693653 0.268598 0.267063 -0.671940
H1    H     H_    0.491102 0.957864 0.287751 0.188271
H2    H     H_    0.129070 0.125759 0.277835 0.235373
H3    H     H_    0.071581 0.267713 0.227871 0.234187
H4    H     H_    0.870935 0.874254 0.722154 0.235364
H5    H     H_    0.855435 0.771246 0.899532 0.232684
H6    H     H_    0.928418 0.732289 0.772138 0.234186
H7    H     H_    0.270225 0.219477 0.122797 0.232610
H8    H     H_    0.334505 0.213448 0.307494 0.215669
H9    H     H_    0.251833 0.107635 0.290297 0.238245
H10   H     H_    0.729772 0.780520 0.877203 0.232611
H11   H     H_    0.748167 0.892367 0.709722 0.238249
H12   H     H_    0.508898 0.042136 0.712248 0.188271
H13   H     H_    0.665498 0.786560 0.692509 0.215673
H14   H     H_    0.391189 0.306337 0.029619 0.159687
H15   H     H_    0.376395 0.479735 0.948630 0.196351
H16   H     H_    0.416407 0.308416 0.813219 0.178072
H17   H     H_    0.608811 0.693662 0.970380 0.159689
H18   H     H_    0.583593 0.691584 0.186780 0.178073
H19   H     H_    0.623605 0.520264 0.051370 0.196349
H20   H     H_    0.130521 0.821237 0.674681 0.234964
H21   H     H_    0.125483 0.698775 0.837621 0.222293
H22   H     H_    0.201806 0.830584 0.846087 0.271081
H23   H     H_    0.869476 0.178725 0.325321 0.234951
H24   H     H_    0.798190 0.169369 0.153905 0.271065
H25   H     H_    0.874513 0.301183 0.162357 0.222284
H26   H     H_    0.144567 0.228780 0.100480 0.232695
N1    N     N_R   0.036331 0.611121 0.438536 -0.235355
N2    N     N_R   0.963669 0.388867 0.561459 -0.235356
N3    N     N_R   0.967259 0.612686 0.438904 -0.231043
N4    N     N_R   0.032741 0.387302 0.561090 -0.231044
N5    N     N_2   0.480680 0.456420 0.038530 -0.055897
N6    N     N_2   0.519320 0.543580 0.961470 -0.055897
O1    O     O_R   0.505010 0.286130 0.619770 -0.593247
O2    O     O_R   0.494990 0.713870 0.380230 -0.593246
O3    O     O_R   0.491990 0.256780 0.308370 -0.571847
O4    O     O_R   0.508010 0.743220 0.691630 -0.571846
O5    O     O_R   0.406650 0.514660 0.655750 -0.568663
O6    O     O_R   0.593350 0.485340 0.344250 -0.568666
O7    O     O_R   0.393640 0.485310 0.344340 -0.590917
O8    O     O_R   0.606360 0.514690 0.655660 -0.590914

loop_
_geom_bond_atom_site_label_1
_geom_bond_atom_site_label_2
_ccdc_geom_bond_type
C10   C27   A    
C9    C26   A    
C2    C4    A    
C18   H7    S    
C19   H13   S    
C9    C24   S    
C2    C27   A    
C13   N1    A    
C17   H4    S    
C6    C17   S    
Cu1   O4    S    
C12   O4    A    
C26   C28   A    
Cu2   O3    S    
C3    C13   S    
C19   H10   S    
C7    C18   S    
C14   C28   S    
C15   H24   S    
Cu1   O8    S    
C20   N5    S    
C21   H17   S    
Cu2   O7    S    
Cu1   N6    S    
C5    C7    A    
C26   F1    S    
C14   H22   S    
C25   O8    A    
C16   H26   S    
Cu2   N5    S    
C4    C11   S    
C2    C15   S    
C15   H25   S    
C12   C23   S    
Cu1   Cu2   S    
Cu1   O1    S    
Cu2   O2    S    
C10   C25   S    
C1    C22   S    
C21   H18   S    
Cu2   O6    S    
C19   H11   S    
C24   O5    A    
Cu1   O5    S    
C17   H6    S    
C16   H3    S    
C23   H12   S    
C14   H20   S    
N1    N3    A    
C8    C19   S    
C13   N4    A    
N5    N6    D    
C20   H15   S    
C3    C5    A    
C21   H19   S    
C14   H21   S    
C6    C8    A    
N2    N4    A    
C4    C6    A    
C18   H9    S    
C7    C9    A    
C22   H1    S    
C18   H8    S    
C22   C23   D    
C3    C28   A    
C5    C16   S    
C17   H5    S    
C25   O6    A    
C20   H16   S    
C16   H2    S    
C27   F2    S    
C12   O2    A    
C1    O1    A    
C8    C10   A    
C20   H14   S    
C1    O3    A    
C11   N2    A    
C24   O7    A    
C11   N3    A    
C21   N6    S    
C15   H23   S    
