data_mof_unit_65057.cif
_audit_creation_date              2012-10-26T21:18:35-0400
_audit_creation_method            fapswitch 2.2
_symmetry_space_group_name_H-M    P1
_symmetry_Int_Tables_number       1
_space_group_crystal_system       triclinic
_cell_length_a                    10.468938
_cell_length_b                    11.73053
_cell_length_c                    17.389404
_cell_angle_alpha                 89.997556
_cell_angle_beta                  85.996641
_cell_angle_gamma                 90.001548
_cell_volume                      2130.31569883

loop_
_atom_site_label
_atom_site_type_symbol
_atom_type_description
_atom_site_fract_x
_atom_site_fract_y
_atom_site_fract_z
_atom_type_partial_charge
C1    C     C_R   0.500001 0.716675 0.500002 0.550968
C2    C     C_R   0.516418 0.501501 0.349686 0.544220
C3    C     C_R   0.475134 0.492561 0.734389 0.014516
C4    C     C_R   0.524866 0.507439 0.265611 0.014516
C5    C     C_R   0.587020 0.477483 0.773063 -0.127760
C6    C     C_R   0.412980 0.522517 0.226937 -0.127760
C7    C     C_R   0.580510 0.471143 0.852825 -0.106246
C8    C     C_R   0.419490 0.528857 0.147175 -0.106246
C9    C     C_R   0.461997 0.481448 0.895189 0.043653
C10   C     C_R   0.538003 0.518552 0.104811 0.043653
C11   C     C_R   0.349713 0.493272 0.856666 -0.113683
C12   C     C_R   0.499999 0.283325 0.499998 0.550968
C13   C     C_R   0.650287 0.506728 0.143334 -0.113683
C14   C     C_R   0.356128 0.499252 0.776553 -0.126428
C15   C     C_R   0.643872 0.500747 0.223446 -0.126428
C16   C     C_2   0.452919 0.479804 0.979589 -0.132970
C17   C     C_2   0.547081 0.520196 0.020411 -0.132970
C18   C     C_1   0.500003 0.838053 0.499999 -0.016328
C19   C     C_1   0.499997 0.161946 0.500001 -0.016328
C20   C     C_1   0.500001 0.940269 0.499999 -0.034565
C21   C     C_1   0.499999 0.059731 0.500001 -0.034565
C22   C     C_1   0.927936 0.500000 0.499996 0.097549
C23   C     C_1   0.072064 0.500000 0.500004 0.097548
C24   C     C_R   0.483582 0.498499 0.650314 0.544220
Cu1   Cu    Cu3+1 0.374700 0.500000 0.500000 0.993899
Cu2   Cu    Cu3+1 0.625300 0.500000 0.500000 0.993899
H1    H     H_    0.679742 0.469767 0.741739 0.132648
H2    H     H_    0.668181 0.456964 0.880887 0.103798
H3    H     H_    0.320258 0.530233 0.258261 0.132648
H4    H     H_    0.731586 0.490210 0.252219 0.130848
H5    H     H_    0.268414 0.509789 0.747781 0.130848
H6    H     H_    0.634861 0.552950 0.991620 0.116781
H7    H     H_    0.365139 0.447050 0.008381 0.116781
H8    H     H_    0.257437 0.499955 0.888673 0.102662
H9    H     H_    0.742563 0.500044 0.111327 0.102662
H10   H     H_    0.331819 0.543036 0.119113 0.103798
N1    N     N_1   0.813590 0.500000 0.499990 -0.193250
N2    N     N_1   0.186410 0.500000 0.500010 -0.193250
O1    O     O_R   0.394190 0.662800 0.500010 -0.489042
O2    O     O_R   0.605810 0.337200 0.499990 -0.489042
O3    O     O_R   0.605810 0.662800 0.499990 -0.487823
O4    O     O_R   0.394190 0.337200 0.500010 -0.487823
O5    O     O_R   0.381920 0.500000 0.613600 -0.501117
O6    O     O_R   0.618080 0.500000 0.386400 -0.501117
O7    O     O_R   0.593540 0.500000 0.613600 -0.502328
O8    O     O_R   0.406460 0.500000 0.386400 -0.502329

loop_
_geom_bond_atom_site_label_1
_geom_bond_atom_site_label_2
_ccdc_geom_bond_type
Cu1   O4    S    
C12   O2    A    
C2    C4    S    
C8    C10   A    
Cu2   N1    S    
C16   H7    S    
C23   N2    T    
C14   H5    S    
Cu1   O5    S    
C4    C15   A    
C3    C24   S    
Cu2   O6    S    
Cu1   O1    S    
C9    C11   A    
Cu2   O2    S    
C1    C18   S    
C3    C14   A    
C24   O7    A    
C12   C19   S    
C1    O3    A    
C19   C21   T    
C9    C16   S    
C13   H9    S    
C18   C20   T    
C13   C15   A    
Cu1   N2    S    
C11   C14   A    
C17   H6    S    
C1    O1    A    
C10   C17   S    
C12   O4    A    
C7    C9    A    
C6    H3    S    
C20   C21   S    
C15   H4    S    
C4    C6    A    
C8    H10   S    
C5    C7    A    
C24   O5    A    
C22   C23   S    
C6    C8    A    
Cu2   O7    S    
Cu1   Cu2   S    
C5    H1    S    
C22   N1    T    
Cu1   O8    S    
C11   H8    S    
C2    O8    A    
C7    H2    S    
Cu2   O3    S    
C2    O6    A    
C16   C17   D    
C3    C5    A    
C10   C13   A    
