data_mof_unit_55354.cif
_audit_creation_date              2012-12-10T16:55:04-0500
_audit_creation_method            fapswitch 2.2
_symmetry_space_group_name_H-M    P1
_symmetry_Int_Tables_number       1
_space_group_crystal_system       triclinic
_cell_length_a                    9.761476
_cell_length_b                    10.880331
_cell_length_c                    15.457285
_cell_angle_alpha                 89.628082
_cell_angle_beta                  74.19537
_cell_angle_gamma                 91.600823
_cell_volume                      1578.84011595

loop_
_atom_site_label
_atom_site_type_symbol
_atom_type_description
_atom_site_fract_x
_atom_site_fract_y
_atom_site_fract_z
_atom_type_partial_charge
C1    C     C_R   0.999405 0.265541 0.496802 0.819023
C2    C     C_R   0.671433 0.505014 0.909352 0.094099
C3    C     C_R   0.766327 0.474411 0.960429 0.116870
C4    C     C_R   0.525147 0.524423 0.954208 0.063695
C5    C     C_R   0.475176 0.503429 0.048954 0.066699
C6    C     C_R   0.575010 0.474796 0.096893 -0.213429
C7    C     C_R   0.717500 0.461238 0.053318 -0.217743
C8    C     C_R   0.427950 0.566851 0.908225 -0.188201
C9    C     C_R   0.286165 0.585083 0.953024 -0.187988
C10   C     C_R   0.234507 0.558858 0.044539 0.149213
C11   C     C_R   0.327705 0.515656 0.093215 0.088803
C12   C     C_R   0.917222 0.498292 0.672554 0.826809
C13   C     C_R   0.090432 0.577075 0.088321 -0.211286
C14   C     C_R   0.037772 0.554090 0.180401 -0.206493
C15   C     C_R   0.269906 0.487292 0.185040 -0.236319
C16   C     C_2   0.914173 0.930261 0.462143 -0.179863
C17   C     C_2   0.014876 0.867192 0.485401 -0.348677
C18   C     C_2   0.928095 0.064254 0.446945 0.121276
C19   C     C_2   0.994039 0.132677 0.497387 -0.329190
C20   C     C_2   0.421807 0.403409 0.502681 0.003086
C21   C     C_2   0.558778 0.409227 0.529610 0.201923
C22   C     C_R   0.003287 0.734746 0.496788 0.869458
C23   C     C_R   0.082525 0.500920 0.327910 0.772318
C24   C     C_R   0.870747 0.493676 0.772249 -0.113559
C25   C     C_R   0.128311 0.510953 0.229369 -0.044106
C26   C     C_R   0.910159 0.456587 0.918394 -0.243837
C27   C     C_R   0.963241 0.466856 0.825478 0.271156
C28   C     C_R   0.726194 0.512375 0.815104 -0.298438
Cu1   Cu    Cu3+1 0.138640 0.500020 0.499980 1.031619
Cu2   Cu    Cu3+1 0.861360 0.499980 0.500020 0.935076
H1    H     H_    0.790095 0.439330 0.092885 0.144885
H2    H     H_    0.019246 0.612001 0.051692 0.142868
H3    H     H_    0.822465 0.882394 0.449488 0.178909
H4    H     H_    0.113413 0.912009 0.489902 0.165624
H5    H     H_    0.041073 0.090069 0.545664 0.138082
H6    H     H_    0.380201 0.313703 0.490523 0.108697
H7    H     H_    0.632314 0.557105 0.453561 0.217736
H8    H     H_    0.332699 0.446585 0.224379 0.145688
H9    H     H_    0.927739 0.573139 0.213526 0.153346
H10   H     H_    0.216170 0.620190 0.915584 0.182454
H11   H     H_    0.981895 0.432702 0.958026 0.168205
H12   H     H_    0.657189 0.529604 0.773067 0.178508
H13   H     H_    0.547994 0.465506 0.168962 0.140259
H14   H     H_    0.458561 0.590976 0.837776 0.171197
N1    N     N_2   0.346430 0.498660 0.500980 -0.050488
N2    N     N_2   0.652550 0.498630 0.501000 -0.275081
O1    O     O_R   0.117050 0.321960 0.499980 -0.585684
O2    O     O_R   0.882890 0.321920 0.500020 -0.609772
O3    O     O_R   0.052910 0.500040 0.629810 -0.496077
O4    O     O_R   0.818750 0.499990 0.629840 -0.595905
O5    O     O_R   0.117110 0.678080 0.499980 -0.529282
O6    O     O_R   0.882950 0.678040 0.500020 -0.570244
O7    O     O_R   0.181250 0.500010 0.370160 -0.579960
O8    O     O_R   0.947090 0.499960 0.370190 -0.598715
C29   C     C_3   0.865136 0.117260 0.375252 -0.388728
C30   C     C_3   0.935712 0.064189 0.282553 -0.356652
C31   C     C_3   0.880223 0.123575 0.209423 -0.836489
H15   H     H_    0.763080 0.108177 0.224321 0.254323
H16   H     H_    0.905654 0.224018 0.204739 0.252543
H17   H     H_    0.931566 0.082133 0.143513 0.250730
H18   H     H_    0.052982 0.080869 0.265904 0.226859
H19   H     H_    0.913727 0.963342 0.283177 0.224618
H20   H     H_    0.748865 0.094903 0.394073 0.187150
H21   H     H_    0.878873 0.218423 0.368559 0.221528
Br1   Br    Br    0.385581 0.643378 0.559180 -0.415263
C32   C     C_3   0.584579 0.305094 0.588279 -0.392730
C33   C     C_3   0.461546 0.285355 0.673338 -0.346891
C34   C     C_3   0.490818 0.181279 0.731946 -0.811299
H22   H     H_    0.504566 0.093754 0.694370 0.259157
H23   H     H_    0.588417 0.203188 0.753396 0.251154
H24   H     H_    0.399572 0.169294 0.792911 0.266226
H25   H     H_    0.449096 0.371336 0.712695 0.273342
H26   H     H_    0.361136 0.262366 0.655459 0.252674
H27   H     H_    0.600935 0.219328 0.548545 0.179926
H28   H     H_    0.678454 0.324933 0.612518 0.264858
Br2   Br    Br    0.161469 0.437270 0.778262 -0.574280

loop_
_geom_bond_atom_site_label_1
_geom_bond_atom_site_label_2
_ccdc_geom_bond_type
C29   C30   S    
C21   C32   S    
C13   H2    S    
C24   C27   A    
C4    C8    A    
C12   O3    A    
Cu1   O3    S    
Cu2   O8    S    
C26   C27   A    
Cu1   O1    S    
Cu2   O2    S    
C5    C11   A    
C3    C7    A    
C5    C6    A    
C31   H16   S    
C32   H27   S    
C30   C31   S    
C33   H25   S    
C14   H9    S    
C34   H22   S    
C11   C15   A    
C8    C9    A    
C29   H20   S    
C33   H26   S    
C9    C10   A    
C20   N1    D    
C32   C33   S    
Cu2   O4    S    
C13   C14   A    
C23   O7    A    
C1    C19   S    
C7    H1    S    
C33   C34   S    
C24   C28   A    
C18   C19   D    
C31   H17   S    
C9    H10   S    
Cu1   N1    S    
C2    C4    A    
C15   H8    S    
Cu1   Cu2   S    
C16   H3    S    
C29   H21   S    
C18   C29   S    
C34   H23   S    
C6    H13   S    
N1    Br1   S    
C30   H19   S    
C17   H4    S    
C27   Br2   S    
C23   O8    A    
C22   O6    A    
C21   N2    D    
Cu1   O5    S    
Cu2   O6    S    
Cu2   N2    S    
C3    C26   A    
C1    O1    A    
C8    H14   S    
C4    C5    A    
C10   C13   A    
C12   O4    A    
C1    O2    A    
C6    C7    A    
C12   C24   S    
C17   C22   S    
C2    C3    A    
C19   H5    S    
C31   H15   S    
C16   C17   D    
Cu1   O7    S    
C34   H24   S    
C32   H28   S    
C28   H12   S    
C23   C25   S    
C14   C25   A    
C15   C25   A    
C10   C11   A    
C20   H6    S    
C20   C21   S    
C16   C18   S    
C30   H18   S    
C2    C28   A    
H7    N2    S    
C26   H11   S    
C22   O5    A    
