data_mof_unit_21775.cif
_audit_creation_date              2012-12-10T18:57:43-0500
_audit_creation_method            fapswitch 2.2
_symmetry_space_group_name_H-M    P1
_symmetry_Int_Tables_number       1
_space_group_crystal_system       triclinic
_cell_length_a                    11.015502
_cell_length_b                    10.841183
_cell_length_c                    9.560131
_cell_angle_alpha                 90.637863
_cell_angle_beta                  90.672695
_cell_angle_gamma                 90.991708
_cell_volume                      1141.3580441

loop_
_atom_site_label
_atom_site_type_symbol
_atom_type_description
_atom_site_fract_x
_atom_site_fract_y
_atom_site_fract_z
_atom_type_partial_charge
C1    C     C_R   0.496595 0.262433 0.499215 0.774465
C2    C     C_R   0.451412 0.403889 0.072455 -0.064893
C3    C     C_R   0.450357 0.404427 0.923715 -0.070231
C4    C     C_R   0.266491 0.495078 0.499090 0.839552
C5    C     C_R   0.539503 0.601393 0.929077 0.181413
C6    C     C_3   0.663257 0.661956 0.933755 0.280125
C7    C     C_3   0.651331 0.671605 0.091843 -0.533216
C8    C     C_R   0.497791 0.737804 0.500297 0.794196
C9    C     C_R   0.734515 0.495138 0.500825 0.784150
C10   C     C_2   0.935050 0.492274 0.388972 0.390861
C11   C     C_2   0.867136 0.487466 0.506768 0.240830
C12   C     C_R   0.482770 0.129386 0.497698 -0.090517
C13   C     C_2   0.067376 0.515943 0.397004 -0.225554
C14   C     C_2   0.138244 0.470454 0.497080 -0.319476
C15   C     C_R   0.476946 0.065507 0.623237 0.121117
C16   C     C_3   0.931900 0.409363 0.166462 -0.324496
C17   C     C_3   0.868025 0.645616 0.896716 -0.206318
C18   C     C_3   0.901722 0.370094 0.700254 -0.353252
C19   C     C_R   0.471819 0.062720 0.371115 -0.226233
C20   C     C_R   0.472766 0.933980 0.371955 -0.222977
C21   C     C_R   0.485101 0.871002 0.499326 -0.094485
C22   C     C_R   0.478701 0.938431 0.624121 0.132088
C23   C     C_3   0.560494 0.938064 0.749567 -0.496725
C24   C     C_3   0.556749 0.077539 0.749868 -0.460440
C25   C     C_R   0.534230 0.603421 0.075897 0.174605
Cu1   Cu    Cu3+1 0.499990 0.499980 0.640670 0.964389
Cu2   Cu    Cu3+1 0.500010 0.500020 0.359330 0.953625
H1    H     H_    0.413917 0.325035 0.126270 0.124296
H2    H     H_    0.651997 0.902935 0.724363 0.189922
H3    H     H_    0.944096 0.317699 0.215826 0.148823
H4    H     H_    0.019816 0.445908 0.127164 0.158416
H5    H     H_    0.870532 0.395191 0.074627 0.213792
H6    H     H_    0.646073 0.122245 0.727899 0.192911
H7    H     H_    0.883144 0.700319 0.994856 0.133835
H8    H     H_    0.874157 0.706851 0.804444 0.162917
H9    H     H_    0.942719 0.578680 0.891253 0.203808
H10   H     H_    0.914624 0.292074 0.625185 0.122192
H11   H     H_    0.810497 0.363002 0.747683 0.227659
H12   H     H_    0.411159 0.326426 0.866948 0.128578
H13   H     H_    0.969045 0.359404 0.786300 0.170937
H14   H     H_    0.468935 0.109397 0.271583 0.156903
H15   H     H_    0.508080 0.116248 0.841112 0.187552
H16   H     H_    0.666096 0.751789 0.880548 0.064184
H17   H     H_    0.719847 0.619644 0.151130 0.286485
H18   H     H_    0.638573 0.767768 0.129660 0.141459
H19   H     H_    0.107361 0.571867 0.315217 0.165364
H20   H     H_    0.105696 0.407792 0.575347 0.185552
H21   H     H_    0.469924 0.884691 0.272786 0.160242
H22   H     H_    0.515248 0.896896 0.841755 0.185338
N1    N     N_R   0.500780 0.500930 0.147930 -0.162018
N2    N     N_R   0.500780 0.500890 0.852020 -0.167957
O1    O     O_R   0.500000 0.319640 0.618810 -0.595896
O2    O     O_3   0.755882 0.580310 0.895204 -0.525266
O3    O     O_3   0.921472 0.486886 0.638391 -0.592382
O4    O     O_R   0.500010 0.319680 0.381230 -0.593376
O5    O     O_R   0.321940 0.499980 0.618760 -0.582771
O6    O     O_R   0.321950 0.500020 0.381180 -0.584573
O7    O     O_R   0.499990 0.680320 0.618770 -0.587105
O8    O     O_R   0.500000 0.680360 0.381190 -0.586440
O9    O     O_R   0.678050 0.499980 0.618820 -0.528085
O10   O     O_R   0.678060 0.500020 0.381240 -0.551425
O11   O     O_3   0.878314 0.494715 0.258513 -0.596471

loop_
_geom_bond_atom_site_label_1
_geom_bond_atom_site_label_2
_ccdc_geom_bond_type
C4    O6    A    
C17   H7    S    
C23   C24   S    
Cu2   N1    S    
C6    C7    S    
C25   N1    A    
C17   H9    S    
Cu1   O1    S    
C16   H5    S    
C2    N1    A    
C19   C20   A    
C7    C25   S    
C12   C15   A    
C9    O9    A    
C2    C3    A    
C18   H11   S    
C17   O2    S    
C3    H12   S    
Cu2   O8    S    
Cu1   N2    S    
C4    O5    A    
C16   H4    S    
C9    C11   S    
C19   H14   S    
Cu1   Cu2   S    
C20   H21   S    
C1    C12   S    
C16   O11   S    
C9    O10   A    
C23   H2    S    
C12   C19   A    
C11   O3    S    
C15   C24   S    
C18   H10   S    
C8    C21   S    
Cu2   O4    S    
C6    H16   S    
C22   C23   S    
C8    O8    A    
C4    C14   S    
C5    C6    S    
C1    O1    A    
C5    C25   A    
C1    O4    A    
C10   O11   S    
C23   H22   S    
C10   C11   D    
C18   O3    S    
C6    O2    S    
C16   H3    S    
C7    H18   S    
C17   H8    S    
C24   H15   S    
C20   C21   A    
Cu2   O6    S    
Cu1   O7    S    
C18   H13   S    
C3    N2    A    
C13   H19   S    
C5    N2    A    
C2    H1    S    
Cu2   O10   S    
C13   C14   D    
C8    O7    A    
C21   C22   A    
C14   H20   S    
Cu1   O9    S    
C7    H17   S    
C15   C22   A    
C24   H6    S    
C10   C13   S    
Cu1   O5    S    
