data_mof_unit_34006.cif
_audit_creation_date              2012-12-10T20:31:05-0500
_audit_creation_method            fapswitch 2.2
_symmetry_space_group_name_H-M    P1
_symmetry_Int_Tables_number       1
_space_group_crystal_system       triclinic
_cell_length_a                    14.869165
_cell_length_b                    10.740927
_cell_length_c                    9.905141
_cell_angle_alpha                 88.820282
_cell_angle_beta                  90.202323
_cell_angle_gamma                 90.213233
_cell_volume                      1581.58064767

loop_
_atom_site_label
_atom_site_type_symbol
_atom_type_description
_atom_site_fract_x
_atom_site_fract_y
_atom_site_fract_z
_atom_type_partial_charge
C1    C     C_R   0.501140 0.259958 0.500591 0.897353
C2    C     C_R   0.187457 0.386450 0.474873 0.435347
C3    C     C_R   0.232113 0.498749 0.498594 -0.289308
C4    C     C_R   0.327385 0.499892 0.499694 1.002710
C5    C     C_R   0.187109 0.610187 0.519812 0.372225
C6    C     C_R   0.466141 0.061969 0.613230 -0.110471
C7    C     C_R   0.494823 0.127498 0.498400 -0.217388
C8    C     C_R   0.510339 0.064141 0.377156 0.508310
C9    C     C_R   0.500050 0.936322 0.376171 -0.329369
C10   C     C_R   0.484454 0.870677 0.496954 -0.164709
C11   C     C_R   0.460849 0.934346 0.613548 -0.152158
C12   C     C_R   0.906481 0.608741 0.526318 0.158259
C13   C     C_3   0.494748 0.924362 0.758724 0.901716
C14   C     C_3   0.500141 0.068305 0.755043 0.267063
C15   C     C_R   0.435545 0.436447 0.071290 0.021860
C16   C     C_R   0.496192 0.739486 0.499202 0.925399
C17   C     C_R   0.567353 0.555919 0.072085 0.400674
C18   C     C_R   0.571146 0.547253 0.927610 0.414466
C19   C     C_R   0.436038 0.436012 0.930049 -0.013235
C20   C     C_3   0.336921 0.447381 0.919324 -0.621103
C21   C     C_3   0.335205 0.451408 0.075499 0.998275
C22   C     C_R   0.672697 0.499572 0.500108 0.859290
C23   C     C_R   0.950445 0.278690 0.439088 -0.353136
C24   C     C_R   0.813452 0.608612 0.525594 -0.258573
C25   C     C_R   0.767720 0.498801 0.499957 -0.027572
C26   C     C_R   0.812076 0.388765 0.472192 -0.267830
C27   C     C_R   0.905155 0.387655 0.469981 0.065520
C28   C     C_R   0.952963 0.497706 0.497898 0.114912
C29   C     C_3   0.356638 0.818164 0.820435 0.113552
C30   C     C_3   0.276532 0.906627 0.800212 -0.312368
C31   C     C_3   0.187315 0.844150 0.837405 -0.944696
C32   C     C_3   0.653862 0.913051 0.716246 -0.436522
C33   C     C_3   0.470017 0.139339 0.966832 -0.167562
C34   C     C_R   0.044537 0.275500 0.438843 0.572978
C35   C     C_3   0.627448 0.747665 0.111286 -0.225069
C36   C     C_3   0.721993 0.519468 0.888803 0.110575
C37   C     C_3   0.806091 0.601983 0.886434 -0.313762
C38   C     C_3   0.891942 0.524425 0.888644 -0.960732
C39   C     C_3   0.220291 0.591473 0.120931 -0.357495
C40   C     C_3   0.222854 0.293772 0.089068 -0.326535
C41   C     C_3   0.063029 0.063832 0.472963 -0.343478
C42   C     C_3   0.254825 0.219076 0.576505 -0.232240
C43   C     C_3   0.250482 0.783103 0.422868 -0.358387
C44   C     C_3   0.631281 0.100200 0.237391 0.016928
C45   C     C_R   0.093244 0.385320 0.468838 -0.138439
C46   C     C_3   0.678162 0.218285 0.184128 -0.292096
C47   C     C_3   0.774970 0.192387 0.143119 -0.996463
C48   C     C_R   0.046737 0.497110 0.497059 -0.162883
C49   C     C_R   0.093686 0.608913 0.524410 0.049926
C50   C     C_R   0.046476 0.717573 0.555080 -0.181814
C51   C     C_R   0.953372 0.717623 0.555479 -0.258694
H1    H     H_    0.776411 0.693128 0.545236 0.123208
H2    H     H_    0.341033 0.751052 0.903855 0.186910
H3    H     H_    0.367397 0.761234 0.730061 0.175648
H4    H     H_    0.284758 0.989763 0.864135 0.257418
H5    H     H_    0.273974 0.938851 0.693186 0.213067
H6    H     H_    0.180524 0.752552 0.788648 0.293869
H7    H     H_    0.130693 0.904789 0.804434 0.249523
H8    H     H_    0.183244 0.829877 0.948495 0.255475
H9    H     H_    0.683569 0.981572 0.786126 0.155046
H10   H     H_    0.640795 0.956412 0.615458 0.140519
H11   H     H_    0.704997 0.839760 0.702016 0.214490
H12   H     H_    0.512921 0.888967 0.283279 0.174457
H13   H     H_    0.523228 0.211742 0.965181 0.131044
H14   H     H_    0.497145 0.050767 0.010110 0.193258
H15   H     H_    0.415412 0.169845 0.034254 0.217653
H16   H     H_    0.666897 0.771421 0.019496 0.204208
H17   H     H_    0.556973 0.780788 0.097456 0.167458
H18   H     H_    0.657651 0.799411 0.196022 0.145162
H19   H     H_    0.728393 0.446547 0.811633 0.158698
H20   H     H_    0.719787 0.470072 0.988919 0.123046
H21   H     H_    0.805712 0.662814 0.794671 0.225367
H22   H     H_    0.805988 0.662802 0.975761 0.220484
H23   H     H_    0.567354 0.114055 0.759499 0.046971
H24   H     H_    0.895208 0.466001 0.982359 0.262780
H25   H     H_    0.951458 0.587181 0.885509 0.267568
H26   H     H_    0.894215 0.463423 0.799515 0.268911
H27   H     H_    0.183867 0.531320 0.195317 0.206847
H28   H     H_    0.192977 0.579794 0.017333 0.147543
H29   H     H_    0.207780 0.689343 0.148251 0.177638
H30   H     H_    0.179765 0.360696 0.031800 0.127971
H31   H     H_    0.180426 0.249760 0.168606 0.259225
H32   H     H_    0.245536 0.218680 0.021891 0.165290
H33   H     H_    0.051567 0.083932 0.581523 0.138469
H34   H     H_    0.316469 0.535854 0.868383 0.197557
H35   H     H_    0.118223 0.995061 0.468996 0.199124
H36   H     H_    0.002335 0.020425 0.427974 0.163197
H37   H     H_    0.306915 0.269620 0.634454 0.177008
H38   H     H_    0.281429 0.125259 0.555649 0.189980
H39   H     H_    0.193284 0.206368 0.639117 0.132230
H40   H     H_    0.186875 0.801279 0.366346 0.163438
H41   H     H_    0.298785 0.732425 0.358968 0.218245
H42   H     H_    0.281015 0.874735 0.445466 0.198538
H43   H     H_    0.635311 0.027091 0.159957 0.140372
H44   H     H_    0.668531 0.067051 0.329554 0.112155
H45   H     H_    0.307940 0.363138 0.872865 0.195393
H46   H     H_    0.641590 0.257441 0.095492 0.195878
H47   H     H_    0.677714 0.289427 0.263592 0.238020
H48   H     H_    0.812865 0.150085 0.229036 0.263519
H49   H     H_    0.808443 0.280965 0.112108 0.269995
H50   H     H_    0.776154 0.127982 0.056822 0.259766
H51   H     H_    0.774050 0.304457 0.453518 0.124456
H52   H     H_    0.912469 0.196320 0.413371 0.151938
H53   H     H_    0.081305 0.802877 0.578831 0.178449
H54   H     H_    0.918066 0.802650 0.578646 0.131186
N1    N     N_R   0.499390 0.499140 0.142800 -0.165641
N2    N     N_R   0.499390 0.499180 0.857150 -0.145044
O1    O     O_R   0.500010 0.316790 0.614690 -0.619108
O2    O     O_3   0.576907 0.856871 0.775147 -0.578002
O3    O     O_3   0.434615 0.124850 0.836163 -0.614795
O4    O     O_3   0.632984 0.619072 0.142564 -0.582861
O5    O     O_3   0.645085 0.593371 0.858376 -0.576787
O6    O     O_3   0.313644 0.569670 0.127438 -0.619365
O7    O     O_3   0.297987 0.349625 0.151565 -0.573874
O8    O     O_3   0.089409 0.170139 0.396561 -0.566855
O9    O     O_3   0.236922 0.279961 0.451685 -0.533377
O10   O     O_3   0.235109 0.718008 0.545742 -0.644560
O11   O     O_3   0.539483 0.126585 0.261444 -0.635564
O12   O     O_R   0.500000 0.316760 0.385350 -0.557755
O13   O     O_R   0.367850 0.499990 0.614680 -0.646473
O14   O     O_R   0.367840 0.499950 0.385340 -0.550745
O15   O     O_R   0.500000 0.683240 0.614650 -0.571506
O16   O     O_R   0.499990 0.683210 0.385310 -0.614845
O17   O     O_R   0.632160 0.500050 0.614660 -0.594706
O18   O     O_R   0.632150 0.500010 0.385320 -0.581649
O19   O     O_3   0.433509 0.885029 0.861987 -0.656534
Zn1   Zn    Zn3+2 0.500010 0.500020 0.653130 0.996717
Zn2   Zn    Zn3+2 0.499990 0.499980 0.346870 1.044416

loop_
_geom_bond_atom_site_label_1
_geom_bond_atom_site_label_2
_ccdc_geom_bond_type
C24   H1    S    
C50   H53   S    
C47   H50   S    
C19   C20   S    
O13   Zn1   S    
C33   H14   S    
C7    C8    A    
C38   H25   S    
C15   C19   A    
C41   H35   S    
C26   C27   A    
C29   C30   S    
C12   C28   A    
C14   H23   S    
C31   H7    S    
C36   C37   S    
C16   O16   A    
C18   O5    S    
C32   H10   S    
C30   C31   S    
C29   H3    S    
N1    Zn2   S    
C47   H48   S    
C1    O12   A    
C31   H8    S    
O15   Zn1   S    
C16   O15   A    
C18   N2    A    
C13   O2    S    
C2    O9    S    
C23   H52   S    
C44   C46   S    
C8    C9    A    
C39   O6    S    
C22   C25   S    
C36   O5    S    
O18   Zn2   S    
C23   C27   A    
C9    C10   A    
C36   H20   S    
O12   Zn2   S    
C20   H45   S    
C1    C7    S    
C29   O19   S    
C40   H32   S    
C5    C49   A    
C41   O8    S    
C17   O4    S    
C36   H19   S    
C33   H15   S    
C50   C51   A    
C38   H24   S    
C2    C45   A    
C41   H36   S    
C40   O7    S    
C32   O2    S    
C8    O11   S    
C39   H27   S    
C40   H31   S    
C24   C25   A    
O14   Zn2   S    
C21   O6    S    
C6    C11   A    
C22   O18   A    
C34   O8    S    
C41   H33   S    
C30   H5    S    
C43   H40   S    
C47   H49   S    
C5    O10   S    
C42   H39   S    
C39   H28   S    
C37   C38   S    
C6    C14   S    
C35   H16   S    
C51   H54   S    
C23   C34   A    
C20   H34   S    
C17   C18   A    
C34   C45   A    
C43   O10   S    
O17   Zn1   S    
C13   O19   S    
C42   O9    S    
C48   C49   A    
C46   H46   S    
C42   H37   S    
C44   O11   S    
C32   H9    S    
C3    C4    S    
C12   C51   A    
C35   O4    S    
C15   N1    A    
C45   C48   A    
C14   O3    S    
C37   H22   S    
C46   C47   S    
C28   C48   A    
C9    H12   S    
C40   H30   S    
C21   O7    S    
C3    C5    A    
C22   O17   A    
C6    C7    A    
C38   H26   S    
C30   H4    S    
C12   C24   A    
C43   H41   S    
C42   H38   S    
C39   H29   S    
C31   H6    S    
C2    C3    A    
C25   C26   A    
N2    Zn1   S    
C44   H44   S    
C10   C16   S    
C17   N1    A    
C26   H51   S    
C11   C13   S    
O16   Zn2   S    
C29   H2    S    
C35   H17   S    
C33   H13   S    
C43   H42   S    
C4    O14   A    
O1    Zn1   S    
C46   H47   S    
C44   H43   S    
C10   C11   A    
C1    O1    A    
C32   H11   S    
C15   C21   S    
C20   C21   S    
C35   H18   S    
C49   C50   A    
C37   H21   S    
C27   C28   A    
C4    O13   A    
C33   O3    S    
C13   C14   S    
C19   N2    A    
