data_mof_unit_32873.cif
_audit_creation_date              2012-12-10T17:19:52-0500
_audit_creation_method            fapswitch 2.2
_symmetry_space_group_name_H-M    P1
_symmetry_Int_Tables_number       1
_space_group_crystal_system       triclinic
_cell_length_a                    9.612167
_cell_length_b                    10.776285
_cell_length_c                    15.48621
_cell_angle_alpha                 87.612084
_cell_angle_beta                  74.119991
_cell_angle_gamma                 90.022649
_cell_volume                      1541.44104891

loop_
_atom_site_label
_atom_site_type_symbol
_atom_type_description
_atom_site_fract_x
_atom_site_fract_y
_atom_site_fract_z
_atom_type_partial_charge
C1    C     C_R   0.998633 0.262617 0.503136 0.793947
C2    C     C_R   0.677477 0.522912 0.908494 0.089792
C3    C     C_R   0.777416 0.493386 0.958537 0.166902
C4    C     C_R   0.529964 0.545273 0.954180 0.066708
C5    C     C_R   0.482079 0.525374 0.049213 0.064385
C6    C     C_R   0.586225 0.499277 0.096614 -0.218741
C7    C     C_R   0.730912 0.484194 0.051905 -0.241180
C8    C     C_R   0.429230 0.588346 0.908311 -0.224562
C9    C     C_R   0.284790 0.604858 0.953344 -0.244057
C10   C     C_R   0.234489 0.576944 0.045192 0.169829
C11   C     C_R   0.331916 0.534780 0.093852 0.089402
C12   C     C_R   0.918097 0.500035 0.672042 0.774886
C13   C     C_R   0.087326 0.591461 0.089132 -0.220227
C14   C     C_R   0.034870 0.563085 0.180929 -0.213971
C15   C     C_R   0.275060 0.502095 0.185559 -0.251388
C16   C     C_R   0.081529 0.120645 0.646289 -0.185975
C17   C     C_R   0.123344 0.051674 0.712958 -0.137809
C18   C     C_R   0.123575 0.922613 0.712834 -0.131816
C19   C     C_R   0.082015 0.861706 0.646024 -0.171865
C20   C     C_R   0.041503 0.929708 0.576766 0.099145
C21   C     C_R   0.041302 0.060989 0.576900 0.098037
C22   C     C_R   0.995770 0.128415 0.509284 -0.102568
C23   C     C_R   0.998821 0.737061 0.502757 0.768307
C24   C     C_R   0.945265 0.067283 0.445927 -0.193324
C25   C     C_R   0.945420 0.939277 0.445793 -0.205055
C26   C     C_R   0.996066 0.870479 0.509028 -0.089864
C27   C     C_R   0.697823 0.662494 0.379296 -0.157098
C28   C     C_R   0.652464 0.741980 0.319878 -0.222471
C29   C     C_R   0.508918 0.743339 0.320349 -0.198991
C30   C     C_R   0.409893 0.665033 0.380099 -0.141306
C31   C     C_R   0.451543 0.580752 0.440987 0.207123
C32   C     C_R   0.601115 0.580133 0.440768 0.212458
C33   C     C_R   0.548925 0.423611 0.556364 -0.060217
C34   C     C_R   0.082041 0.502856 0.327953 0.779823
C35   C     C_R   0.401161 0.423573 0.556298 -0.064765
C36   C     C_R   0.872786 0.501234 0.770566 -0.048762
C37   C     C_R   0.129047 0.519169 0.229662 -0.047153
C38   C     C_R   0.923153 0.472047 0.914570 -0.213814
C39   C     C_R   0.970885 0.477064 0.821146 -0.208232
C40   C     C_R   0.727801 0.524199 0.814249 -0.247060
Cu1   Cu    Cu3+1 0.140660 0.499990 0.500010 0.924341
Cu2   Cu    Cu3+1 0.859340 0.500010 0.499990 0.933069
H1    H     H_    0.013182 0.626629 0.052638 0.140751
H2    H     H_    0.908632 0.119189 0.394956 0.152429
H3    H     H_    0.078393 0.220443 0.651030 0.137092
H4    H     H_    0.153811 0.098576 0.765646 0.133325
H5    H     H_    0.154227 0.869343 0.765429 0.133545
H6    H     H_    0.079407 0.761378 0.650557 0.153510
H7    H     H_    0.908907 0.893619 0.394712 0.139087
H8    H     H_    0.583491 0.360890 0.602609 0.140329
H9    H     H_    0.809844 0.669743 0.374067 0.192605
H10   H     H_    0.729476 0.803477 0.273430 0.148932
H11   H     H_    0.342059 0.461865 0.224534 0.155197
H12   H     H_    0.473567 0.806006 0.274287 0.155160
H13   H     H_    0.302454 0.675249 0.375364 0.199231
H14   H     H_    0.325640 0.360876 0.602487 0.131060
H15   H     H_    0.921772 0.578064 0.213907 0.154118
H16   H     H_    0.211561 0.638662 0.915654 0.144848
H17   H     H_    0.999873 0.449333 0.952473 0.143996
H18   H     H_    0.083465 0.458836 0.788639 0.151070
H19   H     H_    0.655121 0.538994 0.773038 0.152649
H20   H     H_    0.560382 0.492982 0.168881 0.152210
N1    N     N_R   0.648320 0.501210 0.499140 -0.198841
N2    N     N_R   0.352470 0.501290 0.499110 -0.197854
O1    O     O_R   0.118810 0.319640 0.500010 -0.575418
O2    O     O_R   0.881240 0.319660 0.500000 -0.571624
O3    O     O_R   0.055570 0.499980 0.629840 -0.595223
O4    O     O_R   0.818000 0.500010 0.629830 -0.579811
O5    O     O_R   0.118760 0.680340 0.500000 -0.601043
O6    O     O_R   0.881190 0.680360 0.499990 -0.587837
O7    O     O_R   0.182000 0.499990 0.370170 -0.596992
O8    O     O_R   0.944430 0.500020 0.370160 -0.598013
H21   H     H_    0.806555 0.462997 0.090895 0.151306
H22   H     H_    0.459117 0.614064 0.837646 0.144324

loop_
_geom_bond_atom_site_label_1
_geom_bond_atom_site_label_2
_ccdc_geom_bond_type
C16   C21   A    
C34   C37   S    
Cu1   Cu2   S    
C23   O5    A    
C19   C20   A    
C4    C8    A    
C18   H5    S    
Cu1   O3    S    
C12   O4    A    
C15   H11   S    
C28   C29   A    
C5    C11   A    
C3    C7    A    
C5    C6    A    
C16   C17   A    
C29   H12   S    
Cu2   O6    S    
C9    H16   S    
C23   C26   S    
C15   C37   A    
C11   C15   A    
C3    C38   A    
C8    C9    A    
C1    O1    A    
C35   N2    A    
C12   C36   S    
C9    C10   A    
Cu1   O7    S    
C27   C32   A    
C1    C22   S    
C21   C22   A    
Cu2   O4    S    
C23   O6    A    
Cu2   O8    S    
C27   H9    S    
C1    O2    A    
C38   C39   A    
C12   O3    A    
C36   C40   A    
C17   H4    S    
C7    H21   S    
C19   H6    S    
C18   C19   A    
Cu1   O1    S    
C25   C26   A    
C40   H19   S    
C2    C4    A    
C29   C30   A    
C31   C32   A    
C33   N1    A    
C8    H22   S    
C17   C18   A    
C24   C25   A    
C24   H2    S    
C22   C24   A    
C34   O8    A    
C13   H1    S    
Cu1   O5    S    
C14   H15   S    
C35   H14   S    
C31   N2    A    
C36   C39   A    
C32   N1    A    
C4    C5    A    
C10   C13   A    
C16   H3    S    
C6    C7    A    
C30   H13   S    
C6    H20   S    
C2    C3    A    
C33   H8    S    
C14   C37   A    
C28   H10   S    
C30   C31   A    
C20   C26   A    
C39   H18   S    
Cu2   N1    S    
C33   C35   A    
C25   H7    S    
C10   C11   A    
C38   H17   S    
C2    C40   A    
C20   C21   A    
C27   C28   A    
Cu2   O2    S    
Cu1   N2    S    
C13   C14   A    
C34   O7    A    
