data_mof_unit_5843.cif
_audit_creation_date              2012-12-11T14:45:58-0500
_audit_creation_method            fapswitch 2.2
_symmetry_space_group_name_H-M    P1
_symmetry_Int_Tables_number       1
_space_group_crystal_system       triclinic
_cell_length_a                    10.961526
_cell_length_b                    10.918345
_cell_length_c                    18.740214
_cell_angle_alpha                 90.68948
_cell_angle_beta                  89.555181
_cell_angle_gamma                 120.137071
_cell_volume                      1939.54199878

loop_
_atom_site_label
_atom_site_type_symbol
_atom_type_description
_atom_site_fract_x
_atom_site_fract_y
_atom_site_fract_z
_atom_type_partial_charge
C1    C     C_R   0.906038 0.611459 0.611153 0.606064
C2    C     C_R   0.390612 0.587477 0.771134 0.020493
C3    C     C_R   0.410324 0.603706 0.697303 0.110487
C4    C     C_R   0.370130 0.693264 0.664384 0.002636
C5    C     C_R   0.855008 0.163674 0.822548 -0.011635
C6    C     C_R   0.037615 0.091287 0.807097 -0.035708
C7    C     C_R   0.105641 0.039314 0.763588 -0.067766
C8    C     C_R   0.083440 0.027358 0.690403 -0.080341
C9    C     C_R   0.993918 0.068304 0.660242 -0.065069
C10   C     C_R   0.921682 0.118356 0.703446 0.004854
C11   C     C_R   0.938105 0.124450 0.778761 0.006478
C12   C     C_R   0.282354 0.639373 0.599851 0.562905
C13   C     C_R   0.732838 0.173443 0.717791 0.004220
C14   C     C_R   0.767551 0.206917 0.789629 -0.010804
C15   C     C_R   0.606018 0.163581 0.693282 -0.112176
C16   C     C_R   0.530992 0.208892 0.735791 -0.098317
C17   C     C_R   0.581155 0.266295 0.803294 0.111400
C18   C     C_R   0.701870 0.269419 0.828912 -0.052437
C19   C     C_R   0.827750 0.155185 0.672834 -0.035114
C20   C     C_R   0.785175 0.671761 0.702838 -0.161061
C21   C     C_R   0.754122 0.682045 0.773257 -0.121243
C22   C     C_R   0.816969 0.646832 0.827736 -0.000718
C23   C     C_R   0.857860 0.222214 0.601724 0.534076
C24   C     C_R   0.914003 0.600719 0.812287 -0.001316
C25   C     C_R   0.939653 0.583743 0.739409 0.082052
C26   C     C_R   0.875580 0.621122 0.685740 0.059226
C27   C     C_R   0.241811 0.541300 0.275336 -0.140456
C28   C     C_R   0.256289 0.557102 0.202580 -0.141357
C29   C     C_R   0.336551 0.691959 0.174180 -0.006948
C30   C     C_R   0.392057 0.812450 0.218715 -0.109274
C31   C     C_R   0.377961 0.798013 0.292774 -0.015032
C32   C     C_R   0.305412 0.660083 0.320974 -0.009932
C33   C     C_R   0.801687 0.269735 0.274791 -0.104710
C34   C     C_R   0.868688 0.637419 0.396297 0.545159
C35   C     C_R   0.803514 0.257751 0.201227 0.006352
C36   C     C_R   0.857332 0.175600 0.171291 0.033094
C37   C     C_R   0.926192 0.124614 0.214831 -0.167100
C38   C     C_R   0.927271 0.141015 0.288266 -0.164074
C39   C     C_R   0.858666 0.207277 0.318333 0.031808
C40   C     C_R   0.961649 0.699074 0.275929 -0.131247
C41   C     C_R   0.944321 0.703130 0.203498 -0.125519
C42   C     C_R   0.809817 0.656239 0.176355 0.043665
C43   C     C_R   0.691286 0.597943 0.221763 -0.152383
C44   C     C_R   0.708603 0.591397 0.294627 -0.158087
C45   C     C_R   0.269596 0.632900 0.395786 0.510532
C46   C     C_R   0.844485 0.646774 0.321768 0.023180
C47   C     C_R   0.810503 0.105223 0.895367 0.543434
C48   C     C_R   0.447337 0.719076 0.888152 0.563643
C49   C     C_R   0.798577 0.687924 0.898826 0.512479
C50   C     C_R   0.810357 0.110288 0.101398 0.590934
C51   C     C_R   0.393385 0.704766 0.103062 0.557922
C52   C     C_R   0.796500 0.694266 0.104632 0.576467
C53   C     C_R   0.864483 0.234835 0.394019 0.540179
C54   C     C_R   0.378889 0.807597 0.703638 -0.189233
C55   C     C_R   0.409641 0.819348 0.776546 -0.159955
C56   C     C_R   0.408510 0.705560 0.812028 -0.028878
Cr1   Cr    Cr6+3 0.791660 0.390250 0.499930 1.030818
Cr2   Cr    Cr6+3 0.098520 0.708290 0.500540 1.006063
Cr3   Cr    Cr6+3 0.109770 0.401430 0.499480 1.037730
Cr4   Cr    Cr6+3 0.874790 0.925890 0.000070 1.005875
Cr5   Cr    Cr6+3 0.574120 0.948670 0.999300 1.036960
Cr6   Cr    Cr6+3 0.551420 0.625320 0.000920 1.024649
H1    H     H_    0.353957 0.881774 0.679311 0.125685
H2    H     H_    0.434217 0.199550 0.715921 0.165618
H3    H     H_    0.560980 0.116237 0.642111 0.136618
H4    H     H_    0.740391 0.705453 0.661411 0.116596
H5    H     H_    0.686988 0.725902 0.785598 0.115626
H6    H     H_    0.179444 0.434992 0.295965 0.154363
H7    H     H_    0.211897 0.463397 0.168724 0.145102
H8    H     H_    0.456040 0.916989 0.196237 0.177094
H9    H     H_    0.422860 0.911289 0.805868 0.154294
H10   H     H_    0.758146 0.330939 0.298190 0.149947
H11   H     H_    0.969758 0.062464 0.192849 0.152336
H12   H     H_    0.977343 0.098476 0.321537 0.133530
H13   H     H_    0.067049 0.736527 0.296168 0.153034
H14   H     H_    0.036337 0.748111 0.169066 0.140407
H15   H     H_    0.586493 0.563060 0.201415 0.146147
H16   H     H_    0.617617 0.547223 0.329699 0.131890
H17   H     H_    0.179392 0.012391 0.786576 0.104396
H18   H     H_    0.137304 0.988027 0.656824 0.123874
H19   H     H_    0.070913 0.111589 0.862028 0.142659
H20   H     H_    0.977096 0.055076 0.603161 0.120573
H21   H     H_    0.739002 0.312164 0.881874 0.142315
O1    O     O_R   0.766500 0.250040 0.579790 -0.528543
O2    O     O_R   0.218690 0.701900 0.425960 -0.517835
O3    O     O_R   0.249490 0.516440 0.419420 -0.519671
O4    O     O_R   0.982880 0.281910 0.424890 -0.513587
O5    O     O_3   0.999980 0.499990 0.499980 -0.266311
O6    O     O_R   0.895110 0.806860 0.920430 -0.525808
O7    O     O_R   0.872260 0.046970 0.925000 -0.515747
O8    O     O_R   0.691430 0.085060 0.918550 -0.523360
O9    O     O_R   0.451490 0.822460 0.925250 -0.489945
O10   O     O_R   0.413330 0.603360 0.920440 -0.521764
O11   O     O_R   0.676110 0.626250 0.926750 -0.507619
O12   O     O_R   0.798570 0.516780 0.574780 -0.501062
O13   O     O_R   0.895350 0.809870 0.080950 -0.526423
O14   O     O_R   0.872490 0.049760 0.073800 -0.515446
O15   O     O_R   0.691680 0.088070 0.079070 -0.480034
O16   O     O_R   0.451720 0.825250 0.074050 -0.505698
O17   O     O_R   0.413580 0.606370 0.080960 -0.514431
O18   O     O_R   0.676340 0.629040 0.075550 -0.497723
O19   O     O_3   0.666780 0.833290 0.000090 -0.268453
O20   O     O_R   0.984000 0.732950 0.581090 -0.533731
O21   O     O_R   0.218600 0.700890 0.574760 -0.519448
O22   O     O_R   0.249390 0.515350 0.579940 -0.459304
O23   O     O_R   0.982790 0.280900 0.573700 -0.482263
O24   O     O_R   0.766600 0.251130 0.419260 -0.499391
O25   O     O_R   0.798660 0.517790 0.425980 -0.501231
O26   O     O_R   0.984100 0.734040 0.420570 -0.516355
N1    N     N_3   0.503767 0.311933 0.847333 -0.577839
H22   H     H_    0.555321 0.352056 0.895977 0.230730
H23   H     H_    0.407260 0.222123 0.859591 0.227322
C57   C     C_2   0.985569 0.572929 0.872514 0.203950
H24   H     H_    0.968709 0.595324 0.927070 0.137827
O27   O     O_2   0.061760 0.522576 0.863086 -0.547389
N2    N     N_3   0.033425 0.534346 0.718323 -0.610776
H25   H     H_    0.995888 0.432721 0.737853 0.269354
H26   H     H_    0.130930 0.601042 0.741437 0.273061
C58   C     C_2   0.445036 0.925997 0.339397 0.229946
H27   H     H_    0.457630 0.916888 0.396082 0.119589
O28   O     O_2   0.487311 0.043759 0.314927 -0.527002
C59   C     C_2   0.744269 0.328132 0.158046 0.240456
H28   H     H_    0.662430 0.345103 0.180413 0.114177
O29   O     O_2   0.788594 0.370890 0.098115 -0.511110
C60   C     C_2   0.318917 0.441145 0.800306 0.295015
H29   H     H_    0.262273 0.416148 0.850434 0.163483
O30   O     O_2   0.310551 0.342288 0.765546 -0.517847
N3    N     N_3   0.439636 0.509614 0.655475 -0.529519
H30   H     H_    0.500732 0.565950 0.611562 0.208052
H31   H     H_    0.505887 0.485867 0.684589 0.259653

loop_
_geom_bond_atom_site_label_1
_geom_bond_atom_site_label_2
_ccdc_geom_bond_type
C55   C56   A    
Cr2   O26   S    
C41   C42   A    
C14   C18   A    
C19   C23   S    
Cr5   O15   S    
C17   N1    S    
C7    C8    A    
C39   C53   S    
Cr4   O6    S    
C40   C46   A    
C5    C47   S    
C33   C39   A    
C20   H4    S    
C36   C37   A    
C5    C11   A    
C2    C3    A    
C29   C51   S    
C12   O22   A    
C54   H1    S    
C15   C16   A    
C15   H3    S    
N2    H25   S    
C32   C45   S    
N1    H22   S    
C27   H6    S    
C33   H10   S    
Cr3   O5    S    
C28   H7    S    
C8    C9    A    
C34   C46   S    
C49   O11   A    
C4    C12   S    
C29   C30   A    
C9    C10   A    
C1    O20   A    
Cr5   O9    S    
C9    H20   S    
Cr6   O18   S    
C60   H29   S    
C24   C57   S    
C6    H19   S    
C21   C22   A    
N3    H30   S    
Cr5   O16   S    
Cr4   O19   S    
C30   H8    S    
C44   C46   A    
C17   C18   A    
Cr3   O4    S    
C58   O28   D    
C51   O16   A    
C52   O18   A    
C50   O15   A    
Cr3   O23   S    
C48   O10   A    
C13   C19   A    
C24   C25   A    
Cr4   O14   S    
C23   O1    A    
C25   N2    S    
C6    C11   A    
C3    N3    S    
C16   C17   A    
C25   C26   A    
C23   O23   A    
Cr2   O5    S    
C35   C36   A    
C45   O2    A    
C43   C44   A    
C37   C38   A    
C53   O24   A    
C31   C32   A    
C10   C19   A    
C1    O12   A    
C8    H18   S    
C18   H21   S    
Cr1   O1    S    
C53   O4    A    
Cr3   O22   S    
C31   C58   S    
C5    C14   A    
C22   C49   S    
Cr6   O17   S    
Cr4   O13   S    
C40   C41   A    
Cr1   O24   S    
C13   C15   A    
C48   O9    A    
C1    C26   S    
C47   O7    A    
C22   C24   A    
Cr2   O21   S    
C42   C43   A    
C59   O29   D    
C3    C4    A    
Cr2   O2    S    
C36   C50   S    
C7    H17   S    
C57   H24   S    
C38   H12   S    
C51   O17   A    
C48   C56   S    
C37   H11   S    
C54   C55   A    
C28   C29   A    
C50   O14   A    
C4    C54   A    
C27   C32   A    
C47   O8    A    
C35   C59   S    
C49   O6    A    
N3    H31   S    
Cr5   O19   S    
C58   H27   S    
C40   H13   S    
C12   O21   A    
C6    C7    A    
C21   H5    S    
Cr4   O7    S    
C43   H15   S    
Cr1   O5    S    
C34   O25   A    
Cr6   O11   S    
C45   O3    A    
Cr3   O3    S    
C2    C56   A    
C41   H14   S    
C30   C31   A    
C38   C39   A    
C20   C26   A    
C44   H16   S    
C33   C35   A    
N2    H26   S    
C52   O13   A    
N1    H23   S    
C10   C11   A    
C2    C60   S    
Cr1   O25   S    
C20   C21   A    
Cr1   O12   S    
Cr6   O10   S    
C27   C28   A    
C60   O30   D    
C34   O26   A    
Cr2   O20   S    
C16   H2    S    
Cr6   O19   S    
C59   H28   S    
C13   C14   A    
C55   H9    S    
Cr5   O8    S    
C42   C52   S    
C57   O27   D    
