data_mof_unit_19695.cif
_audit_creation_date              2012-12-10T20:30:07-0500
_audit_creation_method            fapswitch 2.2
_symmetry_space_group_name_H-M    P1
_symmetry_Int_Tables_number       1
_space_group_crystal_system       triclinic
_cell_length_a                    9.932129
_cell_length_b                    10.66803
_cell_length_c                    13.113119
_cell_angle_alpha                 90.443363
_cell_angle_beta                  67.671708
_cell_angle_gamma                 88.257401
_cell_volume                      1284.36750636

loop_
_atom_site_label
_atom_site_type_symbol
_atom_type_description
_atom_site_fract_x
_atom_site_fract_y
_atom_site_fract_z
_atom_type_partial_charge
C1    C     C_R   0.502692 0.739190 0.490930 0.911149
C2    C     C_R   0.415925 0.489722 0.990967 0.102734
C3    C     C_R   0.436736 0.450482 0.883291 0.078705
C4    C     C_R   0.526977 0.459999 0.031225 0.017134
C5    C     C_R   0.649184 0.380919 0.968229 0.062384
C6    C     C_R   0.646800 0.319117 0.872876 0.054803
C7    C     C_R   0.540722 0.354063 0.832245 -0.233276
C8    C     C_R   0.522819 0.513451 0.129910 -0.219699
C9    C     C_R   0.763634 0.432541 0.099283 -0.024354
C10   C     C_R   0.358754 0.512807 0.826724 -0.189249
C11   C     C_R   0.384111 0.940058 0.484787 0.177871
C12   C     C_R   0.416958 0.502818 0.705457 0.820897
C13   C     C_R   0.512052 0.868647 0.462021 -0.205398
C14   C     C_R   0.647637 0.927172 0.413017 -0.026899
C15   C     C_R   0.649102 0.058430 0.421141 -0.023111
C16   C     C_R   0.515339 0.126889 0.473937 -0.156830
C17   C     C_R   0.386494 0.066804 0.492587 0.097421
C18   C     C_3   0.241016 0.078872 0.584739 -0.554232
C19   C     C_3   0.235599 0.936963 0.575175 -0.198675
C20   C     C_R   0.880477 0.508227 0.596446 0.150522
C21   C     C_R   0.976846 0.470394 0.407285 0.120714
C22   C     C_R   0.120268 0.473718 0.406914 -0.105769
C23   C     C_R   0.504590 0.259644 0.494563 0.883196
C24   C     C_R   0.022026 0.507146 0.596637 0.120719
C25   C     C_3   0.980602 0.606330 0.684919 -0.508314
C26   C     C_3   0.827121 0.608003 0.684373 -0.094897
C27   C     C_R   0.582488 0.500418 0.293329 0.894365
C28   C     C_R   0.771560 0.373243 0.999988 0.115524
C29   C     C_R   0.630766 0.488104 0.171007 -0.202732
C30   C     C_R   0.245017 0.601417 0.884682 0.008919
C31   C     C_R   0.205140 0.617630 0.998374 -0.057159
C32   C     C_R   0.289385 0.563605 0.050968 -0.205536
H1    H     H_    0.248435 0.110933 0.663296 0.203638
H2    H     H_    0.160685 0.133203 0.560620 0.205889
H3    H     H_    0.233561 0.887748 0.649940 0.132647
H4    H     H_    0.212724 0.452836 0.331463 0.148587
H5    H     H_    0.983757 0.568545 0.762619 0.205480
H6    H     H_    0.040090 0.693701 0.657047 0.214586
H7    H     H_    0.742802 0.575656 0.762212 0.180025
H8    H     H_    0.433293 0.574593 0.179397 0.171638
H9    H     H_    0.253767 0.583818 0.138079 0.139249
H10   H     H_    0.114619 0.680226 0.045920 0.183864
H11   H     H_    0.544151 0.307952 0.757340 0.159911
N1    N     N_R   0.856940 0.500860 0.500710 -0.098519
N2    N     N_R   0.142580 0.500820 0.500710 -0.088942
O1    O     O_R   0.385310 0.683210 0.499990 -0.593112
O2    O     O_R   0.614650 0.683240 0.500000 -0.570244
O3    O     O_R   0.328390 0.499940 0.653610 -0.617660
O4    O     O_R   0.557730 0.499980 0.653620 -0.597712
O5    O     O_R   0.385350 0.316760 0.500000 -0.601985
O6    O     O_R   0.614690 0.316790 0.500010 -0.644337
O7    O     O_R   0.442270 0.500020 0.346380 -0.615077
O8    O     O_R   0.671610 0.500060 0.346390 -0.581537
Zn1   Zn    Zn3+2 0.346870 0.499980 0.499990 0.967796
Zn2   Zn    Zn3+2 0.653130 0.500020 0.500010 0.971141
C33   C     C_2   0.897514 0.454820 0.118480 0.421081
H12   H     H_    0.902340 0.538248 0.164515 0.130810
O9    O     O_2   0.004647 0.384114 0.080657 -0.569072
N3    N     N_3   0.784781 0.119026 0.371773 -0.474535
H13   H     H_    0.810867 0.161923 0.433421 0.201503
H14   H     H_    0.773509 0.184987 0.316814 0.205331
C34   C     C_2   0.119008 0.898784 0.535254 0.422111
H15   H     H_    0.006552 0.927161 0.582966 0.035573
O10   O     O_2   0.148538 0.835786 0.450854 -0.565566
N4    N     N_3   0.957581 0.429350 0.310923 -0.412950
H16   H     H_    0.898412 0.348314 0.331367 0.191828
H17   H     H_    0.058382 0.401979 0.250377 0.194602
N5    N     N_3   0.751525 0.222025 0.815094 -0.488381
H18   H     H_    0.805751 0.249749 0.733703 0.174386
H19   H     H_    0.695652 0.141009 0.813433 0.199018
N6    N     N_3   0.784566 0.725391 0.645727 -0.405633
H20   H     H_    0.864297 0.749195 0.570121 0.216659
H21   H     H_    0.778347 0.796418 0.702881 0.183764
N7    N     N_3   0.908247 0.315814 0.929138 -0.381138
H22   H     H_    0.898830 0.218686 0.926874 0.227683
H23   H     H_    0.940301 0.353213 0.850325 0.187152
C35   C     C_2   0.176584 0.687031 0.828155 0.329501
H24   H     H_    0.225121 0.698032 0.739937 0.078288
O11   O     O_2   0.065996 0.749316 0.880190 -0.580737
C36   C     C_2   0.787119 0.855694 0.353667 0.477401
H25   H     H_    0.888961 0.890893 0.352716 0.095286
O12   O     O_2   0.790468 0.760046 0.300919 -0.580219

loop_
_geom_bond_atom_site_label_1
_geom_bond_atom_site_label_2
_ccdc_geom_bond_type
C31   H10   S    
C27   C29   S    
O8    Zn2   S    
C12   O3    A    
C28   N7    S    
C12   O4    A    
C35   H24   S    
O3    Zn1   S    
C11   C19   S    
O5    Zn1   S    
N7    H23   S    
C24   N2    A    
C3    C7    A    
C5    C6    A    
C26   H7    S    
C16   C17   A    
C19   C34   S    
C15   C16   A    
C21   N1    A    
C33   H12   S    
C2    C32   A    
C18   C19   S    
C34   O10   D    
C25   H5    S    
C30   C35   S    
C20   C24   A    
N5    H18   S    
N4    H17   S    
C32   H9    S    
C7    H11   S    
C4    C8    A    
C6    N5    S    
N3    H13   S    
C21   C22   A    
C26   N6    S    
C20   N1    A    
O7    Zn1   S    
C35   O11   D    
N3    H14   S    
N7    H22   S    
C24   C25   S    
C36   O12   D    
N6    H21   S    
C1    O2    A    
C23   O5    A    
C25   C26   S    
O4    Zn2   S    
C2    C4    A    
C34   H15   S    
C25   H6    S    
C5    C28   A    
C10   C30   A    
C23   O6    A    
C31   C32   A    
O1    Zn1   S    
C17   C18   S    
C9    C33   S    
C18   H2    S    
C10   C12   S    
N2    Zn1   S    
C16   C23   S    
C14   C36   S    
C1    C13   S    
C8    C29   A    
C27   O7    A    
O2    Zn2   S    
C11   C17   A    
C21   N4    S    
C15   N3    S    
C36   H25   S    
C27   O8    A    
C6    C7    A    
C9    C29   A    
C22   H4    S    
C2    C3    A    
N6    H20   S    
C3    C10   A    
C19   H3    S    
C11   C13   A    
N1    Zn2   S    
C30   C31   A    
C20   C26   S    
C33   O9    D    
O6    Zn2   S    
C1    O1    A    
C18   H1    S    
C4    C5    A    
C22   N2    A    
N5    H19   S    
N4    H16   S    
C14   C15   A    
C8    H8    S    
C13   C14   A    
C9    C28   A    
