data_mof_unit_40968.cif
_audit_creation_date              2013-03-05T16:12:51-0500
_audit_creation_method            fapswitch 2.2
_symmetry_space_group_name_H-M    P1
_symmetry_Int_Tables_number       1
_space_group_crystal_system       triclinic
_cell_length_a                    10.792251
_cell_length_b                    9.788626
_cell_length_c                    27.725764
_cell_angle_alpha                 90.103874
_cell_angle_beta                  89.810024
_cell_angle_gamma                 90.420277
_cell_volume                      2928.88641203

loop_
_atom_site_label
_atom_site_type_symbol
_atom_site_description
_atom_site_fract_x
_atom_site_fract_y
_atom_site_fract_z
_atom_type_partial_charge
O1    O     O_R   0.316770 0.614620 0.500000 -0.558726
O2    O     O_R   0.683230 0.385380 0.500000 -0.568245
O3    O     O_R   0.683230 0.614620 0.500000 -0.572474
O4    O     O_R   0.316770 0.385380 0.500000 -0.564129
C1    C     C_R   0.259274 0.499279 0.501305 1.008955
C2    C     C_R   0.740026 0.500550 0.500556 1.047599
O5    O     O_R   0.500030 0.614650 0.428760 -0.640783
O6    O     O_R   0.499970 0.385350 0.571240 -0.638034
O7    O     O_R   0.499970 0.614650 0.571240 -0.589139
O8    O     O_R   0.500030 0.385350 0.428760 -0.589137
C3    C     C_R   0.500649 0.499994 0.405793 0.960303
C4    C     C_R   0.501349 0.500244 0.594025 0.958713
Zn1   Zn    Zn3+2 0.500000 0.653120 0.500000 1.061724
Zn2   Zn    Zn3+2 0.500000 0.346880 0.500000 1.058673
C5    C     C_R   0.411696 0.554793 0.177329 0.614369
C6    C     C_R   0.598677 0.422832 0.822460 0.617317
O9    O     O_2   0.309217 0.588165 0.202671 -0.529436
O10   O     O_2   0.683398 0.350666 0.797365 -0.535847
N1    N     N_R   0.518066 0.521292 0.200940 -0.328260
N2    N     N_R   0.511797 0.497192 0.798550 -0.329864
C7    C     C_R   0.623684 0.486603 0.176737 0.522771
C8    C     C_R   0.424869 0.572300 0.822453 0.514784
C9    C     C_R   0.516366 0.636977 0.279242 0.594657
C10   C     C_R   0.467459 0.382075 0.722045 0.593789
C11   C     C_R   0.508342 0.629417 0.329356 -0.371903
C12   C     C_R   0.467261 0.383558 0.671774 -0.382467
C13   C     C_R   0.505357 0.380546 0.325287 0.514836
C14   C     C_R   0.552194 0.615094 0.672203 0.503890
C15   C     C_R   0.513707 0.389132 0.275086 -0.284947
C16   C     C_R   0.552736 0.612693 0.722420 -0.259863
C17   C     C_R   0.516758 0.516098 0.252282 0.144134
C18   C     C_R   0.511670 0.496707 0.747173 0.132297
C19   C     C_R   0.514957 0.513838 0.101175 -0.058250
C20   C     C_R   0.511906 0.498727 0.898357 -0.059035
C21   C     C_R   0.408406 0.552794 0.126934 -0.128649
C22   C     C_R   0.600525 0.422430 0.872934 -0.115660
C23   C     C_R   0.299999 0.584217 0.102113 -0.206396
C24   C     C_R   0.686643 0.344635 0.898142 -0.237067
C25   C     C_R   0.624004 0.481360 0.126338 -0.006814
C26   C     C_R   0.422921 0.574168 0.872838 -0.002808
C27   C     C_R   0.504710 0.502142 0.352842 -0.193933
C28   C     C_R   0.506566 0.500445 0.646640 -0.196839
H1    H     H_    0.517089 0.296814 0.253541 0.176757
H2    H     H_    0.585624 0.701071 0.742313 0.188896
H3    H     H_    0.215738 0.609034 0.121503 0.213319
H4    H     H_    0.747548 0.277282 0.878371 0.199394
C29   C     C_R   0.414619 0.566026 0.974386 0.078224
C30   C     C_R   0.616960 0.456129 0.025019 0.096626
C31   C     C_R   0.608721 0.434141 0.974591 -0.068654
C32   C     C_R   0.406481 0.552572 0.025117 -0.086529
C33   C     C_R   0.511752 0.499353 0.949230 0.010639
C34   C     C_R   0.512623 0.507316 0.050301 0.012835
C35   C     C_R   0.331799 0.647792 0.948022 -0.159002
C36   C     C_R   0.727490 0.434185 0.050852 -0.137359
C37   C     C_R   0.335389 0.650982 0.898036 -0.171215
C38   C     C_R   0.730679 0.445630 0.100731 -0.156919
O11   O     O_2   0.340191 0.643868 0.797425 -0.557950
O12   O     O_2   0.727462 0.456535 0.201477 -0.550149
C39   C     C_R   0.296729 0.581201 0.051896 0.501363
C40   C     C_R   0.693044 0.349605 0.948753 0.509746
H5    H     H_    0.434339 0.293985 0.652552 0.197435
H6    H     H_    0.505006 0.723845 0.349720 0.190529
H7    H     H_    0.269222 0.714146 0.879244 0.194418
H8    H     H_    0.817156 0.426000 0.119115 0.192291
H9    H     H_    0.266903 0.715371 0.965363 0.208242
H10   H     H_    0.814303 0.413858 0.033000 0.176603
C41   C     C_R   0.057896 0.373403 0.507274 0.299696
C42   C     C_R   0.939503 0.620001 0.490584 0.307607
C43   C     C_R   0.933657 0.383514 0.518993 0.309302
C44   C     C_R   0.062191 0.624125 0.504092 0.305220
C45   C     C_R   0.871881 0.501517 0.503133 -0.431717
C46   C     C_R   0.126099 0.498176 0.504385 -0.420423
C47   C     C_R   0.467644 0.071978 0.540538 0.034640
C48   C     C_R   0.533331 0.928046 0.459588 0.007135
C49   C     C_R   0.534275 0.072081 0.459727 -0.041711
C50   C     C_R   0.468065 0.927936 0.540582 0.031187
H11   H     H_    0.441228 0.126396 0.572885 0.136193
H12   H     H_    0.560437 0.873689 0.427333 0.129557
H13   H     H_    0.563171 0.126584 0.427775 0.189353
H14   H     H_    0.442789 0.873475 0.573038 0.169060
N3    N     N_R   0.500000 0.857200 0.500000 -0.082958
N4    N     N_R   0.500000 0.142800 0.500000 -0.086641
O13   O     O_3   0.506405 0.253988 0.347407 -0.608869
C51   C     C_3   0.392247 0.187102 0.338971 -0.249120
H15   H     H_    0.383598 0.154953 0.300656 0.174192
H16   H     H_    0.312315 0.251978 0.349666 0.196960
H17   H     H_    0.388390 0.093223 0.361293 0.183061
O14   O     O_3   0.591543 0.732003 0.648617 -0.608440
C52   C     C_3   0.720178 0.722389 0.640329 -0.182526
H18   H     H_    0.742850 0.632763 0.617236 0.176281
H19   H     H_    0.772258 0.717714 0.674868 0.162052
H20   H     H_    0.751561 0.815299 0.620799 0.223376
O15   O     O_3   0.430159 0.266513 0.746861 -0.585223
C53   C     C_3   0.299620 0.263586 0.748653 -0.253447
H21   H     H_    0.259174 0.251603 0.712007 0.177219
H22   H     H_    0.262321 0.356566 0.766602 0.176182
H23   H     H_    0.269782 0.174017 0.770338 0.205007
O16   O     O_3   0.515592 0.761951 0.256094 -0.591480
C54   C     C_3   0.633172 0.823896 0.261235 -0.259603
H24   H     H_    0.707974 0.757150 0.246900 0.186816
H25   H     H_    0.651860 0.851681 0.299463 0.160031
H26   H     H_    0.634805 0.919761 0.239958 0.204841
O17   O     O_3   0.183499 0.601643 0.030066 -0.619574
C55   C     C_3   0.125928 0.473529 0.022854 -0.328453
H27   H     H_    0.108648 0.420287 0.057712 0.171898
H28   H     H_    0.181379 0.407851 0.998220 0.170584
H29   H     H_    0.034781 0.490408 0.005635 0.190791
O18   O     O_3   0.765007 0.255822 0.973631 -0.600517
C56   C     C_3   0.887189 0.250318 0.955181 -0.357704
H30   H     H_    0.922421 0.351777 0.942862 0.147805
H31   H     H_    0.892984 0.174095 0.925570 0.196559
H32   H     H_    0.949416 0.215492 0.984383 0.197102
S1    S     S_3+6 0.115883 0.208401 0.491599 0.136567
O19   O     O_2   0.191343 0.154314 0.532725 -0.261279
O20   O     O_2   0.011104 0.110836 0.481412 -0.132328
O21   O     O_3   0.204109 0.218010 0.441550 -0.563479
H33   H     H_    0.245569 0.128254 0.439325 0.378099
S2    S     S_3+6 0.881275 0.753188 0.453268 0.101671
O22   O     O_2   0.812508 0.855201 0.483598 -0.217114
O23   O     O_2   0.986491 0.824399 0.427782 -0.222685
O24   O     O_3   0.784987 0.686797 0.411605 -0.579525
H34   H     H_    0.758858 0.765620 0.391834 0.361387
S3    S     S_3+6 0.865899 0.263947 0.560206 0.097952
O25   O     O_2   0.795211 0.155482 0.533160 -0.217452
O26   O     O_2   0.965033 0.197469 0.589802 -0.226040
O27   O     O_3   0.768700 0.346179 0.597633 -0.605431
H35   H     H_    0.728489 0.273286 0.617006 0.383676
S4    S     S_3+6 0.120775 0.778659 0.529964 0.115174
O28   O     O_2   0.193821 0.857339 0.492904 -0.228480
O29   O     O_2   0.015528 0.865209 0.547751 -0.194585
O30   O     O_3   0.212379 0.741626 0.577095 -0.573798
H36   H     H_    0.220794 0.828446 0.595234 0.376726

loop_
_geom_bond_atom_site_label_1
_geom_bond_atom_site_label_2
_geom_bond_distance
_ccdc_geom_bond_type
O27   H35   0.990582 S    
C13   C15   1.397123 A    
C51   H17   1.109287 S    
O3    C2    1.277842 A    
N1    C17   1.424515 S    
S4    O28   1.502991 D    
C8    O11   1.350110 S    
C55   H28   1.113244 S    
S3    O25   1.503525 D    
O21   H33   0.990614 S    
C19   C34   1.412146 A    
C5    N1    1.365727 A    
C20   C33   1.410513 A    
O15   C53   1.409611 S    
C31   C40   1.425015 A    
O1    C1    1.284823 A    
C32   C39   1.425141 A    
N1    C7    1.365511 A    
C12   H5    1.083529 S    
C10   C12   1.393918 A    
C1    C46   1.439473 S    
C56   H31   1.110290 S    
S3    O26   1.503127 D    
C43   S3    1.788014 S    
Zn1   N3    1.997663 S    
O18   C56   1.414141 S    
C41   C46   1.423622 A    
C43   C45   1.409664 A    
O7    Zn1   2.011426 S    
S2    O22   1.502916 D    
C4    C28   1.460053 S    
C42   S2    1.785003 S    
O13   C51   1.410940 S    
C14   C16   1.392598 A    
C31   C33   1.418929 A    
C37   H7    1.083415 S    
C14   O14   1.382505 S    
C32   C34   1.417681 A    
C38   H8    1.083463 S    
C52   H19   1.113148 S    
C35   H9    1.078277 S    
O3    Zn1   2.015768 S    
C6    N2    1.365410 A    
C29   C35   1.410953 A    
S1    O21   1.682698 S    
C15   H1    1.083131 S    
C16   H2    1.083338 S    
O2    C2    1.279356 A    
C5    C21   1.397912 A    
C55   H27   1.113401 S    
O5    C3    1.289434 A    
C29   C32   1.415331 A    
C35   C37   1.386693 A    
C2    C45   1.425008 S    
C36   C38   1.387759 A    
C48   C49   1.409867 A    
C51   H15   1.111444 S    
O8    Zn2   2.011431 S    
C56   H32   1.109369 S    
C11   C27   1.407019 A    
S3    O27   1.681438 S    
C29   C33   1.419443 A    
C53   H23   1.109227 S    
S4    O29   1.503341 D    
C41   C43   1.382792 A    
S2    O24   1.682828 S    
C9    C17   1.398451 A    
C30   C36   1.411408 A    
C10   C18   1.401291 A    
C13   C27   1.413224 A    
C25   C38   1.396926 A    
C7    C25   1.398197 A    
C30   C34   1.418492 A    
O6    C4    1.288957 A    
C26   C37   1.396429 A    
C8    C26   1.397120 A    
C9    O16   1.382592 S    
C19   C25   1.408754 A    
C52   H20   1.109541 S    
C53   H22   1.113762 S    
O24   H34   0.990495 S    
C23   C39   1.393117 A    
C24   C40   1.405873 A    
C6    O10   1.350034 S    
C30   C31   1.417226 A    
C54   H25   1.112490 S    
N2    C8    1.365323 A    
C47   C50   1.410014 A    
C20   C26   1.408903 A    
O1    Zn1   2.010337 S    
Zn2   N4    1.997663 S    
C48   N3    1.364635 A    
C23   H3    1.083746 S    
O30   H36   0.990479 S    
S4    O30   1.682829 S    
C47   N4    1.364709 A    
C12   C28   1.403028 A    
S1    O19   1.502780 D    
N2    C18   1.424465 S    
C44   S4    1.785366 S    
C5    O9    1.350145 S    
O6    Zn2   2.010085 S    
C21   C23   1.395847 A    
C50   H14   1.079971 S    
C51   H16   1.114012 S    
O4    C1    1.280328 A    
C40   O18   1.392119 S    
C50   N3    1.364668 A    
C49   N4    1.364198 A    
C36   H10   1.077824 S    
C54   H24   1.114095 S    
C39   O17   1.381527 S    
C13   O13   1.383456 S    
C41   S1    1.788765 S    
C7    O12   1.349883 S    
C15   C17   1.395553 A    
C10   O15   1.381791 S    
C6    C22   1.399668 A    
C22   C24   1.395989 A    
C16   C18   1.396361 A    
C42   C45   1.409304 A    
C14   C28   1.412653 A    
C19   C21   1.406339 A    
C3    C27   1.468808 S    
C20   C22   1.404772 A    
C11   H6    1.083013 S    
C9    C11   1.393927 A    
O4    Zn2   2.015768 S    
C53   H21   1.112836 S    
O2    Zn2   2.010337 S    
O7    C4    1.286976 A    
S2    O23   1.503143 D    
C24   H4    1.081598 S    
O8    C3    1.291252 A    
O5    Zn1   2.010091 S    
C54   H26   1.109302 S    
O14   C52   1.410197 S    
C42   C44   1.377503 A    
O16   C54   1.409899 S    
C48   H12   1.080402 S    
O17   C55   1.409669 S    
C47   H11   1.080820 S    
C44   C46   1.417130 A    
C52   H18   1.113374 S    
C56   H30   1.114628 S    
C49   H13   1.078955 S    
C55   H29   1.108444 S    
S1    O20   1.501954 D    
