data_mof_unit_19505.cif
_audit_creation_date              2013-03-05T16:03:03-0500
_audit_creation_method            fapswitch 2.2
_symmetry_space_group_name_H-M    P1
_symmetry_Int_Tables_number       1
_space_group_crystal_system       triclinic
_cell_length_a                    6.97027
_cell_length_b                    18.172463
_cell_length_c                    20.391443
_cell_angle_alpha                 68.530925
_cell_angle_beta                  90.770358
_cell_angle_gamma                 91.181492
_cell_volume                      2403.14762222

loop_
_atom_site_label
_atom_site_type_symbol
_atom_site_description
_atom_site_fract_x
_atom_site_fract_y
_atom_site_fract_z
_atom_type_partial_charge
O1    O     O_R   0.488990 0.443920 0.942160 -0.597327
O2    O     O_R   0.823840 0.406530 0.087600 -0.604591
O3    O     O_R   0.999650 0.556080 0.057840 -0.563692
C1    C     C_R   0.654508 0.383626 0.114800 0.921024
O4    O     O_R   0.818390 0.434590 0.944530 -0.582115
O5    O     O_R   0.994160 0.584350 0.913750 -0.579531
C2    C     C_R   0.647995 0.419801 0.924870 0.948070
O6    O     O_R   0.494480 0.415650 0.086250 -0.606238
O7    O     O_3   0.662600 0.549100 0.990070 -0.241736
V1    V     V_3+5 0.935320 0.490890 0.001840 1.217188
O8    O     O_R   0.324240 0.593470 0.912400 -0.577456
C3    C     C_R   0.155227 0.618815 0.885815 1.020213
O9    O     O_R   0.329690 0.565410 0.055470 -0.574066
C4    C     C_R   0.163487 0.573008 0.080790 1.081142
V2    V     V_3+5 0.435990 0.509110 0.998160 1.216153
O10   O     O_3   0.158840 0.450900 0.009930 -0.289391
C5    C     C_3   0.942625 0.691326 0.249589 0.062017
C6    C     C_3   0.300030 0.672564 0.273565 -0.539938
C7    C     C_3   0.303991 0.727769 0.317025 0.271280
H1    H     H_    0.917535 0.695262 0.356999 0.261803
H2    H     H_    0.443675 0.673335 0.250369 0.157170
H3    H     H_    0.273961 0.609962 0.307971 0.208128
H4    H     H_    0.437940 0.764038 0.302299 0.114449
C8    C     C_1   0.109406 0.871870 0.380716 -0.238040
C9    C     C_3   0.145289 0.699726 0.214250 0.247639
C10   C     C_3   0.940901 0.736342 0.301935 -0.458701
C11   C     C_3   0.129564 0.785506 0.296761 -0.014519
C12   C     C_3   0.148622 0.840758 0.216942 0.151736
C13   C     C_3   0.181660 0.790002 0.169726 -0.102194
C14   C     C_1   0.116929 0.832588 0.343539 0.138022
C15   C     C_1   0.153016 0.652566 0.167675 0.006259
C16   C     C_1   0.158594 0.615877 0.128463 -0.212803
H5    H     H_    0.072401 0.808113 0.126571 0.145131
H6    H     H_    0.007031 0.869143 0.200870 0.072073
H7    H     H_    0.836505 0.719990 0.206931 0.124852
H8    H     H_    0.815621 0.776349 0.289145 0.159618
H9    H     H_    0.166410 0.532705 0.675609 0.185403
C17   C     C_R   0.100427 0.785571 0.878568 0.328157
C18   C     C_R   0.070017 0.862649 0.876424 0.171645
C19   C     C_R   0.072223 0.924940 0.812984 -0.213706
C20   C     C_R   0.104126 0.913772 0.750229 0.185765
C21   C     C_R   0.115715 0.834553 0.749337 0.053812
C22   C     C_R   0.120729 0.768384 0.815552 -0.134375
C23   C     C_R   0.118042 0.819510 0.685345 -0.220040
C24   C     C_R   0.125450 0.741104 0.686608 0.074747
C25   C     C_R   0.149056 0.674958 0.751303 0.067266
C26   C     C_R   0.145512 0.688428 0.816829 -0.248897
C27   C     C_R   0.110044 0.728291 0.622126 -0.162612
C28   C     C_R   0.119968 0.653717 0.619639 -0.124423
C29   C     C_R   0.152616 0.589674 0.680459 -0.045473
C30   C     C_R   0.172282 0.598087 0.746003 0.175493
H10   H     H_    0.054426 0.984099 0.812980 0.167618
H11   H     H_    0.088391 0.775878 0.572011 0.112019
H12   H     H_    0.106754 0.645748 0.569654 0.187426
H13   H     H_    0.440924 0.482103 0.292834 0.134921
C31   C     C_R   0.747087 0.224358 0.129305 -0.220887
C32   C     C_R   0.799976 0.149250 0.134175 -0.081206
C33   C     C_R   0.796760 0.086714 0.199034 0.345027
C34   C     C_R   0.735109 0.099292 0.258991 -0.189877
C35   C     C_R   0.683973 0.175524 0.256059 0.059867
C36   C     C_R   0.692247 0.239408 0.189681 0.119248
C37   C     C_R   0.628861 0.188603 0.317977 -0.282550
C38   C     C_R   0.594199 0.268225 0.313162 0.076328
C39   C     C_R   0.586471 0.330239 0.245077 0.080945
C40   C     C_R   0.642216 0.316447 0.184046 -0.265745
C41   C     C_R   0.573858 0.290574 0.373214 0.268931
C42   C     C_R   0.510404 0.366317 0.364761 -0.095261
C43   C     C_R   0.485490 0.423336 0.298457 -0.179750
C44   C     C_R   0.529763 0.406763 0.239420 -0.191409
H14   H     H_    0.750866 0.270472 0.077521 0.127414
H15   H     H_    0.845359 0.140228 0.087105 0.150139
H16   H     H_    0.731238 0.048615 0.307830 0.141351
H17   H     H_    0.488046 0.382585 0.410178 0.140329
H18   H     H_    0.519609 0.455344 0.189386 0.128042
O11   O     O_R   0.770890 0.084490 0.414040 -0.598868
O12   O     O_R   0.445980 0.065450 0.555510 -0.603978
O13   O     O_R   0.270670 0.915620 0.586180 -0.593267
C45   C     C_R   0.615493 0.076131 0.578719 0.979141
O14   O     O_R   0.441480 0.093500 0.412450 -0.580393
O15   O     O_R   0.266140 0.943870 0.442100 -0.570524
C46   C     C_R   0.611644 0.118460 0.386112 0.974074
O16   O     O_R   0.775410 0.056240 0.558120 -0.598017
O17   O     O_3   0.602660 0.950990 0.510100 -0.263218
V3    V     V_3+5 0.329740 0.009100 0.498130 1.175866
O18   O     O_R   0.936120 0.934420 0.444240 -0.592343
C47   C     C_R   0.103438 0.919585 0.424531 0.965778
O19   O     O_R   0.940610 0.906370 0.587310 -0.598097
C48   C     C_R   0.108997 0.885145 0.615536 0.949841
V4    V     V_3+5 0.829110 0.990690 0.501470 1.173624
O20   O     O_3   0.106080 0.049010 0.489880 -0.275932
C49   C     C_3   0.833098 0.235738 0.717102 -0.747440
C50   C     C_3   0.496479 0.283055 0.674729 0.510280
C51   C     C_3   0.494867 0.331873 0.726079 -0.012769
H19   H     H_    0.894256 0.266366 0.664332 0.238523
H20   H     H_    0.349082 0.327041 0.749034 0.205028
C52   C     C_1   0.635144 0.373829 0.879968 -0.205727
C53   C     C_3   0.625955 0.206765 0.709104 0.212151
C54   C     C_3   0.842215 0.286649 0.766186 0.626762
C55   C     C_3   0.630895 0.292896 0.791610 -0.047987
C56   C     C_3   0.545855 0.208038 0.831221 -0.491046
C57   C     C_3   0.565926 0.154927 0.786886 0.087074
C58   C     C_1   0.629185 0.336669 0.841099 0.166124
C59   C     C_1   0.630693 0.157972 0.663691 0.029275
C60   C     C_1   0.626907 0.120281 0.625246 -0.294743
H21   H     H_    0.686839 0.114391 0.810626 0.195569
H22   H     H_    0.617249 0.179627 0.883275 0.222676
H23   H     H_    0.924622 0.182819 0.738794 0.202353
H24   H     H_    0.392319 0.212034 0.843449 0.246687
N1    N     N_R   0.290212 0.905975 0.203546 0.246694
O21   O     O_R   0.280256 0.967030 0.144970 -0.399276
O22   O     O_R   0.416626 0.907100 0.250675 -0.454538
N2    N     N_R   0.115463 0.726547 0.946649 0.196949
O23   O     O_R   0.280425 0.720517 0.978586 -0.443882
O24   O     O_R   0.959640 0.706226 0.983820 -0.422839
C61   C     C_3   0.043464 0.879932 0.942944 -0.818116
H25   H     H_    0.029158 0.944181 0.931792 0.231707
H26   H     H_    0.911173 0.849976 0.970453 0.264897
H27   H     H_    0.169013 0.859228 0.978575 0.263825
C62   C     C_3   0.135495 0.990026 0.688059 -0.939212
H28   H     H_    0.135101 0.043496 0.702233 0.229321
H29   H     H_    0.278741 0.989416 0.665946 0.257659
H30   H     H_    0.018897 0.999514 0.649135 0.265907
C63   C     C_3   0.870781 0.605167 0.286126 -0.909962
H31   H     H_    0.726161 0.604488 0.308501 0.249198
H32   H     H_    0.858063 0.574762 0.247902 0.236981
H33   H     H_    0.966894 0.571051 0.329974 0.280169
C64   C     C_3   0.232731 0.523869 0.805328 -0.845539
H34   H     H_    0.255190 0.473587 0.787946 0.259232
H35   H     H_    0.373814 0.535116 0.825467 0.230999
H36   H     H_    0.121389 0.502605 0.846481 0.264430
C65   C     C_3   0.864916 0.006856 0.205348 -0.907443
H37   H     H_    0.899058 0.004931 0.152969 0.262793
H38   H     H_    0.995990 0.992806 0.238809 0.248430
H39   H     H_    0.753481 0.961222 0.230198 0.280486
C66   C     C_3   0.640879 0.241510 0.445876 -1.040247
H40   H     H_    0.518106 0.205548 0.474982 0.255831
H41   H     H_    0.766980 0.206020 0.444874 0.258445
H42   H     H_    0.694184 0.279727 0.474066 0.246643
N3    N     N_R   0.923333 0.367122 0.727872 0.218955
O25   O     O_R   0.929831 0.419187 0.757871 -0.425512
O26   O     O_R   0.997712 0.387344 0.665484 -0.484914
C67   C     C_3   0.289019 0.258244 0.663648 -0.961332
H43   H     H_    0.211181 0.307909 0.624474 0.292866
H44   H     H_    0.282584 0.208709 0.644140 0.249352
H45   H     H_    0.209777 0.241044 0.713165 0.243279
C68   C     C_3   0.568219 0.334027 0.599117 -0.916462
H46   H     H_    0.713836 0.359292 0.598235 0.271132
H47   H     H_    0.566997 0.298278 0.565451 0.238943
H48   H     H_    0.472423 0.384616 0.572778 0.263409
C69   C     C_3   0.518004 0.422784 0.688990 -0.821670
H49   H     H_    0.394228 0.445905 0.653000 0.258831
H50   H     H_    0.519023 0.452785 0.727474 0.236833
H51   H     H_    0.649760 0.441181 0.657311 0.294843
C70   C     C_3   0.395804 0.096364 0.796987 -0.964129
H52   H     H_    0.416546 0.058447 0.765774 0.252882
H53   H     H_    0.389138 0.056475 0.853247 0.270906
H54   H     H_    0.255353 0.124889 0.784005 0.274850
N4    N     N_R   0.966981 0.247269 0.828240 0.203172
O27   O     O_R   0.966391 0.170672 0.859615 -0.473433
O28   O     O_R   0.072674 0.288997 0.855329 -0.402968
N5    N     N_R   0.315342 0.681810 0.393050 0.239151
O29   O     O_R   0.457390 0.694509 0.429822 -0.402243
O30   O     O_R   0.191822 0.625430 0.423899 -0.419772
C71   C     C_3   0.378894 0.806361 0.132418 -0.801208
H55   H     H_    0.404298 0.764980 0.104860 0.255090
H56   H     H_    0.383391 0.866793 0.091541 0.271609
H57   H     H_    0.498334 0.801322 0.170286 0.234207

loop_
_geom_bond_atom_site_label_1
_geom_bond_atom_site_label_2
_geom_bond_distance
_ccdc_geom_bond_type
C9    C15   1.496135 S    
C66   H42   1.107548 S    
O19   C48   1.302165 A    
C52   C58   1.214761 T    
C6    H2    1.110736 S    
C20   C21   1.450287 A    
O2    C1    1.304727 A    
C67   H45   1.095064 S    
O15   V3    1.965488 S    
C65   H39   1.106432 S    
O12   V3    1.972679 S    
N2    O24   1.300484 A    
N5    O29   1.301191 A    
C66   H40   1.103786 S    
O18   C47   1.303542 A    
C2    C52   1.448786 S    
C10   C11   1.557226 S    
O16   V4    1.982617 S    
V3    O20   1.713173 S    
C5    C10   1.564813 S    
C12   C13   1.579729 S    
O12   C45   1.304022 A    
N1    O22   1.300499 A    
O5    C3    1.305455 A    
O14   V3    2.009310 S    
C63   H32   1.109968 S    
V2    O10   2.156578 S    
C13   H5    1.114899 S    
C31   C32   1.388985 A    
C9    C13   1.574386 S    
C35   C37   1.426412 A    
C6    C7    1.562545 S    
C7    N5    1.469287 S    
C56   C57   1.554366 S    
O15   C47   1.301308 A    
O8    V2    2.016258 S    
C5    C63   1.543089 S    
C55   C56   1.563722 S    
O13   C48   1.297952 A    
C43   C44   1.383618 A    
C61   H26   1.109488 S    
C69   H51   1.103494 S    
C54   N4    1.484175 S    
C42   H17   1.084239 S    
C50   C67   1.544120 S    
O7    V1    2.162161 S    
C51   C55   1.577058 S    
C70   H53   1.111329 S    
C1    O6    1.297348 A    
C34   H16   1.081200 S    
C41   C42   1.403315 A    
C38   C41   1.433755 A    
C12   H6    1.111789 S    
C34   C35   1.417359 A    
C51   H20   1.112846 S    
O1    C2    1.299389 A    
O9    C4    1.304832 A    
C11   C14   1.500819 S    
N4    O28   1.302119 A    
C13   C71   1.550112 S    
C51   C69   1.550816 S    
C6    C9    1.555567 S    
C21   C23   1.428151 A    
C3    C26   1.510671 S    
N2    O23   1.300401 A    
N5    O30   1.301199 A    
C50   C53   1.597212 S    
H13   C43   1.083154 S    
C68   H47   1.104288 S    
C62   H29   1.103003 S    
C57   H21   1.113955 S    
C27   H11   1.081326 S    
O17   V4    1.706000 S    
C56   H24   1.111928 S    
C45   C60   1.450078 S    
C42   C43   1.381107 A    
C49   H23   1.110759 S    
C63   H31   1.110044 S    
C17   C18   1.405681 A    
C70   H54   1.100318 S    
C18   C19   1.372222 A    
O4    C2    1.302480 A    
O18   V4    1.972883 S    
O11   C46   1.300536 A    
C63   H33   1.108106 S    
O13   V3    2.009329 S    
C33   C34   1.398009 A    
C19   H10   1.084701 S    
C50   C68   1.562549 S    
C25   C30   1.452452 A    
C20   C62   1.511367 S    
C38   C39   1.433758 A    
C8    C47   1.456508 S    
C35   C36   1.425574 A    
C7    H4    1.110666 S    
C64   H35   1.104415 S    
C37   C38   1.439235 A    
C68   H48   1.110732 S    
C45   O16   1.299966 A    
O17   V3    2.162231 S    
C33   C65   1.496101 S    
N3    O25   1.300987 A    
C61   H27   1.109803 S    
C29   C30   1.404367 A    
C44   H18   1.080123 S    
C31   C36   1.414257 A    
C39   C44   1.416825 A    
C32   H15   1.083380 S    
C18   C61   1.514546 S    
C70   H52   1.108335 S    
C53   C59   1.499299 S    
O3    C4    1.301653 A    
O1    V2    1.965584 S    
C10   H8    1.113723 S    
C19   C20   1.388451 A    
C37   C46   1.507115 S    
C28   C29   1.375188 A    
O6    V2    2.013226 S    
C31   H14   1.081696 S    
O9    V2    1.972612 S    
N4    O27   1.301862 A    
C69   H50   1.107235 S    
C24   C25   1.433137 A    
C21   C22   1.442985 A    
C17   N2    1.414035 S    
C65   H37   1.110490 S    
O2    V1    2.009271 S    
C59   C60   1.214974 T    
C7    C11   1.572113 S    
C23   C24   1.417597 A    
O14   C46   1.310573 A    
C68   H46   1.102974 S    
C24   C27   1.419133 A    
C66   H41   1.105648 S    
C25   C26   1.444439 A    
C71   H55   1.109118 S    
C6    H3    1.109103 S    
C15   C16   1.215545 T    
C4    C16   1.452378 S    
C65   H38   1.109410 S    
O5    V1    2.009302 S    
C62   H28   1.110594 S    
C64   H34   1.108860 S    
C12   N1    1.474877 S    
C56   H22   1.111823 S    
C54   N3    1.486648 S    
C30   C64   1.508460 S    
C39   C40   1.417020 A    
O19   V4    2.016205 S    
C49   C53   1.553603 S    
C64   H36   1.106158 S    
C5    C9    1.573550 S    
C17   C22   1.438502 A    
O3    V1    1.965462 S    
V1    O10   1.713097 S    
N1    O21   1.301309 A    
C49   H19   1.101618 S    
H9    C29   1.081721 S    
N3    O26   1.299975 A    
C32   C33   1.393102 A    
C1    C40   1.492863 S    
H1    C10   1.109459 S    
C57   C70   1.541177 S    
C27   C28   1.377754 A    
C71   H56   1.109511 S    
C50   C51   1.601325 S    
C62   H30   1.099314 S    
C67   H44   1.109312 S    
C71   H57   1.109889 S    
C49   C54   1.592325 S    
O7    V2    1.709436 S    
C8    C14   1.218914 T    
O11   V4    2.008304 S    
C41   C66   1.496708 S    
C36   C40   1.412820 A    
O4    V1    1.972801 S    
C55   C58   1.496545 S    
C54   C55   1.588012 S    
C11   C12   1.574480 S    
C67   H43   1.108081 S    
C69   H49   1.109818 S    
C5    H7    1.114473 S    
C61   H25   1.111163 S    
V4    O20   2.156537 S    
C23   C48   1.486885 S    
C22   C26   1.457489 A    
C53   C57   1.576722 S    
C28   H12   1.083199 S    
O8    C3    1.310068 A    
