data_mof_unit_41119.cif
_audit_creation_date              2012-12-11T14:08:18-0500
_audit_creation_method            fapswitch 2.2
_symmetry_space_group_name_H-M    P1
_symmetry_Int_Tables_number       1
_space_group_crystal_system       triclinic
_cell_length_a                    10.941634
_cell_length_b                    10.932245
_cell_length_c                    18.637973
_cell_angle_alpha                 89.8617
_cell_angle_beta                  89.1847
_cell_angle_gamma                 60.01825
_cell_volume                      1930.85797346

loop_
_atom_site_label
_atom_site_type_symbol
_atom_type_description
_atom_site_fract_x
_atom_site_fract_y
_atom_site_fract_z
_atom_type_partial_charge
C1    C     C_R   0.291560 0.621781 0.615145 0.554088
C2    C     C_2   0.783109 0.151602 0.705810 -0.174040
C3    C     C_2   0.246325 0.636781 0.689916 -0.122510
C4    C     C_R   0.652856 0.621893 0.601795 0.547408
C5    C     C_2   0.215877 0.651917 0.845835 -0.120275
C6    C     C_2   0.227887 0.543845 0.806356 -0.170949
C7    C     C_2   0.276885 0.524557 0.731173 -0.185697
C8    C     C_2   0.622089 0.615986 0.311918 -0.104833
C9    C     C_2   0.628054 0.657373 0.156492 -0.113895
C10   C     C_2   0.696235 0.530986 0.188631 -0.132005
C11   C     C_2   0.670689 0.510375 0.263977 -0.140944
C12   C     C_3   0.683075 0.543502 0.801562 -0.249990
C13   C     C_2   0.677809 0.136304 0.333780 -0.099064
C14   C     C_2   0.651971 0.143839 0.179699 -0.058034
C15   C     C_2   0.618206 0.066382 0.223211 -0.146060
C16   C     C_R   0.627990 0.227339 0.601935 0.538907
C17   C     C_2   0.601551 0.090752 0.300036 -0.161692
C18   C     C_2   0.183422 0.666733 0.327302 -0.054083
C19   C     C_2   0.192584 0.637129 0.170819 0.039783
C20   C     C_2   0.235878 0.714370 0.206274 -0.169745
C21   C     C_2   0.260493 0.698825 0.282237 -0.108589
C22   C     C_R   0.703398 0.102677 0.897644 0.547612
C23   C     C_3   0.698898 0.674138 0.812893 0.055750
C24   C     C_R   0.723393 0.687947 0.888599 0.540694
C25   C     C_R   0.122700 0.704363 0.908716 0.543400
C26   C     C_R   0.675199 0.105188 0.105176 0.553315
C27   C     C_R   0.691432 0.687365 0.094408 0.549508
C28   C     C_R   0.223260 0.649584 0.400981 0.554669
C29   C     C_R   0.099948 0.704354 0.110682 0.534873
C30   C     C_R   0.614949 0.587375 0.387325 0.570259
C31   C     C_R   0.621847 0.222716 0.397355 0.559191
C32   C     C_3   0.563991 0.807157 0.785124 -0.233114
C33   C     C_3   0.544192 0.789897 0.705245 -0.240243
C34   C     C_3   0.668245 0.647616 0.677200 0.053658
C35   C     C_3   0.828440 0.658096 0.768809 -0.220601
C36   C     C_2   0.229268 0.491495 0.194114 0.558956
C37   C     C_3   0.808170 0.646696 0.688339 -0.245975
C38   C     C_3   0.669161 0.525357 0.721250 -0.216012
C39   C     C_2   0.674952 0.155260 0.670677 -0.121256
C40   C     C_2   0.690005 0.167669 0.827729 -0.121412
C41   C     C_2   0.801935 0.119828 0.782890 -0.176420
Cr1   Cr    Cr6+3 0.393010 0.398050 0.501480 1.028639
Cr2   Cr    Cr6+3 0.398820 0.707980 0.501630 1.012508
Cr3   Cr    Cr6+3 0.708140 0.393940 0.496850 1.015562
Cr4   Cr    Cr6+3 0.937950 0.938450 0.008940 1.022642
Cr5   Cr    Cr6+3 0.626180 0.937030 0.994750 1.022648
Cr6   Cr    Cr6+3 0.937790 0.625760 0.001410 1.053567
H1    H     H_    0.573272 0.903312 0.792280 0.143761
H2    H     H_    0.328791 0.418821 0.708277 0.149133
H3    H     H_    0.260767 0.715115 0.826478 0.098636
H4    H     H_    0.469302 0.823272 0.816160 0.119892
H5    H     H_    0.189255 0.743172 0.711984 0.111430
H6    H     H_    0.784479 0.441867 0.161774 0.163826
H7    H     H_    0.707970 0.402976 0.282007 0.135889
H8    H     H_    0.533794 0.744522 0.180533 0.092239
H9    H     H_    0.587339 0.724032 0.296184 0.098652
H10   H     H_    0.594046 0.988654 0.201618 0.149136
H11   H     H_    0.513614 0.088367 0.326479 0.153659
H12   H     H_    0.759612 0.422204 0.703831 0.142757
H13   H     H_    0.676174 0.222481 0.199589 0.100295
H14   H     H_    0.771220 0.129416 0.308448 0.102141
H15   H     H_    0.229071 0.808946 0.183201 0.140058
H16   H     H_    0.441838 0.792734 0.698499 0.136738
H17   H     H_    0.337350 0.725209 0.301947 0.143708
H18   H     H_    0.103507 0.642960 0.309489 0.108472
H19   H     H_    0.539465 0.879451 0.674384 0.121667
H20   H     H_    0.843160 0.750366 0.778653 0.123180
H21   H     H_    0.806398 0.736723 0.659364 0.122251
H22   H     H_    0.776346 0.446964 0.822474 0.137702
H23   H     H_    0.926726 0.561855 0.785676 0.137708
H24   H     H_    0.588011 0.556518 0.831025 0.115007
H25   H     H_    0.570853 0.521467 0.711882 0.113612
H26   H     H_    0.356733 0.319202 0.251287 0.344170
H27   H     H_    0.899102 0.547644 0.666667 0.141761
H28   H     H_    0.908350 0.052366 0.802113 0.153177
H29   H     H_    0.856518 0.176243 0.678624 0.148588
H30   H     H_    0.584091 0.235979 0.807979 0.107211
H31   H     H_    0.607499 0.121974 0.697411 0.102566
H32   H     H_    0.189771 0.475649 0.826773 0.149286
O1    O     O_R   0.507110 0.256280 0.580300 -0.527899
O2    O     O_R   0.837080 0.593860 0.915300 -0.529971
O3    O     O_R   0.064770 0.636080 0.932550 -0.501678
O4    O     O_R   0.280830 0.527190 0.577940 -0.487554
O5    O     O_R   0.068250 0.829200 0.092940 -0.530298
O6    O     O_R   0.799650 0.057040 0.080330 -0.497894
O7    O     O_R   0.586130 0.079760 0.077080 -0.500878
O8    O     O_R   0.627700 0.809630 0.066580 -0.504584
O9    O     O_R   0.816140 0.597180 0.075920 -0.488334
O10   O     O_R   0.045360 0.639170 0.081440 -0.454825
O11   O     O_3   0.833980 0.833750 0.001700 -0.254876
O12   O     O_R   0.524640 0.695370 0.425100 -0.502318
O13   O     O_R   0.261360 0.738990 0.584270 -0.516012
O14   O     O_R   0.532590 0.694780 0.574370 -0.515660
O15   O     O_R   0.744470 0.503750 0.577000 -0.523392
O16   O     O_R   0.698520 0.277230 0.571620 -0.500516
O17   O     O_R   0.498530 0.256920 0.419280 -0.500623
O18   O     O_R   0.272880 0.527780 0.428680 -0.475018
O19   O     O_R   0.252780 0.739630 0.423250 -0.523853
O20   O     O_2   0.155429 0.441618 0.177331 -0.499326
O21   O     O_R   0.348604 0.411701 0.235659 -0.699703
O22   O     O_R   0.735890 0.504390 0.415980 -0.491177
O23   O     O_R   0.690560 0.277820 0.422350 -0.518818
O24   O     O_3   0.499990 0.499990 0.499980 -0.287574
O25   O     O_R   0.089190 0.825870 0.932320 -0.521223
O26   O     O_R   0.819070 0.053960 0.931440 -0.494285
O27   O     O_R   0.607070 0.076440 0.916460 -0.518540
O28   O     O_R   0.647110 0.806550 0.917690 -0.511680

loop_
_geom_bond_atom_site_label_1
_geom_bond_atom_site_label_2
_ccdc_geom_bond_type
C28   O18   A    
H26   O21   S    
C12   H22   S    
Cr1   O1    S    
C18   C21   D    
C15   H10   S    
C19   C20   D    
Cr2   O19   S    
C37   H27   S    
Cr1   O24   S    
C8    H9    S    
C29   O10   A    
C18   H18   S    
C12   C23   S    
Cr1   O17   S    
C35   C37   S    
C3    C7    D    
C19   C36   S    
C8    C11   D    
C5    C6    D    
C3    H5    S    
C2    C41   S    
C31   O17   A    
C34   C37   S    
C37   H21   S    
Cr6   O3    S    
C10   H6    S    
C21   H17   S    
C2    C39   D    
C35   H23   S    
C23   C24   S    
C9    H8    S    
Cr6   O9    S    
C9    C10   D    
C33   H16   S    
C17   H11   S    
C20   H15   S    
C32   H1    S    
Cr3   O24   S    
Cr4   O26   S    
C33   H19   S    
C4    C34   S    
C38   H25   S    
C39   H31   S    
C18   C28   S    
C7    H2    S    
C29   O5    A    
Cr1   O18   S    
Cr3   O23   S    
C22   O27   A    
Cr2   O12   S    
C4    O14   A    
C1    C3    S    
Cr4   O6    S    
C24   O2    A    
C31   O23   A    
C32   H4    S    
Cr4   O25   S    
C41   H28   S    
C14   C15   D    
C35   H20   S    
C26   O7    A    
C22   C40   S    
Cr5   O28   S    
C33   C34   S    
C36   O21   S    
C24   O28   A    
C14   C26   S    
C27   O8    A    
Cr4   O11   S    
C11   H7    S    
C5    C25   S    
C40   C41   D    
C12   H24   S    
Cr6   O10   S    
C1    O13   A    
C23   C35   S    
C25   O3    A    
Cr6   O11   S    
C4    O15   A    
C5    H3    S    
Cr4   O5    S    
C19   C29   S    
C2    H29   S    
C9    C27   S    
Cr5   O8    S    
C28   O19   A    
C15   C17   S    
C16   O16   A    
C34   C38   S    
C13   C31   S    
Cr1   O4    S    
C30   O12   A    
Cr3   O22   S    
C25   O25   A    
C6    C7    S    
Cr5   O11   S    
C1    O4    A    
C22   O26   A    
C14   H13   S    
Cr2   O13   S    
C13   C17   D    
C8    C30   S    
C32   C33   S    
Cr3   O16   S    
C23   C32   S    
C6    H32   S    
C26   O6    A    
Cr5   O27   S    
C30   O22   A    
Cr2   O14   S    
C36   O20   D    
Cr6   O2    S    
C12   C38   S    
C27   O9    A    
Cr2   O24   S    
Cr3   O15   S    
C10   C11   S    
C16   C39   S    
C38   H12   S    
C13   H14   S    
C20   C21   S    
C40   H30   S    
C16   O1    A    
Cr5   O7    S    
