data_mof_unit_12133.cif
_audit_creation_date              2012-12-10T19:41:40-0500
_audit_creation_method            fapswitch 2.2
_symmetry_space_group_name_H-M    P1
_symmetry_Int_Tables_number       1
_space_group_crystal_system       triclinic
_cell_length_a                    10.889744
_cell_length_b                    15.897344
_cell_length_c                    17.069135
_cell_angle_alpha                 97.907853
_cell_angle_beta                  92.351594
_cell_angle_gamma                 92.05537
_cell_volume                      2921.83615118

loop_
_atom_site_label
_atom_site_type_symbol
_atom_type_description
_atom_site_fract_x
_atom_site_fract_y
_atom_site_fract_z
_atom_type_partial_charge
C1    C     C_R   0.499330 0.488765 0.348611 0.818568
C2    C     C_R   0.500674 0.511235 0.651390 0.818604
C3    C     C_R   0.871368 0.497278 0.496866 -0.096185
C4    C     C_R   0.128632 0.502722 0.503134 -0.096182
C5    C     C_R   0.934840 0.420652 0.485343 -0.015787
C6    C     C_R   0.065160 0.579349 0.514656 -0.015785
C7    C     C_R   0.500152 0.482219 0.262491 -0.022378
C8    C     C_R   0.499858 0.517781 0.737511 -0.022470
C9    C     C_R   0.444749 0.544436 0.224056 -0.224144
C10   C     C_R   0.555178 0.455527 0.775938 -0.224156
C11   C     C_R   0.449703 0.541157 0.142435 -0.145028
C12   C     C_R   0.550228 0.458808 0.857560 -0.145034
C13   C     C_R   0.511496 0.475459 0.097974 0.361497
C14   C     C_R   0.488525 0.524547 0.902030 0.361503
C15   C     C_R   0.566100 0.413332 0.136776 -0.161376
C16   C     C_R   0.434002 0.586711 0.863235 -0.161370
C17   C     C_R   0.561027 0.416847 0.218606 -0.133368
C18   C     C_R   0.439075 0.583195 0.781405 -0.133368
C19   C     C_R   0.453704 0.748904 0.452132 -0.022035
C20   C     C_R   0.546272 0.251099 0.547880 -0.022045
C21   C     C_R   0.457397 0.838319 0.452822 -0.277668
C22   C     C_R   0.542567 0.161686 0.547199 -0.277682
C23   C     C_R   0.262340 0.501022 0.501869 0.812131
C24   C     C_R   0.737660 0.498978 0.498130 0.812152
C25   C     C_R   0.524302 0.891719 0.514091 0.289338
C26   C     C_R   0.475667 0.108284 0.485930 0.289382
C27   C     C_R   0.586289 0.853449 0.570778 -0.339036
C28   C     C_R   0.413699 0.146550 0.429233 -0.339143
C29   C     C_R   0.583457 0.765025 0.569041 0.566437
C30   C     C_R   0.416553 0.234973 0.430957 0.566442
C31   C     C_R   0.227593 0.778582 0.625486 0.032574
C32   C     C_R   0.772393 0.221439 0.374491 0.032600
C33   C     C_R   0.180491 0.694194 0.607175 -0.067387
C34   C     C_R   0.819518 0.305819 0.392809 -0.067318
C35   C     C_R   0.125441 0.665264 0.531933 0.103280
C36   C     C_R   0.874555 0.334739 0.468055 0.103276
C37   C     C_R   0.116899 0.721198 0.475328 -0.156065
C38   C     C_R   0.883068 0.278801 0.524657 -0.156054
C39   C     C_R   0.163432 0.804868 0.493381 -0.127561
C40   C     C_R   0.836512 0.195138 0.506598 -0.127551
C41   C     C_R   0.218767 0.833460 0.567996 -0.190244
C42   C     C_R   0.781183 0.166557 0.431979 -0.190269
C43   C     C_R   0.937652 0.575326 0.510576 -0.179260
C44   C     C_R   0.062348 0.424674 0.489426 -0.179229
Cu1   Cu    Cu3+1 0.493970 0.415220 0.496180 1.011454
Cu2   Cu    Cu3+1 0.506030 0.584780 0.503820 1.011436
H1    H     H_    0.254199 0.898668 0.580977 0.140619
H2    H     H_    0.745732 0.101355 0.418993 0.140615
H3    H     H_    0.607344 0.370103 0.247999 0.210506
H4    H     H_    0.392828 0.629973 0.752020 0.210589
H5    H     H_    0.599915 0.290830 0.594436 0.152758
H6    H     H_    0.400053 0.709174 0.405579 0.152766
H7    H     H_    0.592706 0.135162 0.593424 0.166696
H8    H     H_    0.407243 0.864845 0.406605 0.166697
H9    H     H_    0.635816 0.894575 0.618439 0.212352
H10   H     H_    0.364177 0.105422 0.381573 0.212337
H11   H     H_    0.184911 0.651344 0.651308 0.138988
H12   H     H_    0.815121 0.348672 0.348678 0.138970
H13   H     H_    0.072918 0.700139 0.417541 0.133181
H14   H     H_    0.927039 0.299853 0.582448 0.133179
H15   H     H_    0.156534 0.847741 0.449474 0.145598
H16   H     H_    0.843385 0.152263 0.550502 0.145604
H17   H     H_    0.890180 0.634451 0.519714 0.198591
H18   H     H_    0.109819 0.365549 0.480288 0.198587
H19   H     H_    0.602306 0.404301 0.742755 0.149831
H20   H     H_    0.397552 0.595631 0.257234 0.149815
H21   H     H_    0.594047 0.409718 0.885356 0.160288
H22   H     H_    0.405814 0.590215 0.114631 0.160285
H23   H     H_    0.614351 0.362782 0.103533 0.169586
H24   H     H_    0.385819 0.637292 0.896485 0.169587
N1    N     N_2   0.521936 0.469783 0.014849 -0.253634
N2    N     N_2   0.478090 0.530226 0.985156 -0.253632
N3    N     N_R   0.515100 0.712130 0.509560 -0.231413
N4    N     N_R   0.484900 0.287870 0.490440 -0.231393
N5    N     N_2   0.533681 0.983051 0.523173 -0.225224
N6    N     N_2   0.466283 0.016952 0.476852 -0.225232
O1    O     O_R   0.494360 0.420530 0.382500 -0.511113
O2    O     O_R   0.505640 0.579470 0.617500 -0.511174
O3    O     O_R   0.504550 0.563720 0.388950 -0.613417
O4    O     O_R   0.495450 0.436280 0.611050 -0.613414
O5    O     O_R   0.314550 0.428410 0.496780 -0.546037
O6    O     O_R   0.685450 0.571590 0.503220 -0.546009
O7    O     O_R   0.324740 0.571600 0.503230 -0.596881
O8    O     O_R   0.675260 0.428400 0.496770 -0.596881
S1    S     S_3+6 0.663364 0.733506 0.653103 0.005116
O9    O     O_2   0.573376 0.729473 0.716929 -0.305196
O10   O     O_2   0.725388 0.650713 0.638039 -0.289324
O11   O     O_3   0.773324 0.808217 0.687286 -0.561066
H25   H     H_    0.804241 0.792281 0.738394 0.385252
S2    S     S_3+6 0.336708 0.266491 0.346875 0.005139
O12   O     O_2   0.274577 0.349242 0.361954 -0.289154
O13   O     O_2   0.426779 0.270624 0.283113 -0.305378
O14   O     O_3   0.226868 0.191735 0.312586 -0.561063
H26   H     H_    0.196294 0.207515 0.261343 0.385253
C45   C     C_2   0.283649 0.811270 0.704576 0.395875
H27   H     H_    0.328266 0.874229 0.715176 0.078950
O15   O     O_2   0.279246 0.769177 0.759112 -0.548704
C46   C     C_2   0.716348 0.188762 0.295397 0.395997
H28   H     H_    0.671685 0.125821 0.284796 0.078933
O16   O     O_2   0.720814 0.230844 0.240860 -0.548692

loop_
_geom_bond_atom_site_label_1
_geom_bond_atom_site_label_2
_ccdc_geom_bond_type
O14   H26   S    
C27   C29   A    
C1    O1    A    
C45   H27   S    
C30   S2    S    
C28   H10   S    
C43   H17   S    
C39   C41   A    
Cu1   Cu2   S    
C44   H18   S    
C3    C43   A    
C23   O7    A    
C19   C21   A    
C20   H5    S    
C21   H8    S    
C30   N4    A    
C27   H9    S    
C10   H19   S    
C29   N3    A    
C5    C36   S    
C40   H16   S    
C6    C35   S    
C7    C9    A    
C24   O6    A    
C9    H20   S    
Cu2   O6    S    
C19   H6    S    
C7    C17   A    
C26   N6    S    
C31   C33   A    
C23   O5    A    
C29   S1    S    
C40   C42   A    
C3    C24   S    
C39   H15   S    
C22   H7    S    
S1    O10   D    
C15   H23   S    
C12   H21   S    
Cu1   O5    S    
C19   N3    A    
C16   H24   S    
C4    C6    A    
C17   H3    S    
Cu2   O2    S    
C4    C23   S    
C4    C44   A    
S1    O9    D    
C8    C18   A    
Cu1   N4    S    
C25   N5    S    
C32   C34   A    
N5    N6    D    
C2    O2    A    
S2    O13   D    
C41   H1    S    
C20   N4    A    
C42   H2    S    
C9    C11   A    
C37   H13   S    
C10   C12   A    
C38   H14   S    
C16   C18   A    
C5    C44   A    
C12   C14   A    
C46   O16   D    
C6    C43   A    
C13   C15   A    
C1    O3    A    
C14   C16   A    
Cu1   O8    S    
C11   H22   S    
C18   H4    S    
S2    O14   S    
S1    O11   S    
C15   C17   A    
C21   C25   A    
C33   H11   S    
C31   C41   A    
C35   C37   A    
C1    C7    S    
C14   N2    S    
C2    C8    S    
C20   C22   A    
C3    C5    A    
C45   O15   D    
C25   C27   A    
C13   N1    S    
C26   C28   A    
C36   C38   A    
C24   O8    A    
N1    N2    D    
C37   C39   A    
C38   C40   A    
C11   C13   A    
S2    O12   D    
Cu2   O3    S    
C31   C45   S    
C28   C30   A    
C33   C35   A    
C32   C46   S    
Cu1   O4    S    
C34   C36   A    
C2    O4    A    
Cu2   O7    S    
O11   H25   S    
C8    C10   A    
C46   H28   S    
C22   C26   A    
C34   H12   S    
C32   C42   A    
Cu1   O1    S    
Cu2   N3    S    
