data_mof_unit_12263.cif
_audit_creation_date              2012-10-26T18:28:25-0400
_audit_creation_method            fapswitch 2.2
_symmetry_space_group_name_H-M    P1
_symmetry_Int_Tables_number       1
_space_group_crystal_system       triclinic
_cell_length_a                    27.706918
_cell_length_b                    10.94061
_cell_length_c                    9.82604
_cell_angle_alpha                 110.636587
_cell_angle_beta                  98.548255
_cell_angle_gamma                 90.245917
_cell_volume                      2751.31162817

loop_
_atom_site_label
_atom_site_type_symbol
_atom_type_description
_atom_site_fract_x
_atom_site_fract_y
_atom_site_fract_z
_atom_type_partial_charge
C1    C     C_R   0.494527 0.253924 0.442025 0.585137
C2    C     C_R   0.873655 0.376594 0.496922 0.007216
C3    C     C_R   0.354579 0.506581 0.506598 0.003336
C4    C     C_R   0.645463 0.493405 0.493371 -0.001618
C5    C     C_R   0.976579 0.393255 0.519392 0.062883
C6    C     C_R   0.023477 0.606814 0.480469 0.062864
C7    C     C_R   0.971622 0.585154 0.444227 0.066514
C8    C     C_R   0.028429 0.414970 0.555731 0.066560
C9    C     C_R   0.948497 0.485068 0.476305 -0.086136
C10   C     C_R   0.051555 0.515013 0.523595 -0.086131
C11   C     C_R   0.951975 0.275659 0.508791 0.315076
C12   C     C_R   0.501343 0.746097 0.558145 0.585161
C13   C     C_R   0.048097 0.724354 0.490955 0.315086
C14   C     C_R   0.901264 0.272309 0.513092 0.246557
C15   C     C_R   0.098798 0.727587 0.486484 0.246555
C16   C     C_R   0.407486 0.500418 0.501233 0.619070
C17   C     C_R   0.592526 0.499581 0.498765 0.609805
C18   C     C_R   0.057641 0.347637 0.634794 0.287690
C19   C     C_R   0.942399 0.652588 0.365310 0.287685
C20   C     C_2   0.487752 0.114388 0.413705 -0.025987
C21   C     C_2   0.497767 0.885626 0.586763 -0.032695
C22   C     C_2   0.474610 0.070847 0.515902 0.201406
C23   C     C_R   0.103159 0.525135 0.537597 -0.134420
C24   C     C_2   0.472974 0.929046 0.485843 0.198068
C25   C     C_2   0.503476 0.510971 0.080925 0.121484
C26   C     C_2   0.495850 0.490955 0.919580 0.118028
C27   C     C_R   0.182048 0.438587 0.581625 0.512673
C28   C     C_R   0.818013 0.561628 0.418596 0.512521
C29   C     C_R   0.176829 0.616135 0.493646 0.496599
C30   C     C_R   0.823209 0.383669 0.505901 0.496697
C31   C     C_R   0.288080 0.609817 0.634289 0.232330
C32   C     C_R   0.711941 0.390955 0.364928 0.231813
C33   C     C_R   0.338483 0.605130 0.625274 0.208104
C34   C     C_R   0.896893 0.474919 0.462294 -0.134387
C35   C     C_R   0.661531 0.395657 0.373891 0.205827
C36   C     C_R   0.320533 0.415000 0.395782 0.161325
C37   C     C_R   0.679577 0.584169 0.604940 0.159460
C38   C     C_R   0.269988 0.423643 0.402732 0.280892
C39   C     C_R   0.730118 0.575491 0.597907 0.280372
C40   C     C_R   0.254351 0.519815 0.522799 0.205724
C41   C     C_R   0.745706 0.480150 0.477111 0.205882
C42   C     C_R   0.131507 0.437343 0.586669 0.043983
C43   C     C_R   0.868547 0.562849 0.413464 0.044046
C44   C     C_R   0.109270 0.357519 0.648290 0.269794
C45   C     C_R   0.890775 0.642800 0.351982 0.269859
C46   C     C_R   0.126394 0.623312 0.502735 0.007159
Cl1   Cl    Cl    0.341532 0.283878 0.255878 -0.448408
Cl2   Cl    Cl    0.658712 0.714503 0.745986 -0.444070
Cl3   Cl    Cl    0.566858 0.671709 0.972012 -0.385142
Cl4   Cl    Cl    0.434342 0.325006 0.027222 -0.388299
Cl5   Cl    Cl    0.734001 0.276724 0.212765 -0.444379
Cl6   Cl    Cl    0.266014 0.724932 0.785798 -0.445092
Cl7   Cl    Cl    0.873973 0.133676 0.532818 -0.395392
Cl8   Cl    Cl    0.126109 0.866122 0.466604 -0.395231
Cu1   Cu    Cu3+1 0.508480 0.521810 0.644910 1.187289
Cu2   Cu    Cu3+1 0.491520 0.478190 0.355090 1.191287
H1    H     H_    0.515936 0.954301 0.692040 0.114115
H2    H     H_    0.357168 0.764186 0.799493 0.392988
H3    H     H_    0.954615 0.084590 0.437125 0.376680
H4    H     H_    0.045517 0.915442 0.562557 0.376743
H5    H     H_    0.053526 0.204756 0.706916 0.363791
H6    H     H_    0.946527 0.795574 0.293370 0.363793
H7    H     H_    0.428858 0.892996 0.301114 0.349171
H8    H     H_    0.451661 0.106692 0.702878 0.356157
H9    H     H_    0.493894 0.045793 0.307558 0.110337
H10   H     H_    0.467713 0.419883 0.845143 0.190605
H11   H     H_    0.530954 0.583903 0.155870 0.165580
H12   H     H_    0.248958 0.285911 0.210579 0.398774
H13   H     H_    0.751243 0.711584 0.791182 0.398789
H14   H     H_    0.123632 0.298835 0.814151 0.350661
H15   H     H_    0.876368 0.701807 0.186372 0.350672
H16   H     H_    0.642776 0.238067 0.197909 0.394709
N1    N     N_R   0.203044 0.524534 0.532081 -0.370861
N2    N     N_R   0.797010 0.475460 0.467818 -0.370679
N3    N     N_2   0.478780 0.445430 0.137360 -0.070909
N4    N     N_2   0.521220 0.554570 0.862640 -0.078508
O1    O     O_R   0.504520 0.332330 0.577400 -0.475545
O2    O     O_2   0.789952 0.647175 0.377638 -0.329357
O3    O     O_2   0.800252 0.301982 0.554388 -0.345706
O4    O     O_2   0.199756 0.697525 0.444699 -0.345118
O5    O     O_3   0.234468 0.339349 0.296828 -0.608701
O6    O     O_3   0.765685 0.659010 0.704446 -0.608931
O7    O     O_3   0.138576 0.295847 0.727630 -0.585920
O8    O     O_3   0.861457 0.704681 0.272912 -0.585860
O9    O     O_3   0.626872 0.306473 0.269670 -0.640350
O10   O     O_3   0.373112 0.695046 0.728683 -0.642527
O11   O     O_3   0.977495 0.163064 0.479454 -0.623238
O12   O     O_R   0.495480 0.667670 0.422600 -0.474734
O13   O     O_3   0.022613 0.837014 0.520396 -0.623277
O14   O     O_3   0.035592 0.283657 0.710180 -0.627885
O15   O     O_3   0.964426 0.716576 0.289893 -0.627903
O16   O     O_3   0.447690 0.842243 0.354562 -0.645339
O17   O     O_3   0.464262 0.157528 0.648311 -0.659260
O18   O     O_R   0.490210 0.295500 0.332650 -0.456137
O19   O     O_R   0.509790 0.704500 0.667350 -0.455365
O20   O     O_R   0.437420 0.518430 0.622370 -0.483174
O21   O     O_R   0.562580 0.481570 0.377630 -0.487297
O22   O     O_R   0.423110 0.481600 0.377610 -0.428856
O23   O     O_R   0.576890 0.518400 0.622390 -0.435973
O24   O     O_2   0.210121 0.353268 0.622984 -0.328585

loop_
_geom_bond_atom_site_label_1
_geom_bond_atom_site_label_2
_ccdc_geom_bond_type
Cu1   Cu2   S    
C1    O1    A    
C25   H11   S    
Cu2   O22   S    
C31   Cl6   S    
C44   O7    S    
C28   N2    A    
H16   O9    S    
C39   C41   A    
H4    O13   S    
C40   N1    S    
C21   H1    S    
C23   C42   A    
H12   O5    S    
H8    O17   S    
C5    C11   A    
C30   N2    A    
C11   C14   A    
Cu2   O12   S    
C29   N1    A    
C3    C33   A    
C24   O16   S    
C4    C17   S    
C31   C40   A    
C36   Cl1   S    
H13   O6    S    
C41   N2    S    
C11   O11   S    
C1    O18   A    
H7    O16   S    
C26   N4    D    
C32   C41   A    
C31   C33   A    
C12   O19   A    
C28   O2    S    
C2    C34   A    
C4    C35   A    
C23   C46   A    
C42   C44   A    
Cu2   O21   S    
H2    O10   S    
C27   O24   S    
C16   O20   A    
C12   O12   A    
C26   H10   S    
C32   C35   A    
C20   H9    S    
Cu1   O19   S    
C25   C26   S    
C12   C21   S    
C8    C18   A    
C25   N3    D    
C18   O14   S    
Cu2   O18   S    
C33   O10   S    
C15   Cl8   S    
C32   Cl5   S    
C5    C9    A    
C18   C44   A    
C17   O23   A    
H6    O15   S    
Cl3   N4    S    
C37   Cl2   S    
H14   O7    S    
C43   C45   A    
C30   O3    S    
C20   C22   D    
C7    C19   A    
C13   C15   A    
C38   O5    S    
C9    C34   A    
C22   O17   S    
C22   C24   S    
C45   O8    S    
Cu1   N4    S    
H5    O14   S    
H15   O8    S    
C7    C9    A    
C1    C20   S    
C13   O13   S    
C34   C43   A    
C39   O6    S    
Cu1   O20   S    
C6    C10   A    
C5    C8    A    
C19   C45   A    
C6    C7    A    
C10   C23   A    
C28   C43   A    
C29   C46   A    
C2    C30   A    
C36   C38   A    
C37   C39   A    
Cl4   N3    S    
C6    C13   A    
C38   C40   A    
C35   O9    S    
C27   C42   A    
C16   O22   A    
C29   O4    S    
C3    C36   A    
Cu1   O1    S    
C2    C14   A    
H3    O11   S    
C19   O15   S    
C14   Cl7   S    
C4    C37   A    
C8    C10   A    
C21   C24   D    
Cu1   O23   S    
Cu2   N3    S    
C15   C46   A    
C27   N1    A    
C17   O21   A    
C3    C16   S    
