data_mof_unit_18403.cif
_audit_creation_date              2012-12-10T17:07:13-0500
_audit_creation_method            fapswitch 2.2
_symmetry_space_group_name_H-M    P1
_symmetry_Int_Tables_number       1
_space_group_crystal_system       triclinic
_cell_length_a                    17.325379
_cell_length_b                    11.120331
_cell_length_c                    9.844764
_cell_angle_alpha                 111.179114
_cell_angle_beta                  94.263876
_cell_angle_gamma                 91.959875
_cell_volume                      1759.91559921

loop_
_atom_site_label
_atom_site_type_symbol
_atom_type_description
_atom_site_fract_x
_atom_site_fract_y
_atom_site_fract_z
_atom_type_partial_charge
C1    C     C_R   0.495533 0.254767 0.441695 0.834617
C2    C     C_R   0.504851 0.744822 0.558243 0.828439
C3    C     C_2   0.485503 0.117320 0.413086 -0.410150
C4    C     C_2   0.517645 0.880934 0.586499 -0.404187
C5    C     C_2   0.512483 0.066839 0.511599 0.263858
C6    C     C_2   0.482721 0.936547 0.499532 0.251671
C7    C     C_2   0.502301 0.520712 0.086997 -0.049993
C8    C     C_2   0.484051 0.521345 0.933556 -0.052241
C9    C     C_R   0.351980 0.507760 0.521272 0.805077
C10   C     C_R   0.648243 0.493006 0.478924 0.820372
C11   C     C_R   0.268506 0.520216 0.536316 -0.102053
C12   C     C_R   0.731574 0.474759 0.463623 -0.110073
C13   C     C_R   0.218016 0.477843 0.408123 -0.272385
C14   C     C_R   0.779117 0.482263 0.588598 -0.269086
C15   C     C_R   0.138926 0.482939 0.414563 -0.216865
C16   C     C_R   0.857354 0.464072 0.581890 -0.228853
C17   C     C_R   0.107504 0.525047 0.549674 0.113751
C18   C     C_R   0.890533 0.437199 0.449931 0.108805
C19   C     C_R   0.156991 0.572771 0.680769 0.218615
C20   C     C_R   0.843905 0.422761 0.320709 0.233802
C21   C     C_R   0.238492 0.574689 0.674369 0.193385
C22   C     C_R   0.764042 0.444909 0.327952 0.185494
C23   C     C_2   0.022646 0.521167 0.553865 -0.193147
C24   C     C_2   0.975055 0.432146 0.449419 -0.198442
Cu1   Cu    Cu3+1 0.513640 0.521550 0.643210 0.963524
Cu2   Cu    Cu3+1 0.486360 0.478450 0.356790 0.946517
H1    H     H_    0.239542 0.439845 0.301186 0.181794
H2    H     H_    0.756085 0.503102 0.693464 0.191800
H3    H     H_    0.998200 0.358917 0.358654 0.170587
H4    H     H_    0.998446 0.593726 0.644263 0.181472
H5    H     H_    0.892350 0.471772 0.680949 0.160218
H6    H     H_    0.102455 0.452732 0.312380 0.159214
H7    H     H_    0.564709 0.930441 0.668748 0.161651
H8    H     H_    0.447495 0.061054 0.317139 0.154983
H9    H     H_    0.425165 0.495428 0.883102 0.158230
H10   H     H_    0.548223 0.588244 0.157007 0.157063
N1    N     N_2   0.465840 0.446060 0.141630 -0.066747
N2    N     N_2   0.534160 0.553940 0.858370 -0.062798
O1    O     O_R   0.507280 0.332200 0.576490 -0.555407
O2    O     O_R   0.492720 0.667800 0.423510 -0.565164
O3    O     O_R   0.484240 0.295800 0.334620 -0.590554
O4    O     O_R   0.515760 0.704200 0.665380 -0.578979
O5    O     O_R   0.399260 0.520290 0.634950 -0.559394
O6    O     O_R   0.600740 0.479710 0.365050 -0.555789
O7    O     O_R   0.376220 0.483890 0.393080 -0.586692
O8    O     O_R   0.623780 0.516110 0.606920 -0.565951
N3    N     N_2   0.716973 0.439713 0.200821 -0.420492
H11   H     H_    0.737425 0.494465 0.144540 0.228810
C25   C     C_3   0.680470 0.314476 0.109712 -0.667637
H12   H     H_    0.706351 0.278586 0.003568 0.206202
H13   H     H_    0.617770 0.324220 0.087719 0.245204
H14   H     H_    0.686588 0.242318 0.163368 0.221520
N4    N     N_2   0.289924 0.634478 0.803902 -0.418983
H15   H     H_    0.271230 0.630484 0.899083 0.245825
C26   C     C_3   0.323384 0.761254 0.822168 -0.649270
H16   H     H_    0.277853 0.831672 0.839656 0.205314
H17   H     H_    0.352589 0.758564 0.724617 0.224320
H18   H     H_    0.367324 0.794869 0.918226 0.216217
N5    N     N_2   0.123876 0.612274 0.817203 -0.445701
H19   H     H_    0.147136 0.574628 0.891506 0.245379
C27   C     C_3   0.110156 0.748034 0.880917 -0.720677
H20   H     H_    0.164487 0.804822 0.938673 0.228809
H21   H     H_    0.066739 0.761609 0.961748 0.231591
H22   H     H_    0.087186 0.784796 0.795854 0.230717
N6    N     N_2   0.878422 0.390315 0.185921 -0.435611
H23   H     H_    0.858307 0.436740 0.118129 0.249600
C28   C     C_3   0.884224 0.253211 0.108844 -0.712128
H24   H     H_    0.825813 0.203695 0.068718 0.231700
H25   H     H_    0.913745 0.208515 0.181003 0.224718
H26   H     H_    0.918370 0.238188 0.013632 0.227595
N7    N     N_2   0.412895 0.877596 0.408404 -0.430763
H27   H     H_    0.375583 0.829046 0.451018 0.247099
C29   C     C_3   0.419140 0.813677 0.252943 -0.656376
H28   H     H_    0.401178 0.709394 0.218168 0.246868
H29   H     H_    0.479241 0.823922 0.224043 0.217039
H30   H     H_    0.379237 0.855979 0.191553 0.208748
N8    N     N_2   0.571967 0.135632 0.625345 -0.432034
H31   H     H_    0.613121 0.192618 0.601670 0.258501
C30   C     C_3   0.549739 0.184737 0.773736 -0.673418
H32   H     H_    0.558554 0.291459 0.819944 0.242338
H33   H     H_    0.586831 0.145369 0.842288 0.210716
H34   H     H_    0.488049 0.156974 0.778768 0.222429
N9    N     N_2   0.611548 0.571287 0.911193 -0.307997
H35   H     H_    0.629767 0.517364 0.972125 0.228662
C31   C     C_3   0.640564 0.704971 0.969774 -0.614572
H36   H     H_    0.703792 0.711173 0.001999 0.186777
H37   H     H_    0.610633 0.759219 0.067477 0.191126
H38   H     H_    0.631076 0.749221 0.885766 0.248226
N10   N     N_2   0.405526 0.361933 0.051617 -0.338112
H39   H     H_    0.411579 0.329637 0.941119 0.221605
C32   C     C_3   0.381515 0.252918 0.088620 -0.544201
H40   H     H_    0.333333 0.195361 0.007974 0.159460
H41   H     H_    0.358368 0.283614 0.196410 0.252855
H42   H     H_    0.429970 0.188683 0.081387 0.212010

loop_
_geom_bond_atom_site_label_1
_geom_bond_atom_site_label_2
_ccdc_geom_bond_type
C26   H16   S    
C9    O7    A    
N2    N9    S    
C7    H10   S    
Cu1   O5    S    
C25   H13   S    
Cu2   O6    S    
C7    C8    S    
N3    C25   S    
N8    H31   S    
C16   H5    S    
C17   C23   S    
C18   C24   S    
C19   C21   A    
C5    C6    S    
C12   C22   A    
C29   H28   S    
C27   H21   S    
C24   H3    S    
Cu2   O7    S    
N9    H35   S    
N6    C28   S    
C10   O8    A    
C23   C24   D    
N10   C32   S    
N8    C30   S    
C22   N3    S    
N5    H19   S    
C29   H29   S    
C8    N2    D    
N4    C26   S    
C6    N7    S    
N5    C27   S    
C9    O5    A    
C31   H37   S    
C10   O6    A    
C28   H24   S    
C23   H4    S    
C20   N6    S    
C15   H6    S    
C4    C6    D    
C32   H40   S    
C30   H33   S    
C3    H8    S    
C19   N5    S    
Cu1   Cu2   S    
C31   H36   S    
C11   C21   A    
C1    C3    S    
C8    H9    S    
C27   H22   S    
C2    C4    S    
Cu1   N2    S    
C32   H41   S    
N3    H11   S    
C25   H14   S    
C7    N1    D    
C9    C11   S    
C10   C12   S    
C1    O3    A    
N9    C31   S    
C12   C14   A    
C25   H12   S    
C13   C15   A    
C29   H30   S    
C14   C16   A    
C5    N8    S    
N7    C29   S    
C31   H38   S    
C28   H25   S    
C15   C17   A    
C4    H7    S    
C20   C22   A    
C3    C5    D    
Cu1   O4    S    
C30   H34   S    
Cu2   N1    S    
N4    H15   S    
N1    N10   S    
C28   H26   S    
C26   H17   S    
N7    H27   S    
Cu1   O1    S    
C32   H42   S    
C21   N4    S    
C11   C13   A    
Cu2   O2    S    
C2    O4    A    
C17   C19   A    
C18   C20   A    
C27   H20   S    
C1    O1    A    
C30   H32   S    
C2    O2    A    
C16   C18   A    
N6    H23   S    
C26   H18   S    
C13   H1    S    
C14   H2    S    
N10   H39   S    
Cu1   O8    S    
Cu2   O3    S    
