data_mof_unit_10733.cif
_audit_creation_date              2012-12-10T17:49:40-0500
_audit_creation_method            fapswitch 2.2
_symmetry_space_group_name_H-M    P1
_symmetry_Int_Tables_number       1
_space_group_crystal_system       triclinic
_cell_length_a                    14.696529
_cell_length_b                    14.754589
_cell_length_c                    15.860095
_cell_angle_alpha                 76.729379
_cell_angle_beta                  101.618376
_cell_angle_gamma                 114.868788
_cell_volume                      3015.41737149

loop_
_atom_site_label
_atom_site_type_symbol
_atom_type_description
_atom_site_fract_x
_atom_site_fract_y
_atom_site_fract_z
_atom_type_partial_charge
C1    C     C_R   0.880329 0.312447 0.514235 0.794861
C2    C     C_3   0.008199 0.407869 0.071599 -0.436685
C3    C     C_3   0.995942 0.505527 0.081316 -0.093307
C4    C     C_3   0.091031 0.602143 0.042379 0.625513
C5    C     C_3   0.080743 0.600324 0.942259 -0.536211
C6    C     C_1   0.999368 0.502427 0.174763 0.134369
C7    C     C_1   0.996839 0.500752 0.823789 0.064757
C8    C     C_1   0.997489 0.500723 0.748410 -0.119321
C9    C     C_R   0.812406 0.205025 0.519385 -0.047099
C10   C     C_R   0.186675 0.795109 0.482483 -0.065757
C11   C     C_R   0.782838 0.029324 0.530440 -0.176379
C12   C     C_R   0.999167 0.500185 0.659331 0.809027
C13   C     C_R   0.849367 0.130007 0.528363 -0.161763
C14   C     C_R   0.708416 0.178426 0.512164 -0.205323
C15   C     C_R   0.638673 0.078150 0.508860 0.083756
C16   C     C_R   0.677115 0.001346 0.521435 0.097119
C17   C     C_R   0.532320 0.052712 0.495180 0.036196
C18   C     C_R   0.465435 0.949829 0.499770 0.016245
C19   C     C_R   0.506072 0.874979 0.520074 -0.186095
C20   C     C_R   0.609880 0.898555 0.527182 0.136598
C21   C     C_R   0.490804 0.127132 0.476431 -0.225283
C22   C     C_R   0.387152 0.102106 0.471598 0.132286
C23   C     C_R   0.119516 0.687558 0.486583 0.813046
C24   C     C_R   0.320459 0.999244 0.479761 0.135553
C25   C     C_R   0.359151 0.923739 0.487299 0.070784
C26   C     C_R   0.215731 0.969413 0.479934 -0.184225
C27   C     C_R   0.150327 0.868103 0.483997 -0.156488
C28   C     C_R   0.289721 0.823813 0.481411 -0.219136
C29   C     C_R   0.684673 0.601478 0.321922 -0.351473
C30   C     C_R   0.781948 0.611689 0.360633 0.577804
C31   C     C_R   0.719583 0.527128 0.496791 0.211360
C32   C     C_R   0.617575 0.510190 0.458438 -0.049222
C33   C     C_R   0.603004 0.552192 0.370076 0.060896
C34   C     C_R   0.000490 0.499344 0.340685 0.859065
C35   C     C_R   0.530834 0.460773 0.505399 0.070287
C36   C     C_R   0.440174 0.476865 0.470774 0.061480
C37   C     C_R   0.430637 0.522433 0.383074 -0.231492
C38   C     C_R   0.509317 0.555280 0.332732 -0.121344
C39   C     C_R   0.529940 0.391691 0.583312 -0.277042
C40   C     C_R   0.449005 0.351814 0.632274 -0.182906
C41   C     C_R   0.366681 0.380126 0.605358 0.149937
C42   C     C_R   0.361171 0.443766 0.524494 -0.018268
C43   C     C_R   0.289121 0.344571 0.658259 -0.300695
C44   C     C_R   0.208257 0.374534 0.632267 0.095411
C45   C     C_3   0.018085 0.410206 0.975206 0.312451
C46   C     C_R   0.277804 0.473416 0.502409 0.002845
C47   C     C_3   0.893399 0.497993 0.929785 -0.429669
C48   C     C_3   0.886753 0.497188 0.027827 0.448193
C49   C     C_1   0.001739 0.499971 0.251243 -0.060005
C50   C     C_3   0.996206 0.500592 0.916033 -0.016923
Cu1   Cu    Cu3+1 0.081750 0.475690 0.522550 0.963735
Cu2   Cu    Cu3+1 0.918250 0.524310 0.477450 0.997524
H1    H     H_    0.946103 0.338515 0.096693 0.267755
H2    H     H_    0.097640 0.425271 0.971088 0.184108
H3    H     H_    0.073060 0.397905 0.115636 0.223811
H4    H     H_    0.313559 0.766583 0.474088 0.151011
H5    H     H_    0.071497 0.847098 0.488696 0.197717
H6    H     H_    0.815829 0.974224 0.539185 0.138386
H7    H     H_    0.929774 0.148962 0.534078 0.159139
H8    H     H_    0.684140 0.237933 0.511150 0.146284
H9    H     H_    0.457274 0.796776 0.533692 0.158935
H10   H     H_    0.537222 0.206662 0.463903 0.143905
H11   H     H_    0.183058 0.023125 0.478472 0.155043
H12   H     H_    0.498490 0.588829 0.265066 0.170903
H13   H     H_    0.271052 0.525271 0.443657 0.135987
H14   H     H_    0.147982 0.345932 0.672921 0.152944
H15   H     H_    0.451908 0.300171 0.692621 0.166955
H16   H     H_    0.673641 0.640462 0.256376 0.196740
H17   H     H_    0.883402 0.565122 0.886594 0.142242
H18   H     H_    0.361464 0.529936 0.350967 0.172901
H19   H     H_    0.591572 0.366940 0.606325 0.155771
H20   H     H_    0.291140 0.294160 0.719564 0.162654
H21   H     H_    0.830269 0.432953 0.903999 0.261578
H22   H     H_    0.153458 0.609790 0.923164 0.226344
H23   H     H_    0.063956 0.664503 0.901444 0.221747
N1    N     N_R   0.795410 0.560790 0.443550 -0.231189
N2    N     N_R   0.204590 0.439170 0.556520 -0.185186
O1    O     O_R   0.977910 0.338120 0.529720 -0.588614
O2    O     O_R   0.839850 0.379180 0.491640 -0.591018
O3    O     O_R   0.069060 0.479460 0.639610 -0.571366
O4    O     O_R   0.931000 0.520530 0.601530 -0.595596
O5    O     O_R   0.160150 0.620820 0.508360 -0.589765
O6    O     O_R   0.022090 0.661880 0.470280 -0.531172
O7    O     O_R   0.069000 0.479470 0.398470 -0.585960
O8    O     O_R   0.930940 0.520540 0.360390 -0.536720
S1    S     S_3+6 0.101443 0.726307 0.059738 0.042262
O9    O     O_2   0.065309 0.783405 0.978274 -0.290339
O10   O     O_2   0.041645 0.714102 0.130819 -0.321084
O11   O     O_3   0.221377 0.803033 0.089057 -0.404785
H24   H     H_    0.229989 0.792358 0.153681 0.380303
C51   C     C_3   0.650169 0.815113 0.542943 -0.409825
C52   C     C_3   0.571305 0.706446 0.546202 -0.811751
H25   H     H_    0.528241 0.683964 0.602850 0.253822
H26   H     H_    0.519293 0.697995 0.484446 0.260726
H27   H     H_    0.610071 0.654541 0.554148 0.251599
H28   H     H_    0.695630 0.829321 0.489550 0.223014
H29   H     H_    0.700470 0.819069 0.605738 0.207082
C53   C     C_3   0.351128 0.187980 0.455309 -0.431005
C54   C     C_3   0.303299 0.204789 0.361345 -0.752741
H30   H     H_    0.359093 0.223703 0.315473 0.262677
H31   H     H_    0.236085 0.136499 0.345873 0.261671
H32   H     H_    0.279475 0.268966 0.351800 0.246276
H33   H     H_    0.298119 0.174426 0.502117 0.202718
H34   H     H_    0.415395 0.259975 0.466661 0.223904
S2    S     S_3+6 0.949725 0.288809 0.938782 0.043441
O12   O     O_2   0.937767 0.204387 0.015208 -0.220510
O13   O     O_2   0.847528 0.278861 0.891153 -0.257692
O14   O     O_3   0.017654 0.278920 0.870314 -0.544775
H35   H     H_    0.975951 0.213367 0.849899 0.378854
S3    S     S_3+6 0.880527 0.723975 0.317250 0.024007
O15   O     O_2   0.840083 0.774382 0.233807 -0.278915
O16   O     O_2   0.917440 0.794697 0.382645 -0.329982
O17   O     O_3   0.978730 0.706280 0.296217 -0.507462
H36   H     H_    0.033246 0.774785 0.287840 0.386568
C55   C     C_3   0.749231 0.543201 0.591665 -0.372570
C56   C     C_3   0.827685 0.650509 0.600380 -0.741445
H37   H     H_    0.894674 0.671208 0.566988 0.287543
H38   H     H_    0.793666 0.706708 0.571094 0.231930
H39   H     H_    0.853062 0.656485 0.670485 0.223601
H40   H     H_    0.685198 0.537969 0.621708 0.190032
H41   H     H_    0.772635 0.483216 0.632257 0.218300
S4    S     S_3+6 0.781303 0.379530 0.065580 -0.006199
O18   O     O_2   0.777164 0.289136 0.034243 -0.204414
O19   O     O_2   0.789641 0.359030 0.163563 -0.316540
O20   O     O_3   0.671049 0.391760 0.026234 -0.541625
H42   H     H_    0.619199 0.331282 0.056138 0.388837
C57   C     C_3   0.851828 0.584245 0.028343 -0.373996
C58   C     C_3   0.819634 0.588871 0.113258 -0.554949
H43   H     H_    0.746628 0.526037 0.127648 0.258974
H44   H     H_    0.875926 0.587397 0.170255 0.277982
H45   H     H_    0.808617 0.660445 0.105352 0.253679
H46   H     H_    0.906270 0.658504 0.003210 0.244213
H47   H     H_    0.784383 0.575924 0.979064 0.218987
S5    S     S_3+6 0.213967 0.596904 0.092564 -0.012877
O21   O     O_2   0.297491 0.689433 0.053601 -0.209707
O22   O     O_2   0.225220 0.595972 0.189080 -0.334558
O23   O     O_3   0.232986 0.497656 0.076815 -0.591646
H48   H     H_    0.296614 0.500541 0.114099 0.383134

loop_
_geom_bond_atom_site_label_1
_geom_bond_atom_site_label_2
_ccdc_geom_bond_type
C10   C27   A    
C43   H20   S    
C55   H41   S    
C23   O5    A    
C41   C42   A    
C36   C42   A    
C35   C36   A    
C43   C44   A    
C3    C6    S    
C58   H43   S    
S5    O23   S    
C28   H4    S    
C7    C8    T    
C56   H37   S    
C25   C28   A    
S2    O13   D    
C26   C27   A    
C29   C30   A    
C23   O6    A    
C30   S3    S    
C22   C53   S    
Cu2   O8    S    
C24   C26   A    
C2    H3    S    
C48   S4    S    
C19   H9    S    
S1    O10   D    
C4    S1    S    
C53   H33   S    
C29   C33   A    
C3    C48   S    
O14   H35   S    
C18   C19   A    
C42   C46   A    
C5    H22   S    
C9    C13   A    
Cu1   O3    S    
C47   H17   S    
C51   H28   S    
C57   H46   S    
C44   H14   S    
C47   C48   S    
C40   H15   S    
Cu2   O2    S    
C16   C20   A    
C21   C22   A    
C1    O1    A    
C41   C43   A    
C18   C25   A    
C34   O7    A    
C31   C55   S    
C20   C51   S    
C45   S2    S    
C47   C50   S    
C38   H12   S    
C2    C45   S    
S2    O14   S    
Cu1   Cu2   S    
C32   C35   A    
C1    C9    S    
C24   C25   A    
C47   H21   S    
C46   H13   S    
C27   H5    S    
C51   C52   S    
C9    C14   A    
S1    O9    D    
S5    O22   D    
C2    H1    S    
C52   H27   S    
C17   C21   A    
C3    C4    S    
S3    O15   D    
C34   O8    A    
C5    H23   S    
Cu2   O6    S    
C35   C39   A    
C26   H11   S    
Cu1   N2    S    
C37   C38   A    
C29   H16   S    
C30   N1    A    
C11   C16   A    
C54   H30   S    
S3    O17   S    
C8    C12   S    
C52   H26   S    
C17   C18   A    
C51   H29   S    
Cu1   O5    S    
C21   H10   S    
C40   C41   A    
C54   H31   S    
C45   H2    S    
C53   C54   S    
O20   H42   S    
C1    O2    A    
C22   C24   A    
C5    C50   S    
S4    O19   D    
C57   C58   S    
C11   H6    S    
C58   H45   S    
C39   C40   A    
C4    S5    S    
O17   H36   S    
S2    O12   D    
C10   C28   A    
C15   C17   A    
C44   N2    A    
C34   C49   S    
C31   C32   A    
C57   H47   S    
C7    C50   S    
C4    C5    S    
Cu2   N1    S    
S1    O11   S    
C58   H44   S    
C46   N2    A    
S5    O21   D    
C13   H7    S    
C10   C23   S    
C14   H8    S    
O23   H48   S    
C33   C38   A    
C56   H39   S    
C32   C33   A    
C19   C20   A    
C2    C3    S    
O11   H24   S    
Cu1   O1    S    
C48   C57   S    
C11   C13   A    
C31   N1    A    
C45   C50   S    
S4    O20   S    
C53   H34   S    
C12   O3    A    
C52   H25   S    
C56   H38   S    
C12   O4    A    
C6    C49   T    
Cu2   O4    S    
S3    O16   D    
C54   H32   S    
C36   C37   A    
C55   H40   S    
C39   H19   S    
C14   C15   A    
C55   C56   S    
S4    O18   D    
C37   H18   S    
Cu1   O7    S    
C15   C16   A    
