data_mof_unit_12366.cif
_audit_creation_date              2012-12-11T15:50:31-0500
_audit_creation_method            fapswitch 2.2
_symmetry_space_group_name_H-M    P1
_symmetry_Int_Tables_number       1
_space_group_crystal_system       triclinic
_cell_length_a                    18.936596
_cell_length_b                    10.987637
_cell_length_c                    18.739238
_cell_angle_alpha                 89.925794
_cell_angle_beta                  91.174655
_cell_angle_gamma                 89.616599
_cell_volume                      3898.13340873

loop_
_atom_site_label
_atom_site_type_symbol
_atom_type_description
_atom_site_fract_x
_atom_site_fract_y
_atom_site_fract_z
_atom_type_partial_charge
C1    C     C_R   0.274050 0.038592 0.855161 0.546811
C2    C     C_R   0.709405 0.996514 0.139230 0.571635
C3    C     C_R   0.772061 0.542510 0.853279 0.547736
C4    C     C_R   0.226417 0.539739 0.145191 0.540695
C5    C     C_3   0.516307 0.720689 0.975895 -0.091899
C6    C     C_3   0.458742 0.738025 0.032160 -0.104786
C7    C     C_3   0.061494 0.245944 0.956628 -0.120469
C8    C     C_3   0.011995 0.219454 0.018860 -0.077292
C9    C     C_R   0.241541 0.574525 0.072188 -0.001076
C10   C     C_R   0.750286 0.589083 0.922092 0.008716
C11   C     C_R   0.719789 0.013034 0.062629 0.027908
C12   C     C_R   0.259993 0.071527 0.928728 -0.004108
C13   C     C_R   0.303728 0.539532 0.038313 0.017033
C14   C     C_R   0.694762 0.537286 0.960032 0.032599
C15   C     C_R   0.781466 0.974743 0.029171 0.024085
C16   C     C_R   0.197366 0.040437 0.962349 0.016170
C17   C     C_R   0.309360 0.550354 0.964353 0.000010
C18   C     C_R   0.690734 0.551215 0.033540 -0.006955
C19   C     C_R   0.792705 0.999377 0.957425 -0.013156
C20   C     C_R   0.191421 0.051945 0.036139 0.000234
C21   C     C_R   0.188166 0.618628 0.956524 -0.182294
C22   C     C_R   0.795879 0.673155 0.032379 -0.161162
C23   C     C_R   0.677531 0.091246 0.948373 -0.164955
C24   C     C_R   0.313472 0.112628 0.044717 -0.179409
C25   C     C_R   0.184625 0.618149 0.029967 -0.180581
C26   C     C_R   0.796730 0.666989 0.958691 -0.160067
C27   C     C_R   0.666207 0.065816 0.020192 -0.164409
C28   C     C_R   0.317563 0.110669 0.971238 -0.178208
C29   C     C_3   0.337843 0.416910 0.038888 -0.035960
C30   C     C_3   0.670094 0.408636 0.963195 -0.033417
C31   C     C_3   0.856845 0.997359 0.049742 -0.041832
C32   C     C_3   0.161792 0.920144 0.961742 -0.041182
C33   C     C_3   0.346304 0.430339 0.959235 -0.246603
C34   C     C_3   0.664654 0.424497 0.043372 -0.242790
C35   C     C_3   0.869707 0.018129 0.970664 -0.247115
C36   C     C_3   0.153112 0.934107 0.041336 -0.252729
C37   C     C_R   0.250847 0.587557 0.922658 0.003113
C38   C     C_R   0.744656 0.610784 0.071417 0.012791
C39   C     C_R   0.743334 0.068266 0.917386 0.013449
C40   C     C_R   0.249985 0.086179 0.078094 0.005499
C41   C     C_R   0.515221 0.829175 0.429191 0.022086
C42   C     C_R   0.502881 0.835773 0.578259 0.015703
C43   C     C_R   0.015213 0.329172 0.429188 0.021397
C44   C     C_R   0.002878 0.335776 0.578258 0.016110
C45   C     C_R   0.467566 0.820781 0.856914 0.550846
C46   C     C_R   0.528342 0.822237 0.145296 0.540328
C47   C     C_R   0.973425 0.322369 0.853621 0.542942
C48   C     C_R   0.062419 0.317104 0.137782 0.570408
C49   C     C_R   0.537884 0.731833 0.472105 0.044518
C50   C     C_R   0.532689 0.734676 0.545034 0.018025
C51   C     C_R   0.037884 0.231837 0.472105 0.042638
C52   C     C_R   0.032692 0.234683 0.545035 0.018462
C53   C     C_R   0.489801 0.941419 0.536939 -0.164800
C54   C     C_R   0.495439 0.937892 0.462543 -0.173749
C55   C     C_R   0.989788 0.441416 0.536936 -0.164367
C56   C     C_R   0.995424 0.437885 0.462540 -0.172912
C57   C     C_3   0.518844 0.600557 0.467694 -0.265244
C58   C     C_3   0.515212 0.602024 0.548179 -0.269748
C59   C     C_3   0.018852 0.100558 0.467699 -0.266039
C60   C     C_3   0.015226 0.102028 0.548185 -0.268935
C61   C     C_R   0.251128 0.602325 0.419362 0.021030
C62   C     C_R   0.763737 0.557134 0.568069 0.022149
C63   C     C_R   0.751136 0.102354 0.419349 0.024323
C64   C     C_R   0.263742 0.057121 0.568065 0.021979
C65   C     C_R   0.203157 0.676488 0.455531 0.026575
C66   C     C_R   0.820913 0.603081 0.531659 0.035269
C67   C     C_R   0.703165 0.176515 0.455520 0.027455
C68   C     C_R   0.320921 0.103057 0.531654 0.035201
C69   C     C_R   0.205482 0.680451 0.528207 0.043096
C70   C     C_R   0.819718 0.610519 0.459115 0.024084
C71   C     C_R   0.705489 0.180475 0.528197 0.042441
C72   C     C_R   0.319726 0.110492 0.459109 0.022538
C73   C     C_R   0.311018 0.557363 0.531330 -0.166753
C74   C     C_R   0.709326 0.501940 0.454714 -0.154939
C75   C     C_R   0.811027 0.057396 0.531318 -0.167691
C76   C     C_R   0.209328 0.001931 0.454711 -0.155999
C77   C     C_R   0.309962 0.554862 0.456915 -0.170198
C78   C     C_R   0.710629 0.495915 0.529116 -0.153210
C79   C     C_R   0.809971 0.054896 0.456902 -0.169268
C80   C     C_R   0.210632 0.995905 0.529114 -0.152369
C81   C     C_3   0.123546 0.680606 0.455070 -0.268510
C82   C     C_3   0.858279 0.720584 0.542416 -0.278926
C83   C     C_3   0.623553 0.180638 0.455059 -0.268463
C84   C     C_3   0.358295 0.220554 0.542407 -0.279092
C85   C     C_3   0.127321 0.683887 0.535453 -0.278175
C86   C     C_3   0.857402 0.730750 0.462255 -0.268943
C87   C     C_3   0.627328 0.183912 0.535442 -0.279035
C88   C     C_3   0.357421 0.230713 0.462245 -0.267783
C89   C     C_R   0.260689 0.634989 0.851206 0.540438
C90   C     C_R   0.738288 0.640327 0.146765 0.543400
C91   C     C_R   0.760319 0.134419 0.851494 0.535205
C92   C     C_R   0.239544 0.135038 0.149030 0.530994
C93   C     C_R   0.255370 0.613537 0.567412 0.022730
C94   C     C_R   0.759552 0.572986 0.420455 0.023282
C95   C     C_R   0.755377 0.113563 0.567403 0.022182
C96   C     C_R   0.259556 0.072973 0.420451 0.020182
C97   C     C_R   0.273330 0.040158 0.643526 0.546455
C98   C     C_R   0.729260 0.048392 0.352744 0.567394
C99   C     C_R   0.773328 0.540161 0.643527 0.545567
C100  C     C_R   0.229253 0.548370 0.352757 0.550372
C101  C     C_R   0.470233 0.823818 0.647322 0.551709
C102  C     C_R   0.531714 0.823287 0.354057 0.544747
C103  C     C_R   0.970233 0.323818 0.647321 0.549210
C104  C     C_R   0.031708 0.323286 0.354053 0.563195
C105  C     C_R   0.260709 0.639736 0.642275 0.542836
C106  C     C_R   0.741718 0.633773 0.354515 0.553264
C107  C     C_R   0.760711 0.139744 0.642270 0.544007
C108  C     C_R   0.241719 0.133771 0.354514 0.547787
C109  C     C_3   0.473345 0.936390 0.027824 -0.126363
C110  C     C_3   0.530404 0.918929 0.970743 -0.132828
C111  C     C_3   0.989622 0.415358 0.028783 -0.093129
C112  C     C_3   0.038670 0.441238 0.965684 -0.124102
C113  C     C_3   0.425565 0.843699 0.988224 -0.118877
C114  C     C_3   0.563892 0.813483 0.014569 -0.110518
C115  C     C_3   0.956466 0.308968 0.987280 -0.094406
C116  C     C_3   0.094944 0.352817 0.998883 -0.150883
C117  C     C_3   0.483792 0.826188 0.933017 0.049260
C118  C     C_3   0.506072 0.830304 0.070466 0.048860
C119  C     C_3   0.005883 0.333265 0.925344 0.040861
C120  C     C_3   0.044631 0.326002 0.060474 0.047723
Cr1   Cr    Cr6+3 0.229640 0.835880 0.747370 1.043926
Cr2   Cr    Cr6+3 0.770360 0.835880 0.252630 1.026487
Cr3   Cr    Cr6+3 0.729640 0.335880 0.747370 1.044652
Cr4   Cr    Cr6+3 0.270360 0.335880 0.252630 1.034296
Cr5   Cr    Cr6+3 0.387390 0.989720 0.750850 1.025051
Cr6   Cr    Cr6+3 0.612610 0.989720 0.249150 1.023254
Cr7   Cr    Cr6+3 0.887390 0.489720 0.750850 1.025753
Cr8   Cr    Cr6+3 0.112610 0.489720 0.249150 1.012830
Cr9   Cr    Cr6+3 0.385770 0.677220 0.749340 1.032301
Cr10  Cr    Cr6+3 0.614230 0.677220 0.250660 1.037235
Cr11  Cr    Cr6+3 0.885770 0.177220 0.749340 1.034412
Cr12  Cr    Cr6+3 0.114230 0.177220 0.250660 1.023695
H1    H     H_    0.368406 0.854857 0.975217 0.119370
H2    H     H_    0.621136 0.801210 0.026755 0.116725
H3    H     H_    0.898269 0.301225 0.981549 0.125538
H4    H     H_    0.152610 0.368072 0.004966 0.116630
H5    H     H_    0.469296 0.023084 0.561118 0.139413
H6    H     H_    0.481975 0.017949 0.431243 0.122653
H7    H     H_    0.969277 0.523078 0.561113 0.139431
H8    H     H_    0.981954 0.517940 0.431239 0.122684
H9    H     H_    0.062037 0.043048 0.447535 0.138897
H10   H     H_    0.961597 0.083248 0.567156 0.163357
H11   H     H_    0.562028 0.543041 0.447532 0.139867
H12   H     H_    0.461581 0.583255 0.567145 0.163078
H13   H     H_    0.466855 0.586244 0.440654 0.138296
H14   H     H_    0.557780 0.547816 0.574963 0.130376
H15   H     H_    0.966862 0.086234 0.440663 0.139871
H16   H     H_    0.057799 0.047833 0.574968 0.130896
H17   H     H_    0.353162 0.511534 0.560474 0.119348
H18   H     H_    0.666130 0.461659 0.424796 0.120627
H19   H     H_    0.853172 0.011567 0.560462 0.119613
H20   H     H_    0.166132 0.961652 0.424794 0.118730
H21   H     H_    0.350539 0.504632 0.429589 0.118418
H22   H     H_    0.669492 0.447546 0.555957 0.128096
H23   H     H_    0.850548 0.004663 0.429577 0.118851
H24   H     H_    0.169495 0.947537 0.555955 0.128144
H25   H     H_    0.098668 0.596017 0.435235 0.175576
H26   H     H_    0.912206 0.709394 0.565927 0.137244
H27   H     H_    0.598672 0.096053 0.435223 0.174962
H28   H     H_    0.412221 0.209359 0.565920 0.137013
H29   H     H_    0.101857 0.765834 0.431010 0.122068
H30   H     H_    0.824796 0.789981 0.568852 0.138328
H31   H     H_    0.601866 0.265868 0.431001 0.125205
H32   H     H_    0.324816 0.289959 0.568840 0.138248
H33   H     H_    0.107429 0.770475 0.558129 0.134468
H34   H     H_    0.823779 0.807545 0.443578 0.171890
H35   H     H_    0.607435 0.270497 0.558120 0.134415
H36   H     H_    0.323807 0.307515 0.443566 0.173121
H37   H     H_    0.106845 0.600282 0.561035 0.142850
H38   H     H_    0.910906 0.726062 0.439022 0.127856
H39   H     H_    0.606851 0.100305 0.561021 0.143227
H40   H     H_    0.410926 0.226006 0.439012 0.129088
H41   H     H_    0.457838 0.024763 0.051276 0.127808
H42   H     H_    0.554360 0.991653 0.939080 0.127359
H43   H     H_    0.959689 0.484675 0.059110 0.137587
H44   H     H_    0.046671 0.532037 0.941712 0.127312
H45   H     H_    0.534410 0.633427 0.953282 0.176968
H46   H     H_    0.428316 0.667367 0.059695 0.165871
H47   H     H_    0.090650 0.181251 0.922983 0.163991
H48   H     H_    0.003140 0.126298 0.039526 0.165216
H49   H     H_    0.142708 0.651813 0.926308 0.165972
H50   H     H_    0.836547 0.726092 0.058651 0.140399
H51   H     H_    0.636305 0.138805 0.918851 0.173566
H52   H     H_    0.359131 0.142994 0.075274 0.166602
H53   H     H_    0.134683 0.644136 0.052878 0.159045
H54   H     H_    0.839079 0.712850 0.931704 0.152422
H55   H     H_    0.616569 0.093169 0.043236 0.157594
H56   H     H_    0.367963 0.133158 0.948465 0.168718
H57   H     H_    0.884269 0.915083 0.071000 0.131622
H58   H     H_    0.200019 0.848180 0.947618 0.163388
H59   H     H_    0.299114 0.346340 0.052991 0.157580
H60   H     H_    0.712077 0.342812 0.948486 0.157661
H61   H     H_    0.401887 0.441107 0.942631 0.196362
H62   H     H_    0.609668 0.423360 0.062883 0.197936
H63   H     H_    0.886318 0.110127 0.955926 0.170463
H64   H     H_    0.097553 0.947846 0.057686 0.161799
H65   H     H_    0.315532 0.362816 0.927498 0.126862
H66   H     H_    0.702526 0.366211 0.074373 0.151583
H67   H     H_    0.901500 0.944279 0.946369 0.152921
H68   H     H_    0.183068 0.865187 0.073410 0.128794
O1    O     O_R   0.214300 0.709080 0.827500 -0.513355
O2    O     O_R   0.785700 0.709080 0.172500 -0.534249
O3    O     O_R   0.714300 0.209080 0.827500 -0.510118
O4    O     O_R   0.285700 0.209080 0.172500 -0.512207
O5    O     O_R   0.445900 0.919370 0.676500 -0.508731
O6    O     O_R   0.554100 0.919370 0.323500 -0.511297
O7    O     O_R   0.945900 0.419370 0.676500 -0.510738
O8    O     O_R   0.054100 0.419370 0.323500 -0.505627
O9    O     O_R   0.456660 0.717710 0.669820 -0.520432
O10   O     O_R   0.543340 0.717710 0.330180 -0.512712
O11   O     O_R   0.956660 0.217710 0.669820 -0.520046
O12   O     O_R   0.043340 0.217710 0.330180 -0.506158
O13   O     O_R   0.320590 0.625770 0.672930 -0.511394
O14   O     O_R   0.679410 0.625770 0.327070 -0.503600
O15   O     O_R   0.820590 0.125770 0.672930 -0.509948
O16   O     O_R   0.179410 0.125770 0.327070 -0.509082
O17   O     O_3   0.334270 0.834280 0.749190 -0.262950
O18   O     O_3   0.665730 0.834280 0.250810 -0.282896
O19   O     O_3   0.834270 0.334280 0.749190 -0.259774
O20   O     O_3   0.165730 0.334280 0.250810 -0.279008
O21   O     O_R   0.236190 0.958390 0.823150 -0.478951
O22   O     O_R   0.763810 0.958390 0.176850 -0.470526
O23   O     O_R   0.736190 0.458390 0.823150 -0.482109
O24   O     O_R   0.263810 0.458390 0.176850 -0.481341
O25   O     O_R   0.332090 0.075280 0.831290 -0.524454
O26   O     O_R   0.667910 0.075280 0.168710 -0.501102
O27   O     O_R   0.832090 0.575280 0.831290 -0.520244
O28   O     O_R   0.167910 0.575280 0.168710 -0.537847
O29   O     O_R   0.446280 0.918040 0.826620 -0.504628
O30   O     O_R   0.553720 0.918040 0.173380 -0.523747
O31   O     O_R   0.946280 0.418040 0.826620 -0.501793
O32   O     O_R   0.053720 0.418040 0.173380 -0.497583
O33   O     O_R   0.457080 0.716270 0.831760 -0.504574
O34   O     O_R   0.542920 0.716270 0.168240 -0.493337
O35   O     O_R   0.957080 0.216270 0.831760 -0.500137
O36   O     O_R   0.042920 0.216270 0.168240 -0.486723
O37   O     O_R   0.320980 0.624440 0.823040 -0.495682
O38   O     O_R   0.679020 0.624440 0.176960 -0.492910
O39   O     O_R   0.820980 0.124440 0.823040 -0.496924
O40   O     O_R   0.179020 0.124440 0.176960 -0.518439
O41   O     O_R   0.213880 0.710510 0.665560 -0.516817
O42   O     O_R   0.786120 0.710510 0.334440 -0.525689
O43   O     O_R   0.713880 0.210510 0.665560 -0.516686
O44   O     O_R   0.286120 0.210510 0.334440 -0.521837
O45   O     O_R   0.235800 0.959720 0.673040 -0.504857
O46   O     O_R   0.764200 0.959720 0.326960 -0.502409
O47   O     O_R   0.735800 0.459720 0.673040 -0.506624
O48   O     O_R   0.264200 0.459720 0.326960 -0.504419
O49   O     O_R   0.331670 0.076720 0.669350 -0.518454
O50   O     O_R   0.668330 0.076720 0.330650 -0.520829
O51   O     O_R   0.831670 0.576720 0.669350 -0.519118
O52   O     O_R   0.168330 0.576720 0.330650 -0.527534
I1    I     I_    0.435690 0.407528 0.098234 -0.423118
I2    I     I_    0.570269 0.385211 0.909013 -0.439943
I3    I     I_    0.867726 0.155854 0.117272 -0.383752
I4    I     I_    0.064176 0.916603 0.901983 -0.473342

loop_
_geom_bond_atom_site_label_1
_geom_bond_atom_site_label_2
_ccdc_geom_bond_type
C89   O1    A    
C55   C56   A    
Cr4   O20   S    
C67   C83   S    
C88   H40   S    
C57   H13   S    
C5    C114  S    
C24   H52   S    
Cr1   O21   S    
C64   C80   A    
C5    C117  S    
C14   C18   A    
C83   C87   S    
C111  C112  S    
Cr12  O12   S    
C73   C93   A    
C39   C91   S    
C43   C56   A    
Cr3   O43   S    
C84   H28   S    
Cr7   O19   S    
C7    C8    S    
C48   C120  S    
C63   C79   A    
C53   C54   A    
C21   H49   S    
C8    C120  S    
Cr8   O52   S    
C55   H7    S    
C17   C33   S    
C23   C39   A    
C12   C28   A    
C53   H5    S    
C46   O34   A    
C13   C29   S    
Cr6   O30   S    
C45   O33   A    
Cr6   O50   S    
C98   O46   A    
C63   C98   S    
C69   C93   A    
C28   H56   S    
C42   C53   A    
C97   O45   A    
C5    C6    S    
C56   H8    S    
C72   C96   A    
C109  H41   S    
C71   C95   A    
C76   H20   S    
C19   C39   A    
C45   C117  S    
C25   H53   S    
C22   C38   A    
C29   C33   S    
C2    O22   A    
C49   C57   S    
C41   C102  S    
C46   C118  S    
Cr11  O19   S    
C41   C49   A    
Cr10  O18   S    
C9    C13   A    
C43   C104  S    
C1    O21   A    
Cr9   O17   S    
C83   H27   S    
C52   C60   S    
C8    C115  S    
C93   C105  S    
Cr5   O5    S    
C11   C15   A    
Cr10  O38   S    
C12   C16   A    
C75   H19   S    
C88   H36   S    
C86   H34   S    
C3    O23   A    
C76   C80   A    
C30   I2    S    
Cr4   O24   S    
Cr12  O16   S    
C104  O8    A    
C33   H65   S    
Cr4   O44   S    
Cr8   O20   S    
Cr7   O51   S    
C84   H32   S    
C109  C113  S    
Cr2   O46   S    
C6    C113  S    
C60   H10   S    
C34   H62   S    
Cr1   O45   S    
C96   C108  S    
Cr2   O22   S    
C33   H61   S    
C59   C60   S    
Cr8   O32   S    
C113  H1    S    
C6    H46   S    
Cr7   O27   S    
C4    O24   A    
C46   O30   A    
C107  O43   A    
Cr6   O26   S    
C1    C12   S    
C45   O29   A    
C106  O42   A    
Cr5   O25   S    
C2    C11   S    
C101  O5    A    
C110  C117  S    
C105  O41   A    
C72   C88   S    
C44   C103  S    
C109  C118  S    
C80   H24   S    
C47   O35   A    
C23   C27   A    
C110  H42   S    
C111  C115  S    
C106  O14   A    
C63   C67   A    
C81   H25   S    
C90   O38   A    
C75   C95   A    
C51   C52   A    
C68   C84   S    
C35   H67   S    
C7    C119  S    
C62   C66   A    
Cr7   O7    S    
Cr2   O42   S    
C21   C25   A    
C10   C14   A    
C3    O27   A    
C103  O11   A    
C98   O50   A    
C30   C34   S    
C102  O10   A    
C27   H55   S    
C82   H30   S    
C101  O9    A    
C14   C30   S    
Cr3   O23   S    
Cr10  O34   S    
C85   H37   S    
C116  C120  S    
C115  C119  S    
Cr9   O33   S    
C68   C72   A    
Cr12  O20   S    
C50   C58   S    
C7    C116  S    
Cr4   O48   S    
C15   C19   A    
C36   H64   S    
Cr11  O15   S    
C23   H51   S    
C100  O48   A    
C89   O37   A    
C66   C82   S    
C102  O6    A    
C38   C90   S    
C8    H48   S    
C65   C81   S    
C114  C118  S    
C11   C27   A    
C16   C20   A    
C87   H39   S    
C108  O44   A    
Cr7   O31   S    
C10   C26   A    
C114  H2    S    
C32   H58   S    
C31   I3    S    
C82   H26   S    
C108  O16   A    
C40   C92   S    
C92   O40   A    
C18   C34   S    
C5    H45   S    
C29   H59   S    
C48   O36   A    
C87   H35   S    
C95   C107  S    
C83   H31   S    
C42   C50   A    
Cr9   O13   S    
C71   C87   S    
C47   O31   A    
C99   O51   A    
C64   C97   S    
C112  H44   S    
Cr4   O4    S    
C29   I1    S    
Cr11  O11   S    
C77   H21   S    
C111  H43   S    
Cr10  O10   S    
C61   C100  S    
C51   C59   S    
C17   C37   A    
Cr9   O9    S    
C48   O32   A    
C70   C86   S    
C42   C101  S    
C64   C68   A    
C110  C114  S    
C112  C116  S    
C69   C85   S    
C2    O26   A    
Cr1   O41   S    
C113  C117  S    
C1    O25   A    
C65   C69   A    
C61   C77   A    
Cr3   O19   S    
C94   C106  S    
C73   C77   A    
Cr2   O18   S    
C75   C79   A    
Cr9   O37   S    
C86   H38   S    
Cr1   O17   S    
C62   C78   A    
C78   H22   S    
C24   C28   A    
C103  O7    A    
C100  O52   A    
C105  O13   A    
C92   O4    A    
C44   C52   A    
C9    C25   A    
C112  C119  S    
C97   O49   A    
C32   C36   S    
C15   C31   S    
C36   H68   S    
C116  H4    S    
C37   C89   S    
C16   C32   S    
C35   H63   S    
C60   H16   S    
C31   H57   S    
Cr5   O29   S    
C13   C17   A    
C58   H14   S    
C7    H47   S    
C85   H33   S    
Cr2   O2    S    
Cr5   O49   S    
C18   C38   A    
C74   H18   S    
Cr1   O1    S    
Cr11  O35   S    
C22   H50   S    
C3    C10   S    
C82   C86   S    
C109  C110  S    
C76   C96   A    
C81   H29   S    
C26   H54   S    
C44   C55   A    
C43   C51   A    
C57   C58   S    
C54   H6    S    
C84   C88   S    
C115  H3    S    
Cr6   O6    S    
C20   C40   A    
C31   C35   S    
C47   C119  S    
C24   C40   A    
Cr12  O36   S    
C6    C118  S    
Cr10  O14   S    
C67   C71   A    
C4    O28   A    
C61   C65   A    
Cr12  O40   S    
Cr8   O28   S    
C91   O3    A    
C41   C54   A    
Cr3   O47   S    
Cr11  O39   S    
C79   H23   S    
C62   C99   S    
C20   C36   S    
C73   H17   S    
C58   H12   S    
C30   H60   S    
C32   I4    S    
C21   C37   A    
C66   C70   A    
C59   H9    S    
C34   H66   S    
C49   C50   A    
C22   C26   A    
C91   O39   A    
C74   C94   A    
C70   C94   A    
C104  O12   A    
C111  C120  S    
C19   C35   S    
Cr8   O8    S    
Cr3   O3    S    
C4    C9    S    
C99   O47   A    
C107  O15   A    
C81   C85   S    
Cr6   O18   S    
C57   H11   S    
C59   H15   S    
C74   C78   A    
C90   O2    A    
Cr5   O17   S    
