data_mof_unit_24036.cif
_audit_creation_date              2013-03-05T15:44:40-0500
_audit_creation_method            fapswitch 2.2
_symmetry_space_group_name_H-M    P1
_symmetry_Int_Tables_number       1
_space_group_crystal_system       triclinic
_cell_length_a                    25.036211
_cell_length_b                    7.172784
_cell_length_c                    14.416428
_cell_angle_alpha                 90.105269
_cell_angle_beta                  102.794149
_cell_angle_gamma                 88.267446
_cell_volume                      2523.42995501

loop_
_atom_site_label
_atom_site_type_symbol
_atom_site_description
_atom_site_fract_x
_atom_site_fract_y
_atom_site_fract_z
_atom_type_partial_charge
O1    O     O_R   0.319150 0.364170 0.330530 -0.589344
O2    O     O_R   0.680850 0.635830 0.669470 -0.589367
O3    O     O_R   0.180850 0.864170 0.169470 -0.573724
O4    O     O_R   0.819150 0.135830 0.830530 -0.573725
O5    O     O_R   0.210330 0.696850 0.354180 -0.575627
O6    O     O_R   0.789670 0.303150 0.645820 -0.575643
O7    O     O_R   0.289670 0.196850 0.145820 -0.582691
O8    O     O_R   0.710330 0.803150 0.854180 -0.582702
C1    C     C_R   0.197125 0.526976 0.378011 1.145948
C2    C     C_R   0.802875 0.473024 0.621989 1.145943
C3    C     C_R   0.302664 0.023784 0.121865 1.147078
C4    C     C_R   0.697337 0.976216 0.878135 1.147099
O9    O     O_R   0.320550 0.694110 0.341970 -0.568455
O10   O     O_R   0.679450 0.305890 0.658030 -0.568441
O11   O     O_R   0.179450 0.194110 0.158030 -0.583909
O12   O     O_R   0.820550 0.805890 0.841970 -0.583898
O13   O     O_R   0.291860 0.861000 0.157170 -0.580597
O14   O     O_R   0.708140 0.139000 0.842830 -0.580555
O15   O     O_R   0.208140 0.361000 0.342830 -0.577946
O16   O     O_R   0.791860 0.639000 0.657170 -0.577945
C5    C     C_R   0.341963 0.522879 0.361447 1.045645
C6    C     C_R   0.658037 0.477120 0.638555 1.045729
C7    C     C_R   0.157785 0.028319 0.138795 1.052282
C8    C     C_R   0.842215 0.971681 0.861206 1.052255
O17   O     O_3   0.240460 0.529330 0.189380 -0.286624
O18   O     O_3   0.759540 0.470670 0.810620 -0.286612
O19   O     O_3   0.259540 0.029330 0.310620 -0.290323
O20   O     O_3   0.740460 0.970670 0.689380 -0.290338
V1    V     V_3+5 0.251770 0.805510 0.261240 1.334551
V2    V     V_3+5 0.748230 0.194490 0.738760 1.334562
V3    V     V_3+5 0.248230 0.305510 0.238760 1.316092
V4    V     V_3+5 0.751770 0.694490 0.761240 1.316094
C9    C     C_R   0.101788 0.031151 0.076773 -0.367239
C10   C     C_R   0.898210 0.968853 0.923231 -0.367239
C11   C     C_R   0.397532 0.502235 0.423741 -0.364357
C12   C     C_R   0.602467 0.497767 0.576268 -0.364375
C13   C     C_R   0.964550 0.813435 0.050721 0.892407
C14   C     C_R   0.035447 0.186577 0.949286 0.892418
C15   C     C_R   0.539824 0.681726 0.455207 0.906334
C16   C     C_R   0.460172 0.318293 0.544818 0.906310
C17   C     C_R   0.911762 0.832791 0.994702 -0.237200
C18   C     C_R   0.088234 0.167217 0.005304 -0.237213
C19   C     C_R   0.592175 0.643647 0.509829 -0.239766
C20   C     C_R   0.407821 0.356379 0.490196 -0.239768
C21   C     C_R   0.938958 0.090254 0.908278 0.397286
C22   C     C_R   0.061040 0.909752 0.091728 0.397286
C23   C     C_R   0.558985 0.385485 0.587521 0.399662
C24   C     C_R   0.441016 0.614493 0.412478 0.399685
C25   C     C_R   0.993447 0.070534 0.964074 -0.282393
C26   C     C_R   0.006551 0.929473 0.035931 -0.282397
C27   C     C_R   0.504912 0.424481 0.533340 -0.284474
C28   C     C_R   0.495086 0.575512 0.466672 -0.284479
H1    H     H_    0.119076 0.260668 0.992484 0.202678
H2    H     H_    0.880920 0.739342 0.007524 0.202680
H3    H     H_    0.374726 0.269585 0.499731 0.197124
H4    H     H_    0.625266 0.730466 0.500301 0.197132
C29   C     C_R   0.664573 0.991032 0.950140 -0.525847
C30   C     C_R   0.335427 0.008969 0.049860 -0.525871
C31   C     C_R   0.835641 0.473966 0.549575 -0.529250
C32   C     C_R   0.164359 0.526034 0.450426 -0.529243
C33   C     C_R   0.656856 0.065529 0.109748 -0.172266
C34   C     C_R   0.343144 0.934483 0.890251 -0.172270
C35   C     C_R   0.844561 0.410625 0.389334 -0.174605
C36   C     C_R   0.155440 0.589379 0.610667 -0.174603
C37   C     C_R   0.688499 0.048594 0.042049 0.676874
C38   C     C_R   0.311501 0.951415 0.957951 0.676892
C39   C     C_R   0.812798 0.416533 0.457101 0.680315
C40   C     C_R   0.187203 0.583470 0.542899 0.680315
C41   C     C_R   0.608413 0.957712 0.924491 0.735130
C42   C     C_R   0.391587 0.042285 0.075511 0.735116
C43   C     C_R   0.891094 0.518283 0.575455 0.740649
C44   C     C_R   0.108907 0.481716 0.424547 0.740651
C45   C     C_R   0.574095 0.996077 0.989214 -0.112534
C46   C     C_R   0.425905 0.003924 0.010787 -0.112509
C47   C     C_R   0.925963 0.490150 0.510562 -0.115655
C48   C     C_R   0.074038 0.509850 0.489439 -0.115659
C49   C     C_R   0.600165 0.037915 0.084684 -0.255843
C50   C     C_R   0.399835 0.962092 0.915316 -0.255851
C51   C     C_R   0.900637 0.448239 0.414758 -0.253233
C52   C     C_R   0.099364 0.551763 0.585243 -0.253227
C53   C     C_R   0.515410 0.991653 0.963809 0.002809
C54   C     C_R   0.484590 0.008349 0.036192 0.002817
C55   C     C_R   0.984471 0.503912 0.536173 0.002756
C56   C     C_R   0.015530 0.496089 0.463829 0.002752
C57   C     C_R   0.513646 0.022330 0.131642 -0.190947
C58   C     C_R   0.486355 0.977675 0.868358 -0.190997
C59   C     C_R   0.986776 0.481611 0.368248 -0.189690
C60   C     C_R   0.013225 0.518392 0.631754 -0.189687
C61   C     C_R   0.569762 0.045998 0.154901 0.821918
C62   C     C_R   0.430239 0.954011 0.845099 0.821941
C63   C     C_R   0.931117 0.449264 0.344633 0.821545
C64   C     C_R   0.068884 0.550740 0.655368 0.821538
H5    H     H_    0.676817 0.102033 0.181796 0.232516
H6    H     H_    0.323183 0.897985 0.818202 0.232515
H7    H     H_    0.825243 0.373942 0.316991 0.231819
H8    H     H_    0.174758 0.626064 0.683010 0.231818
H9    H     H_    0.494498 0.011220 0.191055 0.271903
H10   H     H_    0.505503 0.988787 0.808946 0.271895
H11   H     H_    0.005769 0.498776 0.309026 0.273469
H12   H     H_    0.994232 0.501228 0.690976 0.273470
N1    N     N_R   0.074623 0.772651 0.166022 0.269934
O21   O     O_R   0.085140 0.600511 0.145696 -0.305576
O22   O     O_R   0.081206 0.823035 0.254467 -0.376038
N2    N     N_R   0.925375 0.227358 0.833988 0.269933
O23   O     O_R   0.914836 0.399483 0.854312 -0.305599
O24   O     O_R   0.918818 0.176981 0.745541 -0.376013
N3    N     N_R   0.430458 0.761282 0.342954 0.270763
O25   O     O_R   0.424732 0.932919 0.369330 -0.301924
O26   O     O_R   0.420903 0.721261 0.252852 -0.379342
N4    N     N_R   0.569549 0.238624 0.657006 0.270784
O27   O     O_R   0.575214 0.066994 0.630566 -0.301922
O28   O     O_R   0.579195 0.278560 0.747128 -0.379392
F1    F     F_    0.973652 0.679237 0.119125 -0.631949
F2    F     F_    0.026343 0.320786 0.880890 -0.631952
F3    F     F_    0.533829 0.824387 0.391673 -0.625643
F4    F     F_    0.466162 0.175675 0.608372 -0.625678
F5    F     F_    0.594738 0.070004 0.247755 -0.635884
F6    F     F_    0.405263 0.930010 0.752245 -0.635882
F7    F     F_    0.906585 0.425221 0.251570 -0.640735
F8    F     F_    0.093416 0.574785 0.748431 -0.640738
F9    F     F_    0.410391 0.122672 0.161343 -0.667200
F10   F     F_    0.589610 0.877320 0.838661 -0.667211
F11   F     F_    0.091352 0.402764 0.338006 -0.662440
F12   F     F_    0.908649 0.597232 0.661996 -0.662440
F13   F     F_    0.257099 0.918162 0.932989 -0.670730
F14   F     F_    0.742901 0.081853 0.067008 -0.670730
F15   F     F_    0.240829 0.627527 0.568310 -0.667471
F16   F     F_    0.759172 0.372477 0.431690 -0.667470

loop_
_geom_bond_atom_site_label_1
_geom_bond_atom_site_label_2
_geom_bond_distance
_ccdc_geom_bond_type
O17   V3    1.745264 S    
O1    C5    1.321171 A    
N1    O21   1.301120 A    
C59   C63   1.385895 A    
O19   V1    1.753659 S    
O13   V1    2.027335 S    
O3    C7    1.327785 A    
C20   H3    1.083949 S    
C56   C59   1.411516 A    
C44   C48   1.424226 A    
O15   V3    2.014295 S    
C48   C56   1.435557 A    
N2    O24   1.300988 A    
C53   C54   1.431508 A    
C14   C25   1.413091 A    
C35   C51   1.404555 A    
C50   C62   1.394944 A    
O7    C3    1.337849 A    
C49   C61   1.394939 A    
O5    C1    1.337235 A    
C54   C57   1.411848 A    
C9    C18   1.399316 A    
C62   F6    1.359237 S    
O9    V1    1.997708 S    
O10   V2    1.997708 S    
C14   C18   1.390935 A    
C18   H1    1.083808 S    
O4    C8    1.327780 A    
C33   H5    1.083590 S    
C24   N3    1.432737 S    
C13   F1    1.357066 S    
C32   C44   1.401609 A    
C35   H7    1.083582 S    
O1    V3    2.020575 S    
C12   C23   1.411298 A    
O2    V4    2.020573 S    
O3    V1    1.999118 S    
N4    O27   1.300997 A    
C31   C39   1.395919 A    
C1    O15   1.338086 A    
C60   C64   1.385896 A    
C2    O16   1.338087 A    
C7    C9    1.486108 S    
O2    C6    1.321166 A    
N3    O25   1.300966 A    
C41   C45   1.422811 A    
O14   V2    2.027335 S    
C3    C30   1.460533 S    
C16   C20   1.390905 A    
C51   C63   1.395148 A    
C53   C58   1.411847 A    
O11   C7    1.325305 A    
C55   C60   1.411516 A    
N1    O22   1.300920 A    
C9    C22   1.413254 A    
C36   C52   1.404557 A    
C10   C17   1.399308 A    
C46   C54   1.434677 A    
C11   C24   1.411282 A    
C45   C53   1.434677 A    
N2    O23   1.301136 A    
C30   C38   1.395098 A    
O5    V1    2.036544 S    
C22   N1    1.432553 S    
C35   C39   1.389444 A    
O7    V3    2.010481 S    
C34   C38   1.389625 A    
C27   C28   1.428572 A    
O8    V4    2.010482 S    
C43   F12   1.356462 S    
C36   H8    1.083585 S    
C58   C62   1.385873 A    
C33   C49   1.404950 A    
C57   C61   1.385872 A    
O18   V4    1.745265 S    
C30   C42   1.400185 A    
C15   C19   1.390890 A    
C8    C10   1.486094 S    
C16   F4    1.357102 S    
C52   C64   1.395150 A    
C42   C46   1.422816 A    
C21   N2    1.432533 S    
C55   C56   1.432426 A    
C21   C25   1.425046 A    
O8    C4    1.337848 A    
O9    C5    1.330226 A    
C10   C21   1.413259 A    
C11   C20   1.398863 A    
C40   F15   1.357934 S    
C60   H12   1.074210 S    
C4    C29   1.460534 S    
O6    V2    2.036543 S    
C61   F5    1.359237 S    
C15   F3    1.357136 S    
C34   H6    1.083592 S    
C44   F11   1.356461 S    
C63   F7    1.359243 S    
C23   N4    1.432746 S    
C36   C40   1.389445 A    
O16   V4    2.014295 S    
C3    O13   1.333333 A    
C34   C50   1.404950 A    
C48   C52   1.422017 A    
C29   C37   1.395100 A    
O6    C2    1.337235 A    
C23   C27   1.424994 A    
O11   V3    2.037258 S    
C5    C11   1.482781 S    
O12   V4    2.037256 S    
C16   C27   1.412917 A    
C6    C12   1.482772 S    
C22   C26   1.425065 A    
C38   F13   1.357856 S    
C1    C32   1.463739 S    
C37   F14   1.357857 S    
O10   C6    1.330220 A    
O20   V2    1.753658 S    
C2    C31   1.463736 S    
C64   F8    1.359243 S    
C39   F16   1.357935 S    
C43   C47   1.424228 A    
C13   C26   1.413098 A    
C42   F9    1.356839 S    
C47   C55   1.435558 A    
N3    O26   1.300801 A    
C41   F10   1.356838 S    
C14   F2    1.357046 S    
C15   C28   1.412923 A    
C13   C17   1.390940 A    
C58   H10   1.074354 S    
N4    O28   1.300859 A    
C17   H2    1.083818 S    
C57   H9    1.074351 S    
C59   H11   1.074209 S    
C33   C37   1.389623 A    
C19   H4    1.083952 S    
C24   C28   1.424992 A    
C32   C40   1.395920 A    
O12   C8    1.325310 A    
C25   C26   1.427506 A    
C46   C50   1.422257 A    
C4    O14   1.333334 A    
C45   C49   1.422256 A    
C12   C19   1.398841 A    
C29   C41   1.400186 A    
C47   C51   1.422018 A    
O4    V2    1.999119 S    
C31   C43   1.401609 A    
