data_mof_unit_9210.cif
_audit_creation_date              2013-03-05T15:54:18-0500
_audit_creation_method            fapswitch 2.2
_symmetry_space_group_name_H-M    P1
_symmetry_Int_Tables_number       1
_space_group_crystal_system       triclinic
_cell_length_a                    20.638911
_cell_length_b                    7.530117
_cell_length_c                    18.723492
_cell_angle_alpha                 90.168207
_cell_angle_beta                  107.58363
_cell_angle_gamma                 89.809509
_cell_volume                      2773.90244753

loop_
_atom_site_label
_atom_site_type_symbol
_atom_site_description
_atom_site_fract_x
_atom_site_fract_y
_atom_site_fract_z
_atom_type_partial_charge
O1    O     O_R   0.422200 0.494350 0.423850 -0.572326
O2    O     O_R   0.577800 0.994350 0.576150 -0.570723
O3    O     O_R   0.555980 0.819730 0.435060 -0.560785
O4    O     O_R   0.444020 0.319730 0.564940 -0.578697
C1    C     C_R   0.574960 0.656141 0.421197 0.934715
C2    C     C_R   0.425053 0.156758 0.578862 0.937686
O5    O     O_R   0.421370 0.823790 0.415230 -0.573891
O6    O     O_R   0.578630 0.323790 0.584770 -0.570760
O7    O     O_R   0.442220 0.998380 0.556180 -0.571375
O8    O     O_R   0.557780 0.498380 0.443820 -0.572938
C3    C     C_R   0.396963 0.655712 0.394827 0.938029
C4    C     C_R   0.603035 0.155635 0.605181 0.947720
O9    O     O_3   0.507000 0.662200 0.546270 -0.289673
O10   O     O_3   0.493000 0.162200 0.453730 -0.284998
V1    V     V_3+5 0.498700 0.935390 0.491420 1.258467
V2    V     V_3+5 0.501300 0.435390 0.508580 1.250117
C5    C     C_1   0.666032 0.145840 0.667758 -0.221657
C6    C     C_1   0.333956 0.646024 0.332249 -0.223334
C7    C     C_1   0.718855 0.134708 0.719577 0.096874
C8    C     C_1   0.281132 0.634801 0.280437 0.094787
C9    C     C_1   0.781146 0.120437 0.780434 0.090600
C10   C     C_1   0.218841 0.620350 0.219585 0.090978
C11   C     C_1   0.833967 0.109311 0.832256 -0.240372
C12   C     C_1   0.166024 0.609131 0.167763 -0.238393
C13   C     C_3   0.249153 0.290567 0.812779 -0.440296
C14   C     C_3   0.745463 0.792447 0.181161 -0.454205
C15   C     C_3   0.254831 0.951246 0.802248 -0.385391
C16   C     C_3   0.746700 0.457675 0.200430 -0.378070
C17   C     C_3   0.312507 0.976748 0.762099 0.280897
C18   C     C_3   0.687529 0.486074 0.238172 0.238289
H1    H     H_    0.350678 0.274443 0.808315 0.197268
H2    H     H_    0.645931 0.795884 0.197729 0.185028
H3    H     H_    0.224562 0.841897 0.770587 0.246535
H4    H     H_    0.779242 0.360843 0.237623 0.246620
H5    H     H_    0.309339 0.865554 0.723483 0.218943
H6    H     H_    0.689104 0.374481 0.276398 0.175067
C19   C     C_1   0.380009 0.154007 0.624819 -0.121859
C20   C     C_1   0.620334 0.652358 0.375649 -0.081922
C21   C     C_3   0.204152 0.115829 0.788844 -0.091489
C22   C     C_3   0.794425 0.626823 0.209006 -0.133475
C23   C     C_3   0.302190 0.297768 0.766007 0.373827
C24   C     C_3   0.698157 0.806752 0.235381 0.441001
C25   C     C_3   0.293554 0.142837 0.708893 -0.218143
C26   C     C_3   0.707358 0.649456 0.292086 -0.252221
C27   C     C_3   0.216402 0.137843 0.653266 -0.464830
C28   C     C_3   0.784948 0.630954 0.346428 -0.419297
C29   C     C_3   0.161601 0.115912 0.700448 0.171817
C30   C     C_3   0.837649 0.648242 0.296629 0.191205
C31   C     C_1   0.341954 0.153221 0.663164 0.280520
C32   C     C_1   0.658834 0.653978 0.337811 0.346152
C33   C     C_1   0.156929 0.104934 0.836247 0.083537
C34   C     C_1   0.842192 0.611737 0.162540 0.098467
C35   C     C_1   0.119288 0.104819 0.875072 -0.185558
C36   C     C_1   0.880329 0.607998 0.124369 -0.191619
O11   O     O_R   0.942270 0.764870 0.056240 -0.576552
O12   O     O_R   0.057730 0.264870 0.943760 -0.576298
O13   O     O_R   0.078640 0.431230 0.084780 -0.572739
O14   O     O_R   0.921360 0.931230 0.915220 -0.572191
C37   C     C_R   0.103029 0.599449 0.105168 0.936325
C38   C     C_R   0.896965 0.099525 0.894835 0.934343
O15   O     O_R   0.944030 0.435400 0.064960 -0.572606
O16   O     O_R   0.055970 0.935400 0.935040 -0.570639
O17   O     O_R   0.922190 0.260960 0.923840 -0.573331
O18   O     O_R   0.077810 0.760960 0.076160 -0.573314
C39   C     C_R   0.925460 0.603069 0.078555 0.935914
C40   C     C_R   0.074516 0.102393 0.921362 0.933639
O19   O     O_3   0.993030 0.592980 0.953770 -0.287825
O20   O     O_3   0.006970 0.092980 0.046230 -0.288999
V3    V     V_3+5 0.001290 0.319740 0.008580 1.215326
V4    V     V_3+5 0.998710 0.819740 0.991420 1.217757
C41   C     C_2   0.203835 0.451855 0.805027 0.705611
H7    H     H_    0.180343 0.483978 0.848214 -0.011239
O21   O     O_2   0.190374 0.543956 0.749717 -0.539405
C42   C     C_2   0.786339 0.954220 0.171967 0.721997
H8    H     H_    0.806371 0.962118 0.124569 -0.046838
O22   O     O_2   0.800226 0.073726 0.217060 -0.547058
S1    S     S_3+6 0.332029 0.503717 0.743384 -0.003916
O23   O     O_2   0.326431 0.620875 0.805175 -0.250048
O24   O     O_2   0.405886 0.487816 0.747811 -0.249503
O25   O     O_3   0.289128 0.588804 0.659907 -0.497927
H9    H     H_    0.317805 0.564937 0.626992 0.379503
S2    S     S_3+6 0.684210 0.015416 0.269305 -0.020817
O26   O     O_2   0.669740 0.126173 0.200769 -0.229658
O27   O     O_2   0.622410 0.015894 0.296061 -0.274006
O28   O     O_3   0.751726 0.090182 0.336588 -0.579986
H10   H     H_    0.733992 0.120054 0.378694 0.397930
C43   C     C_2   0.206389 0.995000 0.592535 0.865692
H11   H     H_    0.157355 0.985657 0.549733 0.046356
O29   O     O_2   0.251847 0.896706 0.587432 -0.579588
C44   C     C_2   0.791107 0.453956 0.387931 0.546960
H12   H     H_    0.821238 0.346040 0.378229 0.171501
O30   O     O_2   0.760964 0.428952 0.434154 -0.579853
C45   C     C_2   0.287529 0.288222 0.897003 0.580869
H13   H     H_    0.273506 0.197428 0.934553 0.001982
O31   O     O_2   0.331652 0.397509 0.924795 -0.467821
C46   C     C_2   0.700951 0.768800 0.100062 0.603857
H14   H     H_    0.714435 0.674355 0.063189 -0.000833
O32   O     O_2   0.653550 0.869993 0.072549 -0.467914
C47   C     C_2   0.272736 0.875197 0.881472 0.731280
H15   H     H_    0.231717 0.830788 0.902087 -0.056279
O33   O     O_2   0.330618 0.855300 0.922198 -0.438819
C48   C     C_2   0.730767 0.366836 0.123946 0.770431
H16   H     H_    0.772537 0.330184 0.102950 -0.053262
O34   O     O_2   0.673634 0.326923 0.085949 -0.453387
S3    S     S_3+6 0.403879 0.976380 0.822944 0.055402
O35   O     O_2   0.432225 0.793725 0.843903 -0.100148
O36   O     O_2   0.448555 0.063299 0.783148 -0.306290
O37   O     O_3   0.414598 0.089534 0.903429 -0.473563
H17   H     H_    0.464396 0.093610 0.927594 0.413641
S4    S     S_3+6 0.596304 0.487912 0.177743 0.046731
O38   O     O_2   0.564914 0.306784 0.171060 -0.124022
O39   O     O_2   0.553850 0.605902 0.210809 -0.316480
O40   O     O_3   0.586021 0.563390 0.090686 -0.459347
H18   H     H_    0.536364 0.560822 0.065564 0.414699
C49   C     C_2   0.106245 0.260999 0.680704 0.657630
H19   H     H_    0.086802 0.308872 0.623589 -0.000201
O41   O     O_2   0.075334 0.307099 0.723934 -0.542856
C50   C     C_2   0.874432 0.828327 0.309413 0.625835
H20   H     H_    0.861207 0.933950 0.341517 0.057560
O42   O     O_2   0.918564 0.863087 0.280374 -0.520761
S5    S     S_3+6 0.106134 0.916499 0.673200 -0.028476
O43   O     O_2   0.084369 0.849625 0.737906 -0.233893
O44   O     O_2   0.042911 0.965315 0.611187 -0.292822
O45   O     O_3   0.141926 0.745958 0.641042 -0.501415
H21   H     H_    0.103419 0.671401 0.612081 0.382203
S6    S     S_3+6 0.911121 0.493505 0.326529 -0.038085
O46   O     O_2   0.965542 0.542871 0.291926 -0.214003
O47   O     O_2   0.941108 0.507190 0.410228 -0.311314
O48   O     O_3   0.892201 0.280334 0.304102 -0.515953
H22   H     H_    0.934439 0.214084 0.329222 0.401144
C51   C     C_2   0.204563 0.309293 0.607046 0.450006
H23   H     H_    0.185618 0.426974 0.626583 0.155913
O49   O     O_2   0.218999 0.321473 0.548434 -0.559723
C52   C     C_2   0.803655 0.760443 0.413108 0.706143
H24   H     H_    0.856882 0.782168 0.443427 0.019401
O50   O     O_2   0.761479 0.824790 0.439381 -0.558430

loop_
_geom_bond_atom_site_label_1
_geom_bond_atom_site_label_2
_geom_bond_distance
_ccdc_geom_bond_type
C21   C33   1.505994 S    
C43   H11   1.086965 S    
C3    C6    1.465856 S    
C13   C45   1.536198 S    
C45   H13   1.082844 S    
C15   C17   1.600610 S    
O1    C3    1.368086 A    
O2    C4    1.367842 A    
C2    O7    1.346590 A    
C36   C39   1.444706 S    
S1    O23   1.484681 D    
C15   H3    1.093843 S    
C29   C49   1.540919 S    
C24   S2    1.748369 S    
S3    O36   1.501919 D    
C15   C47   1.528796 S    
C37   O18   1.368905 A    
S6    O46   1.504449 D    
C42   O22   1.206587 D    
C18   S4    1.880969 S    
C38   O17   1.368661 A    
C7    C9    1.441333 S    
O48   H22   0.990351 S    
C23   S1    1.769611 S    
C29   S5    1.865378 S    
C16   C22   1.590567 S    
C26   C32   1.501583 S    
C49   H19   1.084706 S    
O37   H17   0.990542 S    
O16   V4    2.008851 S    
C27   C29   1.640948 S    
C50   H20   1.078552 S    
S5    O45   1.677878 S    
C5    C7    1.223804 T    
S4    O38   1.500503 D    
O17   V3    1.952987 S    
C26   C28   1.622948 S    
O20   V3    1.839060 S    
C49   O41   1.221290 D    
C46   O32   1.223090 D    
C4    C5    1.465670 S    
C13   C41   1.510766 S    
O18   V4    1.952637 S    
O5    V1    1.978570 S    
C16   H4    1.088512 S    
C45   O31   1.222063 D    
C1    C20   1.444759 S    
C17   C25   1.574240 S    
C23   C25   1.554123 S    
C18   C26   1.564146 S    
C24   C26   1.565350 S    
O11   C39   1.368491 A    
C34   C36   1.212724 T    
S4    O39   1.503265 D    
S1    O24   1.505762 D    
C14   C46   1.529060 S    
C11   C38   1.465686 S    
S3    O37   1.684696 S    
C28   C30   1.638246 S    
C42   H8    1.088216 S    
O16   C40   1.362966 A    
C15   C21   1.589823 S    
C17   S3    1.885762 S    
O4    C2    1.339373 A    
C13   C23   1.596232 S    
C41   O21   1.208193 D    
O14   V4    1.977600 S    
C30   C50   1.538726 S    
S6    O48   1.675290 S    
O3    C1    1.339628 A    
O28   H10   0.989364 S    
S2    O26   1.484762 D    
C33   C35   1.213737 T    
O4    V2    2.008896 S    
O5    C3    1.373566 A    
O2    V1    1.953190 S    
C16   C48   1.529054 S    
C28   C52   1.537093 S    
C19   C31   1.213709 T    
C44   O30   1.224141 D    
C47   H15   1.085181 S    
O6    C4    1.373095 A    
C46   H14   1.082487 S    
C2    C19   1.445236 S    
O1    V2    1.952840 S    
C48   O34   1.217022 D    
C35   C40   1.445502 S    
C25   C27   1.618606 S    
S4    O40   1.679470 S    
S5    O43   1.502361 D    
C20   C32   1.213942 T    
C47   O33   1.216608 D    
C8    C10   1.441511 S    
C27   C51   1.533661 S    
S2    O27   1.504613 D    
C9    C11   1.223808 T    
C10   C12   1.223915 T    
C51   H23   1.074323 S    
O3    V1    2.002792 S    
C14   C24   1.610284 S    
C21   C29   1.622453 S    
O40   H18   0.990337 S    
S1    O25   1.674315 S    
O15   V3    2.002748 S    
C22   C30   1.621282 S    
S6    O47   1.504354 D    
H1    C23   1.086517 S    
C27   C43   1.531340 S    
C25   C31   1.501581 S    
O25   H9    0.990681 S    
C51   O49   1.224677 D    
C52   O50   1.220245 D    
C52   H24   1.086120 S    
C28   C44   1.530262 S    
S2    O28   1.669179 S    
S3    O35   1.499039 D    
C17   H5    1.093794 S    
C18   H6    1.099425 S    
O19   V4    1.835938 S    
C16   C18   1.598520 S    
O7    V1    1.975089 S    
C41   H7    1.087377 S    
C22   C34   1.502875 S    
C13   C21   1.596228 S    
C14   C22   1.589183 S    
C44   H12   1.069627 S    
C12   C37   1.465860 S    
O12   C40   1.369207 A    
C14   C42   1.523503 S    
C6    C8    1.223914 T    
C48   H16   1.084650 S    
C50   O42   1.222861 D    
S5    O44   1.506596 D    
O11   V4    1.964920 S    
O13   C37   1.374393 A    
C30   S6    1.857318 S    
O15   C39   1.363673 A    
C1    O8    1.346436 A    
O6    V2    1.977620 S    
O12   V3    1.961788 S    
O9    V2    1.836541 S    
C43   O29   1.219142 D    
H2    C24   1.098491 S    
O10   V1    1.839664 S    
O8    V2    1.978659 S    
O13   V3    1.978549 S    
O14   C38   1.373926 A    
O45   H21   0.990776 S    
