data_mof_unit_14124.cif
_audit_creation_date              2012-12-11T15:34:39-0500
_audit_creation_method            fapswitch 2.2
_symmetry_space_group_name_H-M    P1
_symmetry_Int_Tables_number       1
_space_group_crystal_system       triclinic
_cell_length_a                    15.064027
_cell_length_b                    15.078657
_cell_length_c                    34.961541
_cell_angle_alpha                 90.581902
_cell_angle_beta                  90.076423
_cell_angle_gamma                 60.045044
_cell_volume                      6880.11110565

loop_
_atom_site_label
_atom_site_type_symbol
_atom_type_description
_atom_site_fract_x
_atom_site_fract_y
_atom_site_fract_z
_atom_type_partial_charge
C1    C     C_R   0.302755 0.608164 0.555792 0.542951
C2    C     C_R   0.226943 0.715683 0.388155 -0.125890
C3    C     C_R   0.755595 0.137016 0.267536 -0.118515
C4    C     C_R   0.761444 0.130054 0.227760 -0.114788
C5    C     C_R   0.674435 0.190919 0.205473 0.030681
C6    C     C_R   0.726299 0.220395 0.349560 -0.122476
C7    C     C_R   0.709421 0.241885 0.388606 -0.127361
C8    C     C_R   0.553497 0.232661 0.384485 -0.125453
C9    C     C_R   0.736301 0.576685 0.649343 -0.130544
C10   C     C_R   0.570143 0.211799 0.345469 -0.122944
C11   C     C_R   0.654345 0.209703 0.327510 0.030915
C12   C     C_R   0.620407 0.252732 0.406039 0.022678
C13   C     C_R   0.202701 0.720536 0.349585 -0.122547
C14   C     C_R   0.082326 0.709986 0.094241 -0.023731
C15   C     C_R   0.103640 0.615677 0.109513 -0.146843
C16   C     C_R   0.138519 0.591090 0.146919 -0.174649
C17   C     C_R   0.151763 0.660682 0.169651 0.031685
C18   C     C_R   0.133824 0.754084 0.154058 0.281799
C19   C     C_R   0.102176 0.776616 0.116115 -0.103677
C20   C     C_R   0.249644 0.653204 0.228024 -0.073165
C21   C     C_3   0.862387 0.254414 0.651195 -0.140317
C22   C     C_3   0.047568 0.899633 0.189590 -0.129558
C23   C     C_R   0.196084 0.640103 0.332022 0.030865
C24   C     C_R   0.564685 0.723567 0.650359 -0.123393
C25   C     C_R   0.246050 0.629593 0.409515 0.023079
C26   C     C_R   0.735787 0.025648 0.943390 0.543457
C27   C     C_R   0.745786 0.722799 0.945129 0.545546
C28   C     C_R   0.038200 0.734014 0.948334 0.543073
C29   C     C_R   0.723253 0.038402 0.052928 0.542850
C30   C     C_R   0.733534 0.734539 0.054741 0.543153
C31   C     C_R   0.654888 0.656265 0.669819 0.034582
C32   C     C_R   0.027311 0.744991 0.057891 0.547404
C33   C     C_R   0.552993 0.706325 0.611887 -0.132855
C34   C     C_R   0.669161 0.669995 0.789140 0.344915
C35   C     C_R   0.661382 0.663493 0.711688 0.344462
C36   C     C_R   0.758603 0.595912 0.850640 -0.123401
C37   C     C_R   0.776307 0.607997 0.888933 -0.131302
C38   C     C_R   0.626979 0.777962 0.889469 -0.132545
C39   C     C_R   0.609182 0.765795 0.851156 -0.124765
C40   C     C_R   0.677352 0.676318 0.830973 0.034035
C41   C     C_R   0.610667 0.588192 0.555306 0.545093
C42   C     C_R   0.257948 0.651295 0.267637 -0.121582
C43   C     C_R   0.713194 0.700804 0.908222 0.023095
C44   C     C_R   0.721792 0.074308 0.905823 0.021909
C45   C     C_R   0.633102 0.099816 0.884558 -0.124321
C46   C     C_R   0.628751 0.122673 0.845927 -0.121347
C47   C     C_R   0.712252 0.121864 0.828006 0.030771
C48   C     C_R   0.797565 0.104784 0.849732 -0.119586
C49   C     C_R   0.802566 0.080664 0.888439 -0.127625
C50   C     C_R   0.731384 0.204793 0.769676 -0.120593
C51   C     C_R   0.724417 0.217843 0.730125 -0.071791
C52   C     C_R   0.700566 0.156400 0.706630 0.059928
C53   C     C_R   0.189598 0.636597 0.290282 0.024109
C54   C     C_R   0.590369 0.300653 0.553582 0.547769
C55   C     C_R   0.685202 0.080854 0.723269 -0.121289
C56   C     C_R   0.690715 0.068848 0.762791 -0.116903
C57   C     C_R   0.712414 0.131677 0.786248 0.021293
C58   C     C_R   0.590600 0.190477 0.649577 -0.174364
C59   C     C_R   0.563480 0.224233 0.612232 -0.144376
C60   C     C_R   0.722919 0.224761 0.604456 -0.111893
C61   C     C_R   0.749745 0.193810 0.642619 0.286872
C62   C     C_R   0.681994 0.177684 0.665376 0.044007
C63   C     C_R   0.627808 0.244912 0.589771 -0.020817
C64   C     C_R   0.115923 0.618998 0.272887 -0.121541
C65   C     C_R   0.091883 0.697264 0.911317 0.021139
C66   C     C_R   0.299934 0.610339 0.446187 0.544174
C67   C     C_R   0.123041 0.757675 0.891409 -0.124351
C68   C     C_R   0.147245 0.740029 0.852640 -0.120577
C69   C     C_R   0.141852 0.661082 0.833198 0.030455
C70   C     C_R   0.120346 0.594538 0.853739 -0.117528
C71   C     C_R   0.095291 0.612606 0.892572 -0.126020
C72   C     C_R   0.212457 0.561056 0.772451 -0.110274
C73   C     C_R   0.221192 0.557012 0.732632 -0.107714
C74   C     C_R   0.165989 0.646295 0.710917 0.031076
C75   C     C_R   0.107005 0.621842 0.233201 -0.132571
C76   C     C_R   0.099878 0.738981 0.729733 -0.109527
C77   C     C_R   0.092029 0.743138 0.769471 -0.107344
C78   C     C_R   0.607866 0.589667 0.445263 0.543104
C79   C     C_R   0.149408 0.654590 0.791151 0.030482
C80   C     C_R   0.193438 0.723183 0.652336 -0.113053
C81   C     C_R   0.224904 0.714908 0.614377 -0.121425
C82   C     C_R   0.231807 0.551328 0.608666 -0.127366
C83   C     C_R   0.199874 0.559854 0.646647 -0.119744
C84   C     C_R   0.183826 0.644205 0.669223 0.032354
C85   C     C_R   0.248108 0.627133 0.592599 0.020614
C86   C     C_R   0.172243 0.641467 0.210664 0.040514
C87   C     C_R   0.692131 0.718716 0.090624 0.020514
C88   C     C_R   0.606600 0.800686 0.108536 -0.127325
C89   C     C_R   0.580344 0.791507 0.145992 -0.118317
C90   C     C_R   0.587886 0.302784 0.443803 0.543848
C91   C     C_R   0.638997 0.700209 0.166101 0.032179
C92   C     C_R   0.719881 0.616094 0.147166 -0.120075
C93   C     C_R   0.746053 0.625191 0.109801 -0.124967
C94   C     C_R   0.635904 0.604670 0.223733 -0.117876
C95   C     C_R   0.635733 0.594840 0.263314 -0.118509
C96   C     C_R   0.622328 0.675502 0.287525 0.026772
C97   C     C_R   0.204929 0.559072 0.354069 -0.122412
C98   C     C_R   0.604974 0.767702 0.271564 -0.115792
C99   C     C_R   0.606043 0.777293 0.231917 -0.112171
C100  C     C_R   0.623481 0.695108 0.207631 0.031170
C101  C     C_R   0.550425 0.735451 0.353163 -0.121625
C102  C     C_R   0.631412 0.621609 0.592306 0.023873
C103  C     C_R   0.548344 0.715645 0.391984 -0.126665
C104  C     C_R   0.705415 0.553147 0.384140 -0.125219
C105  C     C_R   0.706861 0.572580 0.345344 -0.122614
C106  C     C_R   0.627529 0.662156 0.329329 0.029922
C107  C     C_R   0.623823 0.622524 0.407528 0.022173
C108  C     C_R   0.229984 0.553700 0.392668 -0.126857
C109  C     C_R   0.700678 0.099383 0.088396 0.021985
C110  C     C_R   0.776269 0.115905 0.105035 -0.131136
C111  C     C_R   0.764815 0.152494 0.142486 -0.128675
C112  C     C_R   0.677624 0.173221 0.163831 0.032006
C113  C     C_R   0.598239 0.165092 0.146095 -0.120450
C114  C     C_R   0.724749 0.559627 0.610941 -0.136145
C115  C     C_R   0.609572 0.128658 0.108632 -0.126913
C116  C     C_R   0.582391 0.261095 0.223606 -0.120792
C117  C     C_R   0.576429 0.267561 0.263354 -0.118652
C118  C     C_R   0.662483 0.204269 0.285568 0.027975
Cr1   Cr    Cr6+3 0.421670 0.426920 0.499620 1.010640
Cr2   Cr    Cr6+3 0.427030 0.651190 0.500980 1.012017
Cr3   Cr    Cr6+3 0.651280 0.421870 0.499380 1.008496
Cr4   Cr    Cr6+3 0.910810 0.908010 0.001130 1.011046
Cr5   Cr    Cr6+3 0.682800 0.909890 0.998370 1.011550
Cr6   Cr    Cr6+3 0.908370 0.682300 0.002180 1.011360
H1    H     H_    0.786931 0.494138 0.596545 0.124413
H2    H     H_    0.862551 0.104264 0.836271 0.107921
H3    H     H_    0.480271 0.755621 0.598233 0.127794
H4    H     H_    0.774674 0.236500 0.586602 0.123204
H5    H     H_    0.122043 0.822962 0.905065 0.128424
H6    H     H_    0.071741 0.564620 0.907136 0.126167
H7    H     H_    0.191055 0.498837 0.658727 0.104053
H8    H     H_    0.273980 0.484756 0.718986 0.104480
H9    H     H_    0.257181 0.491926 0.788708 0.105332
H10   H     H_    0.165708 0.790968 0.837387 0.109834
H11   H     H_    0.055020 0.808555 0.713742 0.117249
H12   H     H_    0.871879 0.061373 0.904096 0.124812
H13   H     H_    0.040963 0.815698 0.783348 0.113603
H14   H     H_    0.182567 0.788736 0.669052 0.112633
H15   H     H_    0.842925 0.546819 0.902702 0.128447
H16   H     H_    0.236817 0.774594 0.602866 0.130505
H17   H     H_    0.116138 0.532940 0.839229 0.108828
H18   H     H_    0.248504 0.483001 0.592527 0.124027
H19   H     H_    0.563294 0.873670 0.094435 0.126653
H20   H     H_    0.812129 0.560521 0.096740 0.127910
H21   H     H_    0.768132 0.515913 0.327516 0.103654
H22   H     H_    0.646821 0.523828 0.275081 0.110731
H23   H     H_    0.733756 0.278546 0.718086 0.134343
H24   H     H_    0.647688 0.540802 0.205720 0.106128
H25   H     H_    0.516520 0.856975 0.159710 0.107134
H26   H     H_    0.594421 0.830818 0.289775 0.104973
H27   H     H_    0.807457 0.524471 0.663363 0.125410
H28   H     H_    0.597759 0.847385 0.220371 0.104469
H29   H     H_    0.488661 0.805219 0.341355 0.103236
H30   H     H_    0.484473 0.770582 0.409278 0.122448
H31   H     H_    0.767152 0.544995 0.161975 0.102625
H32   H     H_    0.764760 0.480754 0.395185 0.126383
H33   H     H_    0.846953 0.094980 0.089978 0.124578
H34   H     H_    0.747661 0.254208 0.787434 0.112063
H35   H     H_    0.549869 0.117087 0.096513 0.126426
H36   H     H_    0.514938 0.201528 0.328974 0.103458
H37   H     H_    0.504445 0.321812 0.276802 0.109750
H38   H     H_    0.514698 0.309723 0.207045 0.104636
H39   H     H_    0.500983 0.786281 0.665284 0.131723
H40   H     H_    0.826207 0.160013 0.155359 0.098705
H41   H     H_    0.822761 0.087625 0.284219 0.101993
H42   H     H_    0.832889 0.074008 0.214513 0.088883
H43   H     H_    0.791976 0.218678 0.336193 0.101130
H44   H     H_    0.762506 0.256689 0.404510 0.123259
H45   H     H_    0.561574 0.137431 0.829639 0.107666
H46   H     H_    0.530434 0.179950 0.161987 0.102404
H47   H     H_    0.484597 0.239805 0.397133 0.127091
H48   H     H_    0.089372 0.562740 0.093134 0.135920
H49   H     H_    0.086793 0.849539 0.104791 0.140106
H50   H     H_    0.194014 0.784666 0.332981 0.107686
H51   H     H_    0.811515 0.525277 0.836039 0.130212
H52   H     H_    0.316995 0.662439 0.280683 0.112027
H53   H     H_    0.301502 0.666906 0.210965 0.146357
H54   H     H_    0.151432 0.519403 0.158667 0.113466
H55   H     H_    0.063091 0.606958 0.290030 0.108130
H56   H     H_    0.667000 0.032510 0.705712 0.114698
H57   H     H_    0.046321 0.613352 0.220191 0.108033
H58   H     H_    0.199467 0.496647 0.340891 0.102533
H59   H     H_    0.243596 0.486774 0.408547 0.123372
H60   H     H_    0.237915 0.775752 0.400421 0.128076
H61   H     H_    0.576572 0.850184 0.903665 0.127259
H62   H     H_    0.545160 0.828679 0.836907 0.130219
H63   H     H_    0.569301 0.096230 0.897118 0.128732
H64   H     H_    0.792346 0.330947 0.654948 0.109857
H65   H     H_    0.896425 0.247123 0.622379 0.118080
H66   H     H_    0.919258 0.249823 0.672436 0.145101
H67   H     H_    0.677177 0.011035 0.775160 0.121105
H68   H     H_    0.010625 0.865006 0.206770 0.124270
H69   H     H_    0.996750 0.944765 0.165661 0.107737
H70   H     H_    0.057105 0.953604 0.208604 0.136596
H71   H     H_    0.537201 0.179695 0.666885 0.114089
H72   H     H_    0.489744 0.239025 0.601672 0.139500
N1    N     N_R   0.744729 0.591150 0.768969 -0.239712
N2    N     N_R   0.740751 0.587806 0.731043 -0.242230
N3    N     N_R   0.585573 0.742347 0.731833 -0.238580
N4    N     N_R   0.589684 0.745820 0.769810 -0.239200
O1    O     O_R   0.502070 0.323090 0.541280 -0.516663
O2    O     O_R   0.831550 0.656950 0.958960 -0.521200
O3    O     O_R   0.998590 0.685540 0.963930 -0.502764
O4    O     O_R   0.338340 0.520690 0.539540 -0.503093
O5    O     O_R   0.008220 0.831200 0.045060 -0.522258
O6    O     O_R   0.813270 0.997930 0.038810 -0.503605
O7    O     O_R   0.657500 0.016560 0.039940 -0.520914
O8    O     O_R   0.685680 0.820940 0.038120 -0.502417
O9    O     O_R   0.822130 0.666070 0.043610 -0.519658
O10   O     O_R   0.989860 0.694000 0.042400 -0.498849
O11   O     O_3   0.833990 0.833400 0.000560 -0.235836
O12   O     O_R   0.520720 0.641670 0.461580 -0.501687
O13   O     O_R   0.324760 0.674070 0.543580 -0.520292
O14   O     O_R   0.522400 0.640310 0.540110 -0.502512
O15   O     O_R   0.675940 0.500630 0.542210 -0.521704
O16   O     O_R   0.641790 0.337020 0.538150 -0.504534
O17   O     O_R   0.500260 0.324550 0.456580 -0.520350
O18   O     O_R   0.336660 0.522040 0.461020 -0.503143
O19   O     O_R   0.322940 0.675540 0.458880 -0.520348
O20   O     O_3   0.843613 0.172856 0.657717 -0.567731
O21   O     O_3   0.145016 0.824585 0.176081 -0.575172
O22   O     O_R   0.674120 0.502090 0.457500 -0.520895
O23   O     O_R   0.640110 0.338380 0.459630 -0.503281
O24   O     O_3   0.499990 0.499990 0.499990 -0.235590
O25   O     O_R   0.017640 0.822070 0.960410 -0.519872
O26   O     O_R   0.822000 0.989470 0.960340 -0.502152
O27   O     O_R   0.666920 0.007430 0.955290 -0.521019
O28   O     O_R   0.694410 0.812480 0.959650 -0.502477

loop_
_geom_bond_atom_site_label_1
_geom_bond_atom_site_label_2
_ccdc_geom_bond_type
C44   C49   A    
Cr2   O12   S    
C81   H16   S    
C87   C88   A    
C58   C62   A    
C20   C86   A    
C27   O2    A    
C55   H56   S    
Cr4   O6    S    
C22   H70   S    
C95   C96   A    
Cr1   O1    S    
C61   O20   S    
C82   H18   S    
C30   O9    A    
C72   H9    S    
C28   O25   A    
C26   C44   S    
C97   H58   S    
C45   C46   A    
C50   H34   S    
C54   O16   A    
C74   C76   A    
C60   C63   A    
C34   C40   S    
C9    C114  A    
Cr3   O15   S    
C29   C109  S    
C36   C37   A    
C77   H13   S    
C115  H35   S    
C72   C79   A    
C42   C53   A    
C38   C39   A    
C41   O15   A    
C53   C64   A    
C27   O28   A    
Cr5   O27   S    
C54   C63   S    
N1    N2    A    
Cr2   O14   S    
C15   C16   A    
Cr4   O26   S    
C58   H71   S    
C33   H3    S    
C32   O5    A    
C116  C117  A    
C13   C23   A    
C17   C18   A    
C18   C19   A    
C73   C74   A    
C2    C13   A    
C18   O21   S    
C110  C111  A    
C112  C113  A    
C90   O17   A    
C75   C86   A    
Cr6   O9    S    
C6    H43   S    
C97   C108  A    
Cr1   O4    S    
C64   C75   A    
C83   C84   A    
C16   C17   A    
C65   C67   A    
C21   O20   S    
Cr5   O11   S    
Cr5   O8    S    
C47   C48   A    
Cr3   O22   S    
C22   H69   S    
C70   C71   A    
C94   C100  A    
C91   C100  S    
C89   C91   A    
C88   H19   S    
C61   C62   A    
C52   C55   A    
C80   C84   A    
C72   C73   A    
C89   H25   S    
C73   H8    S    
C30   O8    A    
N3    N4    A    
Cr2   O24   S    
C94   H24   S    
C39   H62   S    
Cr4   O5    S    
C67   H5    S    
C95   H22   S    
Cr1   O24   S    
C104  C105  A    
C76   H11   S    
C16   H54   S    
C23   C53   S    
C77   C79   A    
C1    C85   S    
C7    C12   A    
C22   O21   S    
C25   C66   S    
Cr6   O3    S    
C35   N3    A    
C51   C52   A    
Cr3   O16   S    
C60   H4    S    
C76   C77   A    
C74   C84   S    
C91   C92   A    
C64   H55   S    
C109  C115  A    
C68   C69   A    
Cr5   O28   S    
C117  H37   S    
Cr2   O13   S    
C65   C71   A    
Cr4   O25   S    
C52   C62   S    
C29   O6    A    
C33   C102  A    
C96   C98   A    
C60   C61   A    
C7    H44   S    
C37   C43   A    
C67   C68   A    
C19   H49   S    
C83   H7    S    
C66   O19   A    
C102  C114  A    
C3    C118  A    
C27   C43   S    
C47   C57   S    
C32   O10   A    
C103  H30   S    
C21   H65   S    
C99   C100  A    
C101  H29   S    
C26   O27   A    
C8    C12   A    
C105  H21   S    
C55   C56   A    
C50   C51   A    
Cr3   O23   S    
Cr5   O7    S    
C94   C95   A    
C2    H60   S    
C104  H32   S    
C93   H20   S    
C51   H23   S    
C6    C7    A    
C110  H33   S    
C78   O22   A    
C54   O1    A    
C8    C10   A    
C48   C49   A    
C23   C97   A    
C49   H12   S    
C98   C99   A    
C17   C86   S    
C5    C116  A    
C1    O13   A    
C31   C35   S    
C69   C79   S    
C24   H39   S    
C56   C57   A    
C41   C102  S    
C3    C4    A    
C38   H61   S    
C99   H28   S    
C10   H36   S    
C6    C11   A    
C36   C40   A    
C44   C45   A    
C3    H41   S    
C21   H64   S    
C98   H26   S    
C116  H38   S    
C101  C106  A    
C114  H1    S    
C96   C106  S    
C46   C47   A    
C9    H27   S    
C70   H17   S    
C108  H59   S    
Cr4   O11   S    
C28   O3    A    
C14   C19   A    
C45   H63   S    
C111  H40   S    
C14   C32   S    
C80   C81   A    
C13   H50   S    
C12   C90   S    
C78   O12   A    
C20   C42   A    
C8    H47   S    
C113  H46   S    
C20   H53   S    
Cr6   O11   S    
C59   H72   S    
C82   C85   A    
C105  C106  A    
C59   C63   A    
C24   C33   A    
C29   O7    A    
C46   H45   S    
C68   H10   S    
C28   C65   S    
C58   C59   A    
C24   C31   A    
C38   C43   A    
C66   O18   A    
Cr1   O18   S    
C42   H52   S    
C109  C110  A    
C71   H6    S    
C41   O14   A    
C50   C57   A    
C34   N1    A    
C21   H66   S    
Cr6   O10   S    
C111  C112  A    
C26   O26   A    
Cr2   O19   S    
C80   H14   S    
C4    C5    A    
C87   C93   A    
C92   C93   A    
Cr3   O24   S    
C4    H42   S    
C15   H48   S    
C5    C112  S    
C92   H31   S    
C104  C107  A    
C69   C70   A    
C56   H67   S    
C10   C11   A    
C9    C31   A    
C48   H2    S    
C39   C40   A    
C34   N4    A    
C90   O23   A    
C88   C89   A    
C25   C108  A    
C36   H51   S    
C101  C103  A    
C82   C83   A    
C37   H15   S    
Cr6   O2    S    
Cr1   O17   S    
C14   C15   A    
C78   C107  S    
C103  C107  A    
C30   C87   S    
C117  C118  A    
C1    O4    A    
C22   H68   S    
C11   C118  S    
C81   C85   A    
C2    C25   A    
C35   N2    A    
C113  C115  A    
C75   H57   S    
