data_mof_unit_40497.cif
_audit_creation_date              2012-12-10T16:49:25-0500
_audit_creation_method            fapswitch 2.2
_symmetry_space_group_name_H-M    P1
_symmetry_Int_Tables_number       1
_space_group_crystal_system       triclinic
_cell_length_a                    19.335676
_cell_length_b                    8.731632
_cell_length_c                    7.423286
_cell_angle_alpha                 102.604166
_cell_angle_beta                  94.32778
_cell_angle_gamma                 92.534398
_cell_volume                      1217.223858

loop_
_atom_site_label
_atom_site_type_symbol
_atom_type_description
_atom_site_fract_x
_atom_site_fract_y
_atom_site_fract_z
_atom_type_partial_charge
C1    C     C_R   0.496236 0.200239 0.454482 0.848859
C2    C     C_R   0.503763 0.799760 0.545518 0.848857
C3    C     C_2   0.484026 0.034598 0.436236 -0.263622
C4    C     C_2   0.515972 0.965402 0.563764 -0.263600
C5    C     C_R   0.367519 0.499975 0.502223 0.827641
C6    C     C_R   0.632481 0.500022 0.497776 0.827620
C7    C     C_R   0.261745 0.536662 0.675393 -0.275153
C8    C     C_R   0.738253 0.463259 0.324606 -0.275311
C9    C     C_R   0.189604 0.541729 0.678911 0.459896
C10   C     C_R   0.810393 0.458149 0.321091 0.459934
C11   C     C_R   0.146613 0.504237 0.510441 -0.048608
C12   C     C_R   0.853384 0.495652 0.489560 -0.048551
C13   C     C_R   0.177273 0.468070 0.342010 -0.238407
C14   C     C_R   0.822726 0.531878 0.657988 -0.238520
C15   C     C_R   0.248984 0.467568 0.339839 -0.153810
C16   C     C_R   0.751015 0.532419 0.660159 -0.153768
C17   C     C_R   0.291792 0.501111 0.506291 -0.080555
C18   C     C_R   0.708207 0.498861 0.493707 -0.080460
C19   C     C_R   0.929707 0.496830 0.493873 0.408830
C20   C     C_R   0.070288 0.503014 0.506122 0.408681
Cu1   Cu    Cu3+1 0.507710 0.517380 0.684380 1.005909
Cu2   Cu    Cu3+1 0.492290 0.482620 0.315620 1.005915
H1    H     H_    0.294043 0.562982 0.805429 0.169560
H2    H     H_    0.705953 0.436937 0.194571 0.169495
H3    H     H_    0.145767 0.439144 0.210773 0.205421
H4    H     H_    0.854233 0.560819 0.789224 0.205385
H5    H     H_    0.270781 0.439484 0.207212 0.176922
H6    H     H_    0.729219 0.560544 0.792785 0.176881
H7    H     H_    0.445359 0.379398 0.948584 0.232672
H8    H     H_    0.554641 0.620602 0.051416 0.232668
N1    N     N_R   0.031770 0.512539 0.348774 -0.250188
N2    N     N_R   0.968224 0.487299 0.651219 -0.250102
N3    N     N_R   0.962857 0.509856 0.342881 -0.171906
N4    N     N_R   0.037138 0.489981 0.657112 -0.171972
N5    N     N_2   0.480680 0.456420 0.038530 -0.204212
N6    N     N_2   0.519320 0.543580 0.961470 -0.204217
O1    O     O_R   0.505010 0.286130 0.619770 -0.578940
O2    O     O_R   0.494990 0.713870 0.380230 -0.578939
O3    O     O_R   0.491990 0.256780 0.308370 -0.539418
O4    O     O_R   0.508010 0.743220 0.691630 -0.539424
O5    O     O_R   0.406650 0.514660 0.655750 -0.602301
O6    O     O_R   0.593350 0.485340 0.344250 -0.602300
O7    O     O_R   0.393640 0.485310 0.344340 -0.574511
O8    O     O_R   0.606360 0.514690 0.655660 -0.574522
O9    O     O_3   0.161690 0.578650 0.847946 -0.577272
C21   C     C_3   0.162453 0.743959 0.905409 0.062030
H9    H     H_    0.131653 0.794624 0.801913 0.146023
H10   H     H_    0.216654 0.797594 0.926141 0.145750
C22   C     C_3   0.129999 0.786960 0.088743 -0.720072
H11   H     H_    0.161791 0.746100 0.197855 0.250939
H12   H     H_    0.127678 0.916582 0.131134 0.197956
H13   H     H_    0.076467 0.731457 0.074414 0.269643
O10   O     O_3   0.838318 0.421176 0.152071 -0.577240
C23   C     C_3   0.837391 0.255856 0.094444 0.061940
H14   H     H_    0.783130 0.202548 0.073222 0.145861
H15   H     H_    0.867969 0.204900 0.198069 0.145894
C24   C     C_3   0.870049 0.212790 0.911417 -0.719852
H16   H     H_    0.923671 0.267890 0.926282 0.269535
H17   H     H_    0.872183 0.083133 0.868844 0.197906
H18   H     H_    0.838507 0.254042 0.802177 0.250955
C25   C     C_2   0.426457 0.956347 0.296054 0.867922
O11   O     O_2   0.379421 0.878073 0.341197 -0.609178
O12   O     O_R   0.425323 0.976558 0.114113 -0.711121
H19   H     H_    0.383740 0.918431 0.032354 0.323503
C26   C     C_2   0.573541 0.043654 0.703944 0.867900
O13   O     O_2   0.620581 0.121915 0.658798 -0.609196
O14   O     O_R   0.574670 0.023460 0.885891 -0.711124
H20   H     H_    0.616253 0.081587 0.967648 0.323469

loop_
_geom_bond_atom_site_label_1
_geom_bond_atom_site_label_2
_ccdc_geom_bond_type
C16   H6    S    
C2    C4    S    
N1    N3    A    
C9    O9    S    
C14   C16   A    
C1    O1    A    
Cu1   O8    S    
C11   C13   A    
H7    N5    S    
C1    O3    A    
C15   H5    S    
Cu2   O7    S    
H8    N6    S    
C22   H13   S    
C20   N4    A    
C7    C9    A    
C22   H12   S    
C3    C25   S    
C5    O7    A    
Cu1   N6    S    
C6    O8    A    
Cu1   Cu2   S    
C14   H4    S    
C15   C17   A    
Cu2   N5    S    
C9    C11   A    
C21   C22   S    
C13   H3    S    
C24   H16   S    
C25   O11   D    
Cu1   O4    S    
C10   C12   A    
C7    H1    S    
C19   N2    A    
C12   C19   S    
C16   C18   A    
C8    H2    S    
C12   C14   A    
C26   O13   D    
C23   H15   S    
C13   C15   A    
C19   N3    A    
C4    C26   S    
C6    C18   S    
Cu1   O5    S    
C11   C20   S    
C24   H17   S    
C21   H9    S    
C5    C17   S    
Cu2   O3    S    
O14   H20   S    
Cu2   O2    S    
C21   H10   S    
C2    O4    A    
Cu1   O1    S    
C8    C10   A    
C22   H11   S    
C6    O6    A    
Cu2   O6    S    
C1    C3    S    
C25   O12   S    
C10   O10   S    
C2    O2    A    
C23   H14   S    
C24   H18   S    
C5    O5    A    
N5    N6    D    
C26   O14   S    
O9    C21   S    
C20   N1    A    
C8    C18   A    
C3    C4    D    
O10   C23   S    
O12   H19   S    
C7    C17   A    
C23   C24   S    
N2    N4    A    
