data_mof_unit_57317.cif
_audit_creation_date              2012-12-10T18:11:03-0500
_audit_creation_method            fapswitch 2.2
_symmetry_space_group_name_H-M    P1
_symmetry_Int_Tables_number       1
_space_group_crystal_system       triclinic
_cell_length_a                    10.790798
_cell_length_b                    9.498962
_cell_length_c                    10.614714
_cell_angle_alpha                 90.271037
_cell_angle_beta                  92.321866
_cell_angle_gamma                 90.522508
_cell_volume                      1087.07020859

loop_
_atom_site_label
_atom_site_type_symbol
_atom_type_description
_atom_site_fract_x
_atom_site_fract_y
_atom_site_fract_z
_atom_type_partial_charge
C1    C     C_R   0.260092 0.499549 0.495333 0.769227
C2    C     C_3   0.497924 0.500048 0.122647 -0.012656
C3    C     C_3   0.073336 0.650248 0.469126 -0.390019
C4    C     C_3   0.079989 0.448667 0.625009 -0.407955
C5    C     C_3   0.933826 0.656335 0.490511 0.142836
C6    C     C_3   0.937859 0.427915 0.621387 0.184215
C7    C     C_3   0.064465 0.402579 0.389982 -0.394024
C8    C     C_3   0.122572 0.499636 0.494786 0.072610
C9    C     C_3   0.879211 0.502756 0.502607 0.013724
C10   C     C_3   0.921301 0.417666 0.385618 -0.520810
C11   C     C_3   0.621503 0.084286 0.551322 0.250887
C12   C     C_3   0.615311 0.918148 0.565341 0.271128
C13   C     C_3   0.401424 0.082325 0.580810 -0.206430
C14   C     C_3   0.393407 0.916228 0.569627 -0.189063
C15   C     C_3   0.479627 0.082275 0.373865 -0.278954
C16   C     C_3   0.490208 0.916131 0.373088 -0.301867
C17   C     C_R   0.498728 0.499871 0.259578 0.777725
C18   C     C_R   0.740322 0.500924 0.502268 0.855276
C19   C     C_R   0.499733 0.500077 0.740583 0.872346
C20   C     C_3   0.496646 0.633483 0.041847 -0.139916
C21   C     C_3   0.397029 0.430608 0.037126 -0.191001
C22   C     C_3   0.395907 0.563899 0.953875 -0.181984
C23   C     C_3   0.499059 0.499692 0.877683 0.009250
C24   C     C_3   0.599711 0.569072 0.963539 -0.078640
C25   C     C_3   0.500090 0.366168 0.958588 -0.107779
C26   C     C_3   0.600879 0.435755 0.046473 -0.149049
Cu1   Cu    Cu3+1 0.499860 0.642410 0.500060 0.950005
Cu2   Cu    Cu3+1 0.499860 0.357590 0.500060 0.943450
H1    H     H_    0.312199 0.616299 0.912711 0.146408
H2    H     H_    0.890491 0.472149 0.297315 0.180567
H3    H     H_    0.878240 0.310715 0.382438 0.193802
H4    H     H_    0.693345 0.107845 0.481699 0.073178
H5    H     H_    0.696305 0.875974 0.517447 0.129349
H6    H     H_    0.418337 0.112751 0.681340 0.182923
H7    H     H_    0.386530 0.869079 0.664581 0.186499
H8    H     H_    0.386806 0.113401 0.334344 0.167001
H9    H     H_    0.407717 0.870452 0.320958 0.178012
H10   H     H_    0.548844 0.125949 0.309448 0.164851
H11   H     H_    0.572475 0.885261 0.319724 0.149156
H12   H     H_    0.309833 0.126367 0.551474 0.154163
H13   H     H_    0.304969 0.887428 0.518070 0.145257
H14   H     H_    0.495272 0.743175 0.078355 0.148502
H15   H     H_    0.314218 0.373997 0.070596 0.138630
H16   H     H_    0.682771 0.626639 0.932434 0.217297
H17   H     H_    0.501264 0.256422 0.922251 0.175347
H18   H     H_    0.684724 0.383391 0.087373 0.151085
H19   H     H_    0.091104 0.680692 0.370217 0.145884
H20   H     H_    0.125038 0.347416 0.651309 0.154567
H21   H     H_    0.123764 0.728795 0.530335 0.204013
H22   H     H_    0.109248 0.527585 0.698357 0.210004
H23   H     H_    0.887839 0.709285 0.408029 0.107489
H24   H     H_    0.918454 0.313040 0.611995 0.167131
H25   H     H_    0.100977 0.430536 0.296696 0.169856
H26   H     H_    0.089438 0.291118 0.409372 0.184841
N1    N     N_3   0.500250 0.143650 0.502780 -0.159671
N2    N     N_3   0.500250 0.856350 0.502780 -0.171555
O1    O     O_R   0.317570 0.620260 0.500070 -0.603646
O2    O     O_R   0.317570 0.379740 0.500070 -0.601769
O3    O     O_R   0.499850 0.620240 0.316900 -0.602994
O4    O     O_R   0.499850 0.379760 0.316900 -0.598826
O5    O     O_R   0.682190 0.620260 0.500030 -0.563912
O6    O     O_R   0.682190 0.379740 0.500030 -0.569806
O7    O     O_R   0.499910 0.620280 0.683200 -0.542882
O8    O     O_R   0.499910 0.379720 0.683200 -0.554376
Br1   Br    Br    0.690841 0.177704 0.704197 -0.436821
Br2   Br    Br    0.635422 0.860343 0.743687 -0.428876
Br3   Br    Br    0.913407 0.780328 0.635171 -0.479919
Br4   Br    Br    0.870728 0.479122 0.783305 -0.473294

loop_
_geom_bond_atom_site_label_1
_geom_bond_atom_site_label_2
_ccdc_geom_bond_type
C16   H9    S    
C11   Br1   S    
C7    C10   S    
C14   N2    S    
C23   C24   S    
C16   N2    S    
C18   O5    A    
C5    C9    S    
C22   H1    S    
Cu2   O2    S    
C1    C8    S    
Cu1   O5    S    
C9    C10   S    
C10   H2    S    
C20   H14   S    
C5    Br3   S    
C19   O8    A    
C4    C8    S    
Cu1   Cu2   S    
C13   N1    S    
C2    C21   S    
C6    Br4   S    
C3    H21   S    
C13   H6    S    
C2    C26   S    
C19   O7    A    
Cu1   O3    S    
C21   C22   S    
C2    C17   S    
C21   C25   S    
C12   N2    S    
C15   H10   S    
Cu1   O7    S    
C17   O3    A    
C14   H13   S    
Cu2   O8    S    
C3    H19   S    
Cu2   N1    S    
C24   C26   S    
C11   H4    S    
C3    C8    S    
C1    O1    A    
Cu2   O4    S    
C12   H5    S    
Cu1   O1    S    
C24   H16   S    
C13   C14   S    
C7    H25   S    
C16   H11   S    
C2    C20   S    
C15   C16   S    
C1    O2    A    
C9    C18   S    
C7    C8    S    
C6    C9    S    
C11   N1    S    
C19   C23   S    
C4    C6    S    
C23   C25   S    
C4    H20   S    
C15   N1    S    
C4    H22   S    
C14   H7    S    
C26   H18   S    
Cu1   N2    S    
C15   H8    S    
C13   H12   S    
C25   H17   S    
C17   O4    A    
C7    H26   S    
C6    H24   S    
C25   C26   S    
C21   H15   S    
C12   Br2   S    
C10   H3    S    
C22   C23   S    
C18   O6    A    
C20   C24   S    
C11   C12   S    
C20   C22   S    
C5    H23   S    
C3    C5    S    
Cu2   O6    S    
