data_mof_unit_55479.cif
_audit_creation_date              2012-12-11T16:53:29-0500
_audit_creation_method            fapswitch 2.2
_symmetry_space_group_name_H-M    P1
_symmetry_Int_Tables_number       1
_space_group_crystal_system       triclinic
_cell_length_a                    14.89883
_cell_length_b                    14.727668
_cell_length_c                    17.303177
_cell_angle_alpha                 109.543109
_cell_angle_beta                  107.161707
_cell_angle_gamma                 107.524125
_cell_volume                      3063.21612716

loop_
_atom_site_label
_atom_site_type_symbol
_atom_type_description
_atom_site_fract_x
_atom_site_fract_y
_atom_site_fract_z
_atom_type_partial_charge
C1    C     C_R   0.092724 0.277926 0.014505 -0.119706
C2    C     C_R   0.024077 0.557518 0.738278 -0.112485
C3    C     C_R   0.660976 0.215267 0.742981 -0.326862
C4    C     C_R   0.364887 0.573716 0.066313 -0.016470
C5    C     C_R   0.227549 0.706999 0.265259 0.617915
C6    C     C_R   0.745242 0.562230 0.972565 0.679141
C7    C     C_R   0.893632 0.396493 0.175653 -0.077852
C8    C     C_R   0.084376 0.799839 0.002360 0.630230
C9    C     C_R   0.913599 0.714572 0.922822 0.562868
C10   C     C_R   0.066352 0.477732 0.249570 0.747734
C11   C     C_R   0.223091 0.799959 0.187437 -0.161281
C12   C     C_R   0.933752 0.510966 0.744857 -0.197138
C13   C     C_R   0.740151 0.468198 0.049074 0.657582
C14   C     C_R   0.244830 0.810169 0.274999 -0.103220
C15   C     C_R   0.711310 0.544549 0.034821 -0.294619
C16   C     C_R   0.977411 0.421585 0.252851 -0.129707
C17   C     C_R   0.000367 0.810269 0.952491 -0.251195
C18   C     C_R   0.517113 0.653184 0.043382 -0.187519
C19   C     C_R   0.478332 0.612343 0.095182 -0.052502
C20   C     C_R   0.539819 0.580722 0.149852 0.715892
C21   C     C_R   0.625617 0.571272 0.138404 -0.265913
C22   C     C_R   0.650106 0.591104 0.071667 0.017344
C23   C     C_R   0.717316 0.216407 0.823599 0.616571
C24   C     C_R   0.602003 0.641827 0.030536 0.014338
C25   C     C_3   0.652141 0.757601 0.051682 1.416991
C26   C     C_3   0.560510 0.768965 0.065454 -0.631620
C27   C     C_R   0.975344 0.420754 0.334870 -0.067049
C28   C     C_R   0.025931 0.556081 0.655885 0.073265
C29   C     C_R   0.117562 0.622088 0.578454 0.588204
C30   C     C_R   0.105811 0.637370 0.657789 -0.309593
C31   C     C_R   0.952613 0.463293 0.574923 -0.203740
C32   C     C_R   0.960449 0.448449 0.495133 0.038445
C33   C     C_R   0.043603 0.527974 0.496746 -0.034043
C34   C     C_R   0.302560 0.597732 0.008018 -0.174838
C35   C     C_R   0.050666 0.512327 0.416502 -0.256943
C36   C     C_R   0.894215 0.340645 0.333288 0.809836
C37   C     C_R   0.887312 0.354344 0.414155 -0.333551
C38   C     C_R   0.548778 0.143433 0.677503 0.187077
C39   C     C_R   0.277790 0.908854 0.360319 -0.238981
C40   C     C_R   0.381120 0.102509 0.453840 -0.368620
C41   C     C_R   0.318214 0.013412 0.367565 0.602747
C42   C     C_R   0.280379 0.901064 0.440542 0.476397
C43   C     C_R   0.359750 0.985792 0.524935 0.006786
C44   C     C_R   0.410060 0.087307 0.531223 0.003729
C45   C     C_R   0.728697 0.305321 0.743862 0.548500
C46   C     C_R   0.496790 0.168692 0.611650 -0.146123
C47   C     C_R   0.495218 0.044225 0.673855 -0.144778
C48   C     C_R   0.398062 0.968260 0.600298 -0.120387
C49   C     C_R   0.109263 0.073281 0.906429 -0.073553
C50   C     C_R   0.015278 0.083675 0.887813 0.111922
C51   C     C_R   0.925398 0.998051 0.808623 -0.202578
C52   C     C_R   0.933336 0.913494 0.746469 -0.218957
C53   C     C_R   0.030194 0.911092 0.762689 0.237407
C54   C     C_R   0.115319 0.987371 0.846314 -0.149596
C55   C     C_3   0.224932 0.052647 0.866338 0.462651
C56   C     C_R   0.301217 0.512985 0.092722 0.511270
C57   C     C_3   0.219121 0.148362 0.931499 0.951212
C58   C     C_R   0.107641 0.586368 0.817846 0.636931
C59   C     C_R   0.919428 0.193001 0.940718 -0.091705
C60   C     C_R   0.009344 0.179226 0.947931 0.051664
H1    H     H_    0.173468 0.298206 0.030853 0.137851
H2    H     H_    0.813214 0.341251 0.151666 0.262542
H3    H     H_    0.227650 0.861634 0.167208 0.246741
H4    H     H_    0.668307 0.542170 0.178237 0.232157
H5    H     H_    0.855695 0.491692 0.699547 0.214473
H6    H     H_    0.580972 0.823442 0.137104 0.220453
H7    H     H_    0.511132 0.783135 0.012912 0.221780
H8    H     H_    0.111938 0.575192 0.416942 0.240320
H9    H     H_    0.824218 0.292832 0.413346 0.169439
H10   H     H_    0.161835 0.709496 0.721114 0.202126
H11   H     H_    0.892018 0.399857 0.574542 0.129451
H12   H     H_    0.529116 0.247595 0.616736 0.193038
H13   H     H_    0.529937 0.021885 0.724276 0.196213
H14   H     H_    0.417876 0.181159 0.458597 0.182005
H15   H     H_    0.360204 0.891450 0.597732 0.194373
H16   H     H_    0.849746 0.998539 0.791320 0.125959
H17   H     H_    0.864935 0.852274 0.683648 0.136325
H18   H     H_    0.281547 0.027553 0.900345 0.090378
H19   H     H_    0.330744 0.660658 0.990219 0.211413
H20   H     H_    0.839890 0.134452 0.892989 0.145624
N1    N     N_R   0.055640 0.348550 0.045600 -0.066702
N2    N     N_R   0.798340 0.505430 0.954400 -0.157690
N3    N     N_R   0.931580 0.439470 0.128350 -0.106858
N4    N     N_R   0.051950 0.704140 0.002340 -0.160728
N5    N     N_R   0.944360 0.651450 0.954400 -0.138418
N6    N     N_R   0.039170 0.492150 0.176290 -0.141564
N7    N     N_R   0.188710 0.696600 0.128350 -0.083264
N8    N     N_R   0.794820 0.447010 0.002340 -0.145328
N9    N     N_R   0.960830 0.507850 0.823710 -0.076296
N10   N     N_R   0.811290 0.303400 0.871650 -0.143958
N11   N     N_R   0.205180 0.552990 0.997660 -0.072939
N12   N     N_R   0.814810 0.361830 0.823710 -0.128418
N13   N     N_R   0.201660 0.494570 0.045600 -0.107177
N14   N     N_R   0.068420 0.560530 0.871650 -0.107660
N15   N     N_R   0.948050 0.295860 0.997660 -0.037839
N16   N     N_R   0.185190 0.638170 0.176290 -0.103387
Ni1   Ni    Ni4+2 0.119330 0.493420 0.109950 0.256972
Ni2   Ni    Ni4+2 0.880670 0.506580 0.890050 0.270296
Ni3   Ni    Ni4+2 0.872590 0.372590 0.000000 0.280089
Ni4   Ni    Ni4+2 0.127410 0.627410 0.000000 0.260130
F1    F     F_    0.720694 0.619344 0.930489 -0.645665
F2    F     F_    0.184913 0.861324 0.023457 -0.666776
O1    O     O_3   0.818899 0.671981 0.847191 -0.567777
C61   C     C_3   0.792191 0.753837 0.839961 0.051678
H21   H     H_    0.842642 0.799825 0.817265 0.076253
H22   H     H_    0.797294 0.808650 0.905396 0.179640
H23   H     H_    0.709974 0.716064 0.787439 0.155462
F3    F     F_    0.162175 0.486777 0.295822 -0.690508
F4    F     F_    0.708063 0.413407 0.092396 -0.699070
F5    F     F_    0.516597 0.553842 0.211249 -0.684597
F6    F     F_    0.746007 0.819233 0.130418 -0.711768
F7    F     F_    0.658518 0.770615 0.977603 -0.681250
F8    F     F_    0.821949 0.250808 0.254287 -0.674418
O2    O     O_3   0.201093 0.698632 0.580929 -0.600515
C62   C     C_3   0.289338 0.679531 0.610594 -0.170495
H24   H     H_    0.273235 0.595757 0.566951 0.137489
H25   H     H_    0.316366 0.696777 0.683379 0.139350
H26   H     H_    0.354424 0.734059 0.605254 0.163029
F9    F     F_    0.675176 0.160251 0.862411 -0.688009
O3    O     O_3   0.307495 0.029677 0.292055 -0.601333
C63   C     C_3   0.221693 0.053747 0.268496 -0.168305
H27   H     H_    0.236409 0.130461 0.323522 0.139172
H28   H     H_    0.147822 0.986940 0.252437 0.118598
H29   H     H_    0.210712 0.063787 0.206114 0.205401
O4    O     O_3   0.217947 0.807543 0.437489 -0.571243
C64   C     C_3   0.113205 0.792213 0.403884 -0.100475
H30   H     H_    0.081054 0.774174 0.330906 0.096825
H31   H     H_    0.105674 0.863110 0.445800 0.132111
H32   H     H_    0.064639 0.722062 0.408171 0.159453
F10   F     F_    0.231468 0.060738 0.790442 -0.662533
F11   F     F_    0.284942 0.187073 0.022820 -0.739612
O5    O     O_3   0.221697 0.228350 0.902898 -0.650583
C65   C     C_3   0.326469 0.300739 0.932919 -0.061178
H33   H     H_    0.371356 0.258634 0.909496 0.181547
H34   H     H_    0.366571 0.349349 0.008470 0.142803
H35   H     H_    0.326274 0.357273 0.903698 0.132250
O6    O     O_3   0.708544 0.341020 0.679615 -0.610549
C66   C     C_3   0.719501 0.276643 0.604854 -0.326771
H36   H     H_    0.661406 0.190869 0.571122 0.161143
H37   H     H_    0.800069 0.282463 0.626097 0.144287
H38   H     H_    0.705590 0.305979 0.553231 0.188870
O7    O     O_3   0.338300 0.537088 0.183917 -0.609235
C67   C     C_3   0.314934 0.443585 0.194598 0.035887
H39   H     H_    0.365653 0.466655 0.266121 0.185960
H40   H     H_    0.332927 0.384285 0.150239 0.154685
H41   H     H_    0.233323 0.408873 0.185332 0.137590
O8    O     O_3   0.212410 0.646111 0.844618 -0.615042
C68   C     C_3   0.250460 0.576432 0.802770 -0.304403
H42   H     H_    0.215476 0.545184 0.727545 0.148029
H43   H     H_    0.236442 0.507797 0.818956 0.148341
H44   H     H_    0.336430 0.622251 0.829503 0.197804
O9    O     O_3   0.264670 0.680309 0.333279 -0.554190
C69   C     C_3   0.375247 0.726430 0.371584 0.015756
H45   H     H_    0.410601 0.812952 0.420563 0.074263
H46   H     H_    0.405319 0.716827 0.319059 0.144394
H47   H     H_    0.402463 0.685414 0.410083 0.154785

loop_
_geom_bond_atom_site_label_1
_geom_bond_atom_site_label_2
_ccdc_geom_bond_type
C67   H41   S    
C7    N3    A    
C29   O2    S    
C64   H30   S    
C6    N2    A    
C37   H9    S    
C57   O5    S    
C10   F3    S    
C19   C20   A    
C18   C26   S    
C68   H44   S    
C2    C12   A    
C61   H22   S    
O2    C62   S    
N12   Ni2   S    
C39   C41   A    
C53   C54   A    
O3    C63   S    
C5    O9    S    
C18   C24   A    
C26   H7    S    
C36   C37   A    
C68   H43   S    
C11   H3    S    
C23   F9    S    
N1    N15   A    
C11   C14   A    
N15   Ni3   S    
C1    N1    A    
C49   C54   A    
C29   C33   A    
C49   C57   S    
C18   C19   A    
C6    F1    S    
N9    N14   A    
N6    Ni1   S    
C45   N12   A    
C34   N11   A    
C63   H29   S    
C13   F4    S    
N5    Ni2   S    
C25   F7    S    
C9    N5    A    
C14   C39   S    
C4    C19   S    
C3    C23   A    
C15   C22   S    
C10   N6    A    
O8    C68   S    
C3    C38   S    
C11   N7    A    
O5    C65   S    
C62   H25   S    
C65   H35   S    
N11   Ni4   S    
C69   H46   S    
C43   C48   A    
C46   H12   S    
C42   O4    S    
C56   O7    S    
C55   F10   S    
C16   C27   S    
C31   H11   S    
C6    C15   A    
C59   C60   A    
N3    Ni3   S    
C21   C22   A    
C4    C56   A    
N2    Ni2   S    
C48   H15   S    
C59   N15   A    
C36   F8    S    
C61   H21   S    
C30   H10   S    
C44   C46   A    
C39   C42   A    
C28   C31   A    
C56   N13   A    
C4    C34   A    
C38   C46   A    
C51   C52   A    
N4    Ni4   S    
C12   N9    A    
C24   C25   S    
C47   H13   S    
C1    C60   A    
C55   H18   S    
C58   O8    S    
C64   H32   S    
C27   C35   A    
C25   C26   S    
C3    C45   A    
C26   H6    S    
C43   C44   A    
C21   H4    S    
C7    H2    S    
C29   C30   A    
C34   H19   S    
N11   N13   A    
N10   N12   A    
C47   C48   A    
N14   Ni4   S    
C9    O1    S    
C62   H26   S    
N16   Ni1   S    
C45   O6    S    
C50   C51   A    
C5    C14   A    
C23   N10   A    
C32   C37   A    
N4    N5    A    
C69   H47   S    
C63   H27   S    
C66   H37   S    
C20   F5    S    
C9    C17   A    
C40   C41   A    
C55   C57   S    
O4    C64   S    
C22   C24   A    
C42   C43   A    
C52   H17   S    
N13   Ni1   S    
N10   Ni3   S    
O1    C61   S    
C5    N16   A    
C52   C53   A    
N7    Ni4   S    
O6    C66   S    
C67   H40   S    
C54   C55   S    
C7    C16   A    
C64   H31   S    
C8    N4    A    
C57   F11   S    
C31   C32   A    
C66   H38   S    
C1    H1    S    
C59   H20   S    
C2    C58   A    
N7    N16   A    
C27   C36   A    
C12   H5    S    
C8    C17   A    
C38   C47   A    
N9    Ni2   S    
C50   C60   S    
C32   C33   A    
C13   C15   A    
C67   H39   S    
C58   N14   A    
C10   C16   A    
C65   H33   S    
N1    Ni1   S    
C35   H8    S    
N2    N8    A    
C13   N8    A    
C28   C30   A    
C33   C35   A    
C40   H14   S    
C68   H42   S    
C41   O3    S    
C63   H28   S    
N8    Ni3   S    
C66   H36   S    
C25   F6    S    
C40   C44   A    
N3    N6    A    
C20   C21   A    
C49   C50   A    
C51   H16   S    
C65   H34   S    
O7    C67   S    
C2    C28   S    
O9    C69   S    
C69   H45   S    
C8    F2    S    
C61   H23   S    
C62   H24   S    
