data_mof_unit_41409.cif
_audit_creation_date              2012-12-10T17:23:45-0500
_audit_creation_method            fapswitch 2.2
_symmetry_space_group_name_H-M    P1
_symmetry_Int_Tables_number       1
_space_group_crystal_system       triclinic
_cell_length_a                    9.645295
_cell_length_b                    10.762479
_cell_length_c                    17.299747
_cell_angle_alpha                 93.191087
_cell_angle_beta                  86.350608
_cell_angle_gamma                 89.474592
_cell_volume                      1789.27364207

loop_
_atom_site_label
_atom_site_type_symbol
_atom_type_description
_atom_site_fract_x
_atom_site_fract_y
_atom_site_fract_z
_atom_type_partial_charge
C1    C     C_R   0.499199 0.737287 0.502166 0.777537
C2    C     C_R   0.351183 0.479729 0.776328 -0.206622
C3    C     C_R   0.435174 0.593268 0.152720 -0.151862
C4    C     C_R   0.425488 0.581087 0.232338 -0.220524
C5    C     C_R   0.645285 0.467943 0.222396 -0.206167
C6    C     C_R   0.654633 0.479460 0.142603 -0.170115
C7    C     C_R   0.548313 0.539672 0.107090 0.190748
C8    C     C_2   0.444951 0.549240 0.981237 -0.231505
C9    C     C_2   0.557929 0.543531 0.022317 -0.230345
C10   C     C_R   0.529266 0.516625 0.267265 -0.024302
C11   C     C_R   0.350960 0.883255 0.629603 -0.191495
C12   C     C_R   0.482011 0.502661 0.649683 0.759365
C13   C     C_R   0.280038 0.954348 0.689673 -0.136674
C14   C     C_R   0.280944 0.083623 0.689935 -0.133812
C15   C     C_R   0.352784 0.142619 0.630124 -0.174023
C16   C     C_R   0.423961 0.072474 0.568050 0.098689
C17   C     C_R   0.422911 0.941065 0.567758 0.094355
C18   C     C_R   0.497703 0.871585 0.506689 -0.094474
C19   C     C_R   0.574513 0.930646 0.448638 -0.197079
C20   C     C_R   0.574789 0.058841 0.448697 -0.216711
C21   C     C_R   0.499664 0.129717 0.507221 -0.094350
C22   C     C_R   0.864145 0.311205 0.416055 -0.139234
C23   C     C_R   0.500130 0.263119 0.502280 0.771599
C24   C     C_R   0.930072 0.197932 0.397445 -0.251040
C25   C     C_R   0.070785 0.187655 0.404744 -0.236758
C26   C     C_R   0.146580 0.296137 0.418711 0.304848
C27   C     C_R   0.078842 0.403269 0.459242 0.158446
C28   C     C_R   0.929703 0.406157 0.458932 0.170108
C29   C     C_R   0.921070 0.589613 0.539391 -0.057082
C30   C     C_R   0.068585 0.590018 0.539012 -0.069071
C31   C     C_R   0.518201 0.503645 0.350668 0.794827
C32   C     C_R   0.472459 0.514128 0.734197 -0.020386
C33   C     C_R   0.583345 0.565058 0.773203 -0.199685
C34   C     C_R   0.574044 0.580138 0.853509 -0.150309
C35   C     C_R   0.454711 0.541623 0.896082 0.192819
C36   C     C_R   0.342534 0.493388 0.856968 -0.172772
Cu1   Cu    Cu3+1 0.359340 0.500010 0.500010 0.946765
Cu2   Cu    Cu3+1 0.640660 0.499990 0.499990 0.938733
H1    H     H_    0.676375 0.595415 0.741582 0.147639
H2    H     H_    0.743391 0.438949 0.108350 0.121772
H3    H     H_    0.632096 0.876976 0.402092 0.147578
H4    H     H_    0.350372 0.783246 0.632940 0.138815
H5    H     H_    0.225383 0.908916 0.736653 0.133623
H6    H     H_    0.227010 0.138516 0.737119 0.131727
H7    H     H_    0.353527 0.243137 0.633843 0.144991
H8    H     H_    0.630893 0.103130 0.401733 0.128187
H9    H     H_    0.862064 0.663081 0.572082 0.136523
H10   H     H_    0.762866 0.321134 0.395630 0.190366
H11   H     H_    0.875100 0.121538 0.370528 0.155511
H12   H     H_    0.337330 0.622454 0.266694 0.150518
H13   H     H_    0.123270 0.103636 0.380279 0.150732
H14   H     H_    0.118855 0.663809 0.571308 0.137456
H15   H     H_    0.727172 0.419085 0.248798 0.139742
H16   H     H_    0.660190 0.530005 0.992909 0.142555
H17   H     H_    0.249212 0.464367 0.888898 0.121104
H18   H     H_    0.354546 0.645084 0.127405 0.125061
H19   H     H_    0.264003 0.441093 0.747056 0.146588
H20   H     H_    0.341829 0.548742 0.010275 0.141976
H21   H     H_    0.659927 0.622941 0.881719 0.123095
N1    N     N_R   0.852190 0.498790 0.499250 -0.191259
N2    N     N_R   0.148060 0.498710 0.499220 -0.192819
O1    O     O_R   0.381190 0.680360 0.500010 -0.586824
O2    O     O_R   0.618760 0.680340 0.500000 -0.578074
O3    O     O_R   0.367440 0.500030 0.613600 -0.596130
O4    O     O_R   0.605010 0.500010 0.613590 -0.575951
O5    O     O_R   0.381240 0.319660 0.500000 -0.579928
O6    O     O_R   0.618810 0.319640 0.499990 -0.581853
O7    O     O_R   0.394990 0.499990 0.386410 -0.536795
O8    O     O_R   0.632560 0.499970 0.386400 -0.608953
N3    N     N_2   0.266957 0.305132 0.368149 -0.362628
H22   H     H_    0.331980 0.228314 0.367776 0.231815
C37   C     C_3   0.236419 0.331534 0.289549 -0.692771
H23   H     H_    0.334380 0.333468 0.252511 0.227193
H24   H     H_    0.182275 0.423046 0.289142 0.235948
H25   H     H_    0.170599 0.257856 0.263843 0.211027

loop_
_geom_bond_atom_site_label_1
_geom_bond_atom_site_label_2
_ccdc_geom_bond_type
C22   H10   S    
C16   C21   A    
C35   C36   A    
C1    O1    A    
Cu1   O1    S    
C2    H19   S    
C26   C27   A    
C33   H1    S    
C29   H9    S    
C23   O5    A    
C5    H15   S    
C18   C19   A    
C3    C7    A    
C5    C6    A    
C12   O3    A    
C15   C16   A    
Cu1   O7    S    
C11   H4    S    
C2    C32   A    
C34   C35   A    
C23   O6    A    
C27   N2    A    
C8    H20   S    
C10   C31   S    
C19   C20   A    
C8    C9    D    
C29   N1    A    
N3    H22   S    
C29   C30   A    
Cu2   O8    S    
C22   C28   A    
C13   C14   A    
C12   C32   S    
C37   H25   S    
C1    O2    A    
C33   C34   A    
C28   N1    A    
C31   O7    A    
C24   C25   A    
C37   H24   S    
C16   C17   A    
C25   C26   A    
C4    H12   S    
C8    C35   S    
C25   H13   S    
Cu1   Cu2   S    
C3    H18   S    
Cu2   O4    S    
Cu1   O5    S    
C17   C18   A    
C1    C18   S    
Cu2   O6    S    
Cu2   N1    S    
C21   C23   S    
C34   H21   S    
C26   N3    S    
C6    H2    S    
C15   H7    S    
C4    C10   A    
C3    C4    A    
C13   H5    S    
Cu1   O3    S    
C14   H6    S    
Cu2   O2    S    
C2    C36   A    
C24   H11   S    
C7    C9    S    
C30   H14   S    
C11   C17   A    
C37   H23   S    
Cu1   N2    S    
C6    C7    A    
C12   O4    A    
C32   C33   A    
C5    C10   A    
C36   H17   S    
C11   C13   A    
C22   C24   A    
C31   O8    A    
C20   C21   A    
C30   N2    A    
C27   C28   A    
C14   C15   A    
N3    C37   S    
C9    H16   S    
C20   H8    S    
C19   H3    S    
