data_mof_unit_25785.cif
_audit_creation_date              2012-10-26T19:48:48-0400
_audit_creation_method            fapswitch 2.2
_symmetry_space_group_name_H-M    P1
_symmetry_Int_Tables_number       1
_space_group_crystal_system       triclinic
_cell_length_a                    10.721765
_cell_length_b                    9.429488
_cell_length_c                    27.785832
_cell_angle_alpha                 90.115361
_cell_angle_beta                  90.321078
_cell_angle_gamma                 90.004112
_cell_volume                      2809.11876485

loop_
_atom_site_label
_atom_site_type_symbol
_atom_type_description
_atom_site_fract_x
_atom_site_fract_y
_atom_site_fract_z
_atom_type_partial_charge
C1    C     C_R   0.259730 0.499787 0.499886 0.546489
C2    C     C_R   0.385737 0.504464 0.974462 0.022459
C3    C     C_R   0.615589 0.519424 0.974681 0.029125
C4    C     C_R   0.499859 0.499861 0.407464 0.549290
C5    C     C_R   0.500484 0.510519 0.949269 0.009430
C6    C     C_R   0.274215 0.486185 0.947757 -0.119559
C7    C     C_R   0.275229 0.479182 0.897788 -0.092344
C8    C     C_R   0.387125 0.491810 0.872591 0.031531
C9    C     C_R   0.499901 0.508880 0.898228 -0.039276
C10   C     C_R   0.611945 0.525075 0.872730 -0.015427
C11   C     C_R   0.609512 0.522059 0.822201 0.403765
C12   C     C_R   0.488838 0.626617 0.278624 -0.052381
C13   C     C_R   0.389054 0.488204 0.822086 0.403397
C14   C     C_R   0.490759 0.373485 0.721479 -0.057397
C15   C     C_R   0.491108 0.372570 0.671269 -0.144839
C16   C     C_R   0.740072 0.499797 0.499924 0.559524
C17   C     C_R   0.506239 0.629336 0.671089 -0.144811
C18   C     C_R   0.506527 0.629854 0.721251 -0.057361
C19   C     C_R   0.498812 0.502062 0.746542 0.245631
C20   C     C_R   0.386371 0.515547 0.025399 0.025022
C21   C     C_R   0.501293 0.505424 0.050717 0.019857
C22   C     C_R   0.615008 0.497845 0.025291 -0.004765
C23   C     C_R   0.500853 0.498581 0.253499 0.238876
C24   C     C_R   0.275894 0.535207 0.052018 -0.117967
C25   C     C_R   0.725170 0.450445 0.100932 0.255252
C26   C     C_R   0.725335 0.551972 0.948136 0.207983
C27   C     C_R   0.722871 0.550000 0.897979 -0.061163
C28   C     C_R   0.499610 0.500135 0.592570 0.561388
C29   C     C_R   0.723060 0.458726 0.050888 -0.052219
C30   C     C_3   0.072660 0.573503 0.545740 -0.236550
C31   C     C_3   0.071314 0.344566 0.498799 -0.234684
C32   C     C_3   0.928743 0.573942 0.545657 -0.228809
C33   C     C_3   0.928617 0.344622 0.498930 -0.234008
C34   C     C_R   0.502315 0.500641 0.101817 -0.065394
C35   C     C_3   0.071244 0.578130 0.454884 -0.230682
C36   C     C_3   0.121800 0.499039 0.499816 0.048323
C37   C     C_3   0.878086 0.499073 0.499831 0.042743
C38   C     C_3   0.927270 0.577855 0.454834 -0.235456
C39   C     C_3   0.622482 0.084769 0.518011 0.121991
C40   C     C_3   0.622578 0.915473 0.517906 0.122568
C41   C     C_3   0.399849 0.083702 0.531930 -0.102217
C42   C     C_3   0.400091 0.916596 0.532046 -0.102408
C43   C     C_3   0.478241 0.083390 0.452096 -0.141500
C44   C     C_3   0.477977 0.916114 0.452111 -0.142011
C45   C     C_R   0.389977 0.518832 0.127247 0.026672
C46   C     C_R   0.391896 0.517783 0.177626 0.405109
C47   C     C_R   0.611699 0.477610 0.178300 0.428686
C48   C     C_R   0.512300 0.370982 0.278778 -0.051678
C49   C     C_R   0.511588 0.371206 0.328958 -0.143901
C50   C     C_R   0.488675 0.627261 0.328816 -0.144849
C51   C     C_R   0.278043 0.537848 0.101982 -0.076302
C52   C     C_R   0.615074 0.476865 0.127391 0.028164
C53   C     C_R   0.500003 0.499455 0.354460 0.002748
C54   C     C_R   0.499038 0.500613 0.645589 0.002328
Cl1   Cl    Cl    0.869401 0.401910 0.127143 -0.486487
Cl2   Cl    Cl    0.862350 0.624195 0.974062 -0.613264
Cu1   Cu    Cu3+1 0.499860 0.642410 0.500020 0.907223
Cu2   Cu    Cu3+1 0.499860 0.357590 0.500020 0.907708
H1    H     H_    0.479324 0.727620 0.347463 0.115895
H2    H     H_    0.105975 0.284929 0.530742 0.116144
H3    H     H_    0.893979 0.519217 0.578410 0.129498
H4    H     H_    0.895524 0.285683 0.531061 0.130293
H5    H     H_    0.480045 0.725573 0.259192 0.133045
H6    H     H_    0.895015 0.685366 0.547034 0.129436
H7    H     H_    0.893657 0.287787 0.466374 0.117670
H8    H     H_    0.105412 0.689611 0.454695 0.120872
H9    H     H_    0.105790 0.526101 0.421524 0.123961
H10   H     H_    0.892780 0.689202 0.454473 0.118600
H11   H     H_    0.892042 0.525294 0.421526 0.123190
H12   H     H_    0.521450 0.271694 0.259468 0.134323
H13   H     H_    0.694847 0.117103 0.491552 0.110827
H14   H     H_    0.694755 0.883094 0.491316 0.111768
H15   H     H_    0.407314 0.124402 0.569291 0.115440
H16   H     H_    0.408319 0.876847 0.569454 0.116119
H17   H     H_    0.387931 0.122924 0.437441 0.123524
H18   H     H_    0.387409 0.876746 0.437582 0.121729
H19   H     H_    0.551735 0.120799 0.427046 0.107770
H20   H     H_    0.551131 0.878185 0.426950 0.109977
H21   H     H_    0.307290 0.120424 0.518751 0.105401
H22   H     H_    0.307444 0.879118 0.519133 0.106936
H23   H     H_    0.511784 0.729638 0.652382 0.117560
H24   H     H_    0.190865 0.553812 0.120772 0.207150
H25   H     H_    0.484812 0.271837 0.652650 0.114915
H26   H     H_    0.484664 0.274396 0.740954 0.126719
H27   H     H_    0.187419 0.464396 0.878953 0.181402
H28   H     H_    0.184726 0.472381 0.964637 0.149868
H29   H     H_    0.186478 0.552958 0.035112 0.157042
H30   H     H_    0.520553 0.271140 0.347706 0.115962
H31   H     H_    0.752844 0.121274 0.571757 0.187679
H32   H     H_    0.604785 0.115542 0.592365 0.212453
H33   H     H_    0.753787 0.878553 0.571171 0.187297
H34   H     H_    0.808081 0.573169 0.878723 0.200684
H35   H     H_    0.606347 0.886360 0.592266 0.210339
H36   H     H_    0.512420 0.729549 0.740544 0.126901
H37   H     H_    0.806291 0.426599 0.032138 0.204086
H38   H     H_    0.107338 0.684688 0.547505 0.116653
H39   H     H_    0.104874 0.288297 0.466057 0.122665
H40   H     H_    0.107734 0.517717 0.578388 0.120257
N1    N     N_R   0.501516 0.498136 0.201904 -0.412801
N2    N     N_R   0.499228 0.503143 0.798087 -0.396693
N3    N     N_3   0.500250 0.143650 0.501060 -0.207197
N4    N     N_3   0.500250 0.856350 0.501060 -0.207091
N5    N     N_3   0.660587 0.149161 0.564004 -0.570445
N6    N     N_3   0.661149 0.851354 0.563777 -0.571517
O1    O     O_R   0.317570 0.620260 0.500030 -0.518958
O2    O     O_2   0.281751 0.471090 0.797118 -0.486538
O3    O     O_2   0.716940 0.460302 0.204364 -0.400415
O4    O     O_2   0.716400 0.537514 0.797324 -0.484118
O5    O     O_R   0.317570 0.379740 0.500030 -0.518979
O6    O     O_R   0.499900 0.620250 0.430280 -0.517150
O7    O     O_R   0.499900 0.379750 0.430280 -0.516640
O8    O     O_R   0.682190 0.620260 0.500010 -0.486849
O9    O     O_R   0.682190 0.379740 0.500010 -0.487375
O10   O     O_R   0.499860 0.620280 0.569750 -0.480231
O11   O     O_R   0.499860 0.379720 0.569750 -0.479794
O12   O     O_2   0.284906 0.535597 0.202300 -0.462834

loop_
_geom_bond_atom_site_label_1
_geom_bond_atom_site_label_2
_ccdc_geom_bond_type
C10   C27   A    
Cu1   O1    S    
C46   N1    A    
C42   H22   S    
C8    C13   A    
C22   C29   A    
C4    C53   S    
Cu2   O5    S    
C41   C42   S    
C23   N1    S    
C35   C36   S    
C14   H26   S    
H33   N6    S    
C16   O9    A    
C33   H7    S    
C7    C8    A    
C45   C46   A    
Cu1   N4    S    
C12   C23   A    
C26   C27   A    
C50   H1    S    
C32   H3    S    
Cu1   O8    S    
C45   C51   A    
C47   N1    A    
C18   C19   A    
C44   H18   S    
C30   H38   S    
C1    O5    A    
C20   C24   A    
C33   H4    S    
Cu2   O9    S    
C31   C33   S    
C9    C10   A    
C16   C37   S    
C24   C51   A    
C38   H11   S    
C21   C22   A    
H31   N5    S    
C43   H17   S    
C49   H30   S    
C2    C6    A    
C42   N4    S    
H35   N6    S    
C39   N3    S    
C25   C29   A    
C42   H16   S    
C50   C53   A    
C2    C20   A    
Cu2   O7    S    
C15   C54   A    
C35   C38   S    
C32   H6    S    
C39   C40   S    
C34   C45   A    
C12   H5    S    
C28   C54   S    
C8    C9    A    
C15   H25   S    
C21   C34   A    
C35   H8    S    
C41   H15   S    
C33   C37   S    
C11   N2    A    
C31   H2    S    
C43   C44   S    
C43   N3    S    
C5    C9    A    
C37   C38   S    
C28   O11   A    
C40   N6    S    
Cu1   O6    S    
C35   H9    S    
C17   C18   A    
C27   H34   S    
Cu2   N3    S    
C32   C37   S    
C51   H24   S    
C47   C52   A    
C28   O10   A    
C48   C49   A    
C4    O7    A    
C38   H10   S    
C47   O3    S    
Cu2   O11   S    
C18   H36   S    
C2    C5    A    
C16   O8    A    
C29   H37   S    
C4    O6    A    
C44   N4    S    
C23   C48   A    
C40   H14   S    
C14   C15   A    
C14   C19   A    
C3    C26   A    
C25   Cl1   S    
C48   H12   S    
C13   O2    S    
C3    C5    A    
C26   Cl2   S    
C41   H21   S    
C12   C50   A    
C19   N2    S    
C39   N5    S    
C6    C7    A    
C30   C36   S    
C43   H19   S    
C30   H40   S    
C34   C52   A    
C6    H28   S    
C46   O12   S    
C13   N2    A    
C44   H20   S    
C25   C52   A    
C30   C32   S    
Cu1   Cu2   S    
C7    H27   S    
Cu1   O10   S    
C49   C53   A    
C41   N3    S    
C17   H23   S    
C31   H39   S    
C24   H29   S    
H32   N5    S    
C10   C11   A    
C40   N4    S    
C20   C21   A    
C11   O4    S    
C39   H13   S    
C31   C36   S    
C3    C22   A    
C17   C54   A    
C1    C36   S    
C1    O1    A    
