data_mof_unit_18602.cif
_audit_creation_date              2012-12-10T17:24:12-0500
_audit_creation_method            fapswitch 2.2
_symmetry_space_group_name_H-M    P1
_symmetry_Int_Tables_number       1
_space_group_crystal_system       triclinic
_cell_length_a                    19.381918
_cell_length_b                    10.775063
_cell_length_c                    9.63244
_cell_angle_alpha                 90.240019
_cell_angle_beta                  89.921316
_cell_angle_gamma                 95.826987
_cell_volume                      2001.23945923

loop_
_atom_site_label
_atom_site_type_symbol
_atom_type_description
_atom_site_fract_x
_atom_site_fract_y
_atom_site_fract_z
_atom_type_partial_charge
C1    C     C_R   0.496967 0.262377 0.499844 0.762348
C2    C     C_R   0.291894 0.501053 0.502417 -0.081762
C3    C     C_R   0.932079 0.495347 0.497975 0.458682
C4    C     C_R   0.071729 0.502429 0.505043 0.359994
C5    C     C_R   0.820340 0.489787 0.623582 0.419312
C6    C     C_R   0.747304 0.480152 0.625896 -0.150245
C7    C     C_R   0.709435 0.481295 0.498733 -0.279550
C8    C     C_R   0.746508 0.474062 0.370914 0.419175
C9    C     C_R   0.819628 0.479095 0.370437 -0.146810
C10   C     C_R   0.856129 0.491818 0.496747 -0.179330
C11   C     C_R   0.388425 0.110305 0.652687 -0.168459
C12   C     C_R   0.367648 0.499494 0.500325 0.746265
C13   C     C_R   0.338439 0.036793 0.728241 -0.082108
C14   C     C_R   0.338630 0.907771 0.729307 -0.118669
C15   C     C_R   0.388803 0.851448 0.654821 -0.176516
C16   C     C_R   0.440853 0.924179 0.579429 0.089687
C17   C     C_R   0.440747 0.055498 0.578590 0.100053
C18   C     C_R   0.491637 0.127623 0.499448 -0.103925
C19   C     C_R   0.538961 0.070745 0.417743 -0.161627
C20   C     C_R   0.538869 0.942792 0.418230 -0.136767
C21   C     C_R   0.491629 0.869569 0.500489 -0.098832
C22   C     C_R   0.592016 0.668464 0.153917 -0.145803
C23   C     C_R   0.496584 0.736522 0.500143 0.853043
C24   C     C_R   0.639332 0.754566 0.094008 0.302391
C25   C     C_R   0.642197 0.763036 0.953604 -0.142448
C26   C     C_R   0.599020 0.683738 0.868005 0.342021
C27   C     C_R   0.547223 0.587662 0.926682 0.099076
C28   C     C_R   0.545790 0.584805 0.077228 0.127088
C29   C     C_R   0.456021 0.418327 0.071550 0.079792
C30   C     C_R   0.456713 0.419703 0.923992 -0.006866
C31   C     C_R   0.632544 0.492427 0.499557 0.901102
C32   C     C_R   0.255449 0.482749 0.627992 -0.162255
C33   C     C_R   0.183306 0.485334 0.633161 -0.003684
C34   C     C_R   0.147401 0.505825 0.508868 -0.022150
C35   C     C_R   0.184112 0.526054 0.384156 -0.114182
C36   C     C_R   0.255712 0.523017 0.380643 -0.156761
Cu1   Cu    Cu3+1 0.500000 0.499990 0.640660 0.977522
Cu2   Cu    Cu3+1 0.500000 0.500010 0.359340 0.967058
H1    H     H_    0.283418 0.467160 0.722620 0.191684
H2    H     H_    0.384489 0.209619 0.650849 0.138408
H3    H     H_    0.298785 0.080050 0.784589 0.172233
H4    H     H_    0.299117 0.850864 0.786478 0.153223
H5    H     H_    0.385278 0.750809 0.655126 0.151260
H6    H     H_    0.577027 0.900686 0.356573 0.195956
H7    H     H_    0.595290 0.670836 0.262798 0.234841
H8    H     H_    0.680770 0.833346 0.911781 0.235976
H9    H     H_    0.421577 0.354906 0.865399 0.169686
H10   H     H_    0.156985 0.541848 0.288542 0.171195
H11   H     H_    0.282693 0.538162 0.282677 0.169192
H12   H     H_    0.577344 0.126038 0.355838 0.187791
N1    N     N_R   0.041013 0.598424 0.449600 -0.204648
N2    N     N_R   0.972213 0.595234 0.446800 -0.211791
N3    N     N_R   0.962805 0.398656 0.551568 -0.151481
N4    N     N_R   0.031535 0.402130 0.555003 -0.209367
N5    N     N_R   0.500660 0.501210 0.147910 -0.221699
N6    N     N_R   0.500680 0.501290 0.852040 -0.209816
O1    O     O_R   0.499990 0.319640 0.618810 -0.584962
O2    O     O_R   0.500000 0.319660 0.381240 -0.596852
O3    O     O_R   0.400140 0.499970 0.618820 -0.603391
O4    O     O_R   0.400150 0.500000 0.381250 -0.610853
O5    O     O_R   0.500000 0.680340 0.618760 -0.530365
O6    O     O_R   0.500010 0.680360 0.381190 -0.613264
O7    O     O_R   0.599850 0.500000 0.618750 -0.556304
O8    O     O_R   0.599860 0.500030 0.381180 -0.541101
C37   C     C_2   0.405554 0.324413 0.139360 0.372414
H13   H     H_    0.399362 0.319410 0.249823 0.138643
O9    O     O_2   0.368818 0.248712 0.070357 -0.567915
Cl1   Cl    Cl    0.697533 0.851353 0.196720 -0.536493
Cl2   Cl    Cl    0.627092 0.729955 0.700005 -0.581574
C38   C     C_2   0.147025 0.471679 0.769249 0.392574
H14   H     H_    0.093110 0.488984 0.779007 0.118857
O10   O     O_2   0.177271 0.442038 0.873274 -0.530487
Cl3   Cl    Cl    0.868332 0.495178 0.781046 -0.464018
C39   C     C_2   0.711593 0.458894 0.761654 0.591483
H15   H     H_    0.669900 0.384320 0.772223 0.060599
O11   O     O_2   0.727783 0.524816 0.862162 -0.428080
Cl4   Cl    Cl    0.703514 0.456371 0.208172 -0.485367
C40   C     C_2   0.858920 0.468464 0.238355 0.561866
H16   H     H_    0.907188 0.526384 0.221122 0.080232
O12   O     O_2   0.839433 0.391281 0.149964 -0.414145

loop_
_geom_bond_atom_site_label_1
_geom_bond_atom_site_label_2
_ccdc_geom_bond_type
C16   C21   A    
C3    N3    A    
C35   C36   A    
C2    C12   S    
C13   H3    S    
C7    C8    A    
N3    N4    A    
C1    C18   S    
Cu1   Cu2   S    
C39   O11   D    
C18   C19   A    
C5    C6    A    
C40   O12   D    
C15   C16   A    
C2    C32   A    
C34   C35   A    
C32   H1    S    
Cu1   O7    S    
Cu2   O2    S    
Cu1   N6    S    
C23   O6    A    
Cu2   N5    S    
C19   C20   A    
C8    C9    A    
C37   O9    D    
C38   H14   S    
C9    C10   A    
C14   H4    S    
C22   C28   A    
C13   C14   A    
C12   O3    A    
C35   H10   S    
C20   H6    S    
C28   N5    A    
C6    C39   S    
Cu2   O8    S    
C4    C34   S    
C7    C31   S    
C39   H15   S    
C4    N1    A    
N1    N2    A    
C31   O7    A    
C30   H9    S    
C24   C25   A    
C27   N6    A    
C16   C17   A    
C29   N5    A    
C25   C26   A    
C30   N6    A    
C29   C30   A    
C1    O1    A    
C17   C18   A    
C26   C27   A    
Cu1   O3    S    
C33   C38   S    
Cu2   O4    S    
C21   C23   S    
C8    Cl4   S    
C29   C37   S    
C2    C36   A    
C11   C17   A    
C4    N4    A    
C40   H16   S    
C31   O8    A    
Cu1   O5    S    
C3    N2    A    
C6    C7    A    
C32   C33   A    
C15   H5    S    
C5    C10   A    
C3    C10   S    
C1    O2    A    
C11   C13   A    
C19   H12   S    
C33   C34   A    
C22   C24   A    
C9    C40   S    
C5    Cl3   S    
C11   H2    S    
C24   Cl1   S    
C12   O4    A    
C23   O5    A    
C22   H7    S    
C20   C21   A    
C37   H13   S    
C27   C28   A    
C26   Cl2   S    
C14   C15   A    
C38   O10   D    
C25   H8    S    
Cu1   O1    S    
C36   H11   S    
Cu2   O6    S    
