data_mof_unit_21184.cif
_audit_creation_date              2012-12-10T19:44:58-0500
_audit_creation_method            fapswitch 2.2
_symmetry_space_group_name_H-M    P1
_symmetry_Int_Tables_number       1
_space_group_crystal_system       triclinic
_cell_length_a                    15.075791
_cell_length_b                    10.825335
_cell_length_c                    13.676904
_cell_angle_alpha                 90.022136
_cell_angle_beta                  90.229543
_cell_angle_gamma                 90.266763
_cell_volume                      2232.03511836

loop_
_atom_site_label
_atom_site_type_symbol
_atom_type_description
_atom_site_fract_x
_atom_site_fract_y
_atom_site_fract_z
_atom_type_partial_charge
C1    C     C_R   0.502359 0.262150 0.499851 0.800883
C2    C     C_R   0.497641 0.737850 0.500149 0.800884
C3    C     C_R   0.045512 0.522877 0.322666 -0.195920
C4    C     C_R   0.954488 0.477121 0.677334 -0.195930
C5    C     C_R   0.595514 0.171422 0.164907 -0.232350
C6    C     C_R   0.404481 0.828570 0.835089 -0.232343
C7    C     C_R   0.552930 0.111713 0.242416 -0.240245
C8    C     C_R   0.447067 0.888282 0.757583 -0.240243
C9    C     C_R   0.586907 0.121501 0.337841 0.133888
C10   C     C_R   0.413091 0.878499 0.662157 0.133888
C11   C     C_R   0.665043 0.189562 0.354408 -0.189398
C12   C     C_R   0.334954 0.810441 0.645587 -0.189401
C13   C     C_R   0.707735 0.248616 0.276766 -0.182624
C14   C     C_R   0.292260 0.751385 0.723227 -0.182631
C15   C     C_R   0.672742 0.240930 0.181943 0.521912
C16   C     C_R   0.327252 0.759065 0.818051 0.521914
C17   C     C_R   0.534643 0.933490 0.421508 -0.231715
C18   C     C_R   0.465357 0.066510 0.578492 -0.231715
C19   C     C_R   0.495767 0.871714 0.500443 -0.087221
C20   C     C_R   0.504234 0.128286 0.499557 -0.087221
C21   C     C_R   0.459788 0.938574 0.579557 0.022861
C22   C     C_R   0.540212 0.061426 0.420443 0.022861
C23   C     C_R   0.328448 0.499628 0.499872 0.812634
C24   C     C_R   0.671552 0.500371 0.500128 0.812632
C25   C     C_R   0.552317 0.582261 0.793488 0.024825
C26   C     C_R   0.447683 0.417739 0.206512 0.024828
C27   C     C_R   0.447565 0.417620 0.793031 0.042201
C28   C     C_R   0.552435 0.582380 0.206969 0.042194
C29   C     C_R   0.446673 0.415273 0.896127 0.032789
C30   C     C_R   0.553327 0.584728 0.103873 0.032784
C31   C     C_R   0.500012 0.499952 0.948160 0.146816
C32   C     C_R   0.499987 0.500048 0.051840 0.146815
C33   C     C_R   0.553377 0.584529 0.896584 0.000426
C34   C     C_R   0.446623 0.415471 0.103416 0.000427
C35   C     C_R   0.393807 0.330831 0.948185 -0.126474
C36   C     C_R   0.606193 0.669170 0.051815 -0.126481
C37   C     C_R   0.393774 0.330948 0.050925 -0.178206
C38   C     C_R   0.606226 0.669052 0.949075 -0.178208
C39   C     C_R   0.815014 0.489190 0.588721 -0.231934
C40   C     C_R   0.184986 0.510809 0.411279 -0.231929
C41   C     C_R   0.768363 0.500930 0.500292 -0.084320
C42   C     C_R   0.231637 0.499070 0.499708 -0.084322
C43   C     C_R   0.814384 0.513158 0.411860 -0.251490
C44   C     C_R   0.185616 0.486841 0.588140 -0.251491
C45   C     C_R   0.906736 0.512378 0.411063 0.098746
C46   C     C_R   0.093264 0.487620 0.588937 0.098749
C47   C     C_R   0.953518 0.500297 0.500076 0.065874
C48   C     C_R   0.046482 0.499701 0.499924 0.065874
C49   C     C_R   0.907430 0.488867 0.589245 0.102065
C50   C     C_R   0.092570 0.511131 0.410755 0.102061
C51   C     C_R   0.953035 0.523461 0.322815 -0.185817
C52   C     C_R   0.046965 0.476537 0.677185 -0.185823
Cu1   Cu    Cu3+1 0.500010 0.499980 0.597420 0.955139
Cu2   Cu    Cu3+1 0.499990 0.500020 0.402580 0.955138
H1    H     H_    0.779539 0.479859 0.657160 0.166272
H2    H     H_    0.220461 0.520141 0.342840 0.166274
H3    H     H_    0.563661 0.881751 0.361772 0.155396
H4    H     H_    0.436340 0.118249 0.638228 0.155397
H5    H     H_    0.593048 0.646525 0.752665 0.132281
H6    H     H_    0.406952 0.353474 0.247335 0.132282
H7    H     H_    0.406549 0.353647 0.751858 0.121877
H8    H     H_    0.593450 0.646353 0.248142 0.121877
H9    H     H_    0.352384 0.264853 0.909460 0.140953
H10   H     H_    0.647616 0.735147 0.090540 0.140952
H11   H     H_    0.352455 0.264912 0.089311 0.142253
H12   H     H_    0.647545 0.735088 0.910689 0.142251
H13   H     H_    0.778445 0.523425 0.343522 0.176276
H14   H     H_    0.221555 0.476574 0.656478 0.176283
H15   H     H_    0.917727 0.532520 0.254021 0.181156
H16   H     H_    0.082273 0.467479 0.745979 0.181155
H17   H     H_    0.080220 0.531633 0.253761 0.161462
H18   H     H_    0.919780 0.468365 0.746239 0.161456
H19   H     H_    0.567917 0.163789 0.091966 0.179279
H20   H     H_    0.432077 0.836198 0.908032 0.179277
H21   H     H_    0.492781 0.059438 0.228365 0.157731
H22   H     H_    0.507217 0.940554 0.771636 0.157728
H23   H     H_    0.692525 0.197343 0.427467 0.134827
H24   H     H_    0.307473 0.802664 0.572527 0.134828
H25   H     H_    0.768121 0.300261 0.290477 0.166410
H26   H     H_    0.231873 0.699742 0.709513 0.166407
N1    N     N_R   0.499960 0.499900 0.743810 -0.190105
N2    N     N_R   0.500040 0.500100 0.256190 -0.190105
O1    O     O_R   0.500000 0.319630 0.582270 -0.589961
O2    O     O_R   0.500000 0.680370 0.417730 -0.589961
O3    O     O_R   0.499990 0.319660 0.417730 -0.575882
O4    O     O_R   0.500010 0.680340 0.582270 -0.575882
O5    O     O_R   0.370260 0.499960 0.582280 -0.585160
O6    O     O_R   0.629740 0.500040 0.417720 -0.585162
O7    O     O_R   0.370250 0.499990 0.417740 -0.585777
O8    O     O_R   0.629750 0.500010 0.582260 -0.585777
S1    S     S_3+6 0.727023 0.316937 0.085301 -0.030704
O9    O     O_2   0.669195 0.319292 0.995538 -0.319852
O10   O     O_2   0.749373 0.446830 0.115835 -0.334195
O11   O     O_3   0.821361 0.241206 0.060411 -0.525126
H27   H     H_    0.850215 0.290219 0.008198 0.377266
S2    S     S_3+6 0.272969 0.683054 0.914689 -0.030702
O12   O     O_2   0.250623 0.553161 0.884149 -0.334240
O13   O     O_2   0.330794 0.680695 0.004454 -0.319807
O14   O     O_3   0.178630 0.758782 0.939578 -0.525130
H28   H     H_    0.149739 0.709711 0.991731 0.377269

loop_
_geom_bond_atom_site_label_1
_geom_bond_atom_site_label_2
_ccdc_geom_bond_type
Cu2   O6    S    
C13   H25   S    
C27   C29   A    
C18   C21   A    
C2    O2    A    
C4    H18   S    
Cu2   O2    S    
C47   C49   A    
Cu1   Cu2   S    
C23   C42   S    
C4    C52   A    
C35   C37   A    
C9    C22   S    
C45   C51   A    
C34   C37   A    
S2    O14   S    
C46   C52   A    
C8    H22   S    
Cu1   N1    S    
C27   H7    S    
C26   C34   A    
C39   H1    S    
C38   H12   S    
C40   H2    S    
C12   H24   S    
C23   O7    A    
Cu1   O4    S    
C14   H26   S    
C11   H23   S    
C40   C42   A    
C26   N2    A    
C23   O5    A    
C25   N1    A    
C24   C41   S    
C41   C43   A    
C42   C44   A    
C3    C50   A    
C44   C46   A    
C6    H20   S    
C45   C47   A    
C10   C21   S    
C1    O3    A    
C46   C48   A    
C16   S2    S    
C28   N2    A    
C47   C48   A    
C27   N1    A    
Cu2   O7    S    
C39   C41   A    
S1    O9    D    
C5    C7    A    
C3    C51   A    
C7    H21   S    
C6    C16   A    
S2    O13   D    
C32   C34   A    
C3    H17   S    
C43   H13   S    
S1    O10   D    
C24   O6    A    
O14   H28   S    
C29   C31   A    
S2    O12   D    
C31   C33   A    
Cu1   O5    S    
C48   C50   A    
C9    C11   A    
C10   C12   A    
C37   H11   S    
C39   C49   A    
C20   C22   A    
C13   C15   A    
C14   C16   A    
C44   H14   S    
Cu2   N2    S    
C7    C9    A    
C1    C20   S    
C19   C21   A    
C2    C19   S    
C31   C32   A    
C33   C38   A    
C12   C14   A    
C24   O8    A    
Cu2   O3    S    
C6    C8    A    
C1    O1    A    
C25   H5    S    
C29   C35   A    
C17   C22   A    
C30   C36   A    
C4    C49   A    
Cu1   O1    S    
C36   C38   A    
C43   C45   A    
S1    O11   S    
C30   C32   A    
C11   C13   A    
C40   C50   A    
C28   C30   A    
C17   C19   A    
C18   H4    S    
C2    O4    A    
C18   C20   A    
C5    H19   S    
O11   H27   S    
C5    C15   A    
C52   H16   S    
C15   S1    S    
C8    C10   A    
C25   C33   A    
Cu1   O8    S    
C35   H9    S    
C51   H15   S    
C36   H10   S    
C26   H6    S    
C17   H3    S    
C28   H8    S    
