data_mof_unit_27095.cif
_audit_creation_date              2012-12-10T19:10:04-0500
_audit_creation_method            fapswitch 2.2
_symmetry_space_group_name_H-M    P1
_symmetry_Int_Tables_number       1
_space_group_crystal_system       triclinic
_cell_length_a                    10.791726
_cell_length_b                    10.796634
_cell_length_c                    9.539799
_cell_angle_alpha                 90.145212
_cell_angle_beta                  90.156422
_cell_angle_gamma                 89.955683
_cell_volume                      1111.51511517

loop_
_atom_site_label
_atom_site_type_symbol
_atom_type_description
_atom_site_fract_x
_atom_site_fract_y
_atom_site_fract_z
_atom_type_partial_charge
C1    C     C_R   0.498113 0.262466 0.499693 0.789404
C2    C     C_R   0.241489 0.817720 0.113040 -0.275077
C3    C     C_R   0.932980 0.568401 0.401840 -0.228931
C4    C     C_R   0.871603 0.494643 0.499987 -0.098367
C5    C     C_R   0.938950 0.423666 0.598135 -0.000671
C6    C     C_R   0.067428 0.431215 0.598320 -0.192168
C7    C     C_R   0.128588 0.504374 0.499737 -0.062631
C8    C     C_R   0.061408 0.573891 0.400607 0.058272
C9    C     C_R   0.895927 0.342523 0.838808 -0.168667
C10   C     C_R   0.844127 0.253803 0.927608 -0.136233
C11   C     C_R   0.778722 0.153594 0.871288 -0.105778
C12   C     C_R   0.262443 0.502830 0.499824 0.807342
C13   C     C_R   0.764365 0.142424 0.726145 -0.136151
C14   C     C_R   0.813476 0.232413 0.637221 -0.112192
C15   C     C_R   0.879634 0.333176 0.693009 0.124220
C16   C     C_R   0.429182 0.063531 0.600925 0.165220
C17   C     C_R   0.490602 0.129386 0.496288 -0.089857
C18   C     C_R   0.537665 0.064460 0.380139 -0.160544
C19   C     C_R   0.538871 0.935512 0.380460 -0.133427
C20   C     C_R   0.493729 0.870751 0.497186 -0.113861
C21   C     C_R   0.432107 0.936400 0.601843 0.154872
C22   C     C_3   0.437964 0.930211 0.757781 -0.454921
C23   C     C_R   0.499872 0.737584 0.499923 0.808138
C24   C     C_3   0.432073 0.071218 0.757300 -0.520533
C25   C     C_R   0.557625 0.592746 0.074053 0.229256
C26   C     C_R   0.432905 0.415768 0.074004 -0.079362
C27   C     C_R   0.432985 0.415689 0.925076 -0.001652
C28   C     C_R   0.557025 0.593098 0.926573 0.199827
C29   C     C_3   0.690468 0.627631 0.919536 -0.542918
C30   C     C_3   0.692080 0.624789 0.078449 0.378612
C31   C     C_R   0.737625 0.496973 0.500147 0.799763
C32   C     C_R   0.223805 0.854134 0.252298 0.593781
C33   C     C_R   0.165628 0.774190 0.346486 -0.242423
C34   C     C_R   0.122526 0.658286 0.300766 -0.043270
C35   C     C_R   0.138748 0.622782 0.160324 -0.197117
C36   C     C_R   0.199157 0.702072 0.066990 0.571592
Cu1   Cu    Cu3+1 0.499990 0.499980 0.640670 0.981777
Cu2   Cu    Cu3+1 0.500010 0.500020 0.359330 0.966765
H1    H     H_    0.287421 0.879572 0.040952 0.166829
H2    H     H_    0.739710 0.084263 0.939999 0.142656
H3    H     H_    0.715368 0.063847 0.682406 0.134646
H4    H     H_    0.802029 0.222373 0.524929 0.104689
H5    H     H_    0.579214 0.112832 0.292711 0.153828
H6    H     H_    0.580211 0.887156 0.292796 0.217320
H7    H     H_    0.353956 0.886093 0.802163 0.233984
H8    H     H_    0.527762 0.893204 0.796927 0.203710
H9    H     H_    0.343787 0.107958 0.800473 0.204736
H10   H     H_    0.516696 0.116247 0.799305 0.212236
H11   H     H_    0.380437 0.346177 0.129501 0.156974
H12   H     H_    0.380543 0.346094 0.868886 0.127973
H13   H     H_    0.748805 0.554288 0.871899 0.187585
H14   H     H_    0.703910 0.721685 0.874953 0.219861
H15   H     H_    0.751799 0.550714 0.123003 0.091690
H16   H     H_    0.153402 0.802636 0.454574 0.169394
H17   H     H_    0.106074 0.533391 0.124009 0.152765
H18   H     H_    0.880663 0.624552 0.328473 0.192880
H19   H     H_    0.120325 0.375402 0.671668 0.151703
H20   H     H_    0.948110 0.418730 0.883510 0.139231
H21   H     H_    0.855701 0.262116 0.039968 0.133550
N1    N     N_R   0.500790 0.500930 0.147930 -0.228327
N2    N     N_R   0.500790 0.500890 0.852020 -0.171241
O1    O     O_R   0.500000 0.319640 0.618810 -0.588860
O2    O     O_R   0.500010 0.319680 0.381230 -0.587357
O3    O     O_R   0.319640 0.499990 0.618790 -0.554146
O4    O     O_R   0.319650 0.500030 0.381210 -0.578757
O5    O     O_R   0.499990 0.680320 0.618770 -0.570859
O6    O     O_R   0.500000 0.680360 0.381190 -0.561103
O7    O     O_R   0.680350 0.499970 0.618790 -0.575524
O8    O     O_R   0.680360 0.500010 0.381210 -0.591507
F1    F     F_    0.262079 0.967498 0.295683 -0.671313
F2    F     F_    0.711931 0.740721 0.136236 -0.678260
F3    F     F_    0.216361 0.666967 0.931820 -0.673075

loop_
_geom_bond_atom_site_label_1
_geom_bond_atom_site_label_2
_ccdc_geom_bond_type
Cu1   N2    S    
Cu2   O4    S    
C25   C30   S    
C16   C21   A    
C25   N1    A    
C3    H18   S    
C1    C17   S    
C19   C20   A    
C20   C23   S    
C14   H4    S    
Cu1   O5    S    
Cu1   O3    S    
Cu1   O7    S    
C13   H3    S    
C30   F2    S    
C9    C15   A    
Cu2   O8    S    
C7    C8    A    
C16   C24   S    
C8    C34   S    
C13   C14   A    
Cu2   O6    S    
C25   C28   A    
C18   H5    S    
C11   C13   A    
C6    H19   S    
C26   C27   A    
C29   C30   S    
C26   N1    A    
C27   H12   S    
Cu2   N1    S    
C5    C6    A    
C1    O2    A    
C23   O5    A    
C2    C32   A    
C28   C29   S    
C22   H8    S    
Cu1   Cu2   S    
C33   C34   A    
Cu1   O1    S    
C6    C7    A    
C3    C8    A    
C29   H13   S    
C31   O7    A    
C12   O3    A    
C30   H15   S    
C22   C24   S    
C7    C12   S    
C5    C15   S    
C4    C31   S    
C16   C17   A    
C10   C11   A    
C28   N2    A    
C35   H17   S    
C11   H2    S    
C24   H10   S    
C9    C10   A    
C36   F3    S    
C31   O8    A    
C22   H7    S    
C2    C36   A    
C19   H6    S    
C1    O1    A    
C17   C18   A    
C34   C35   A    
C12   O4    A    
C26   H11   S    
C23   O6    A    
C33   H16   S    
Cu2   O2    S    
C18   C19   A    
C14   C15   A    
C9    H20   S    
C32   F1    S    
C35   C36   A    
C27   N2    A    
C20   C21   A    
C21   C22   S    
C24   H9    S    
C10   H21   S    
C2    H1    S    
C3    C4    A    
C32   C33   A    
C4    C5    A    
C29   H14   S    
