data_mof_unit_11520.cif
_audit_creation_date              2012-12-11T15:27:34-0500
_audit_creation_method            fapswitch 2.2
_symmetry_space_group_name_H-M    P1
_symmetry_Int_Tables_number       1
_space_group_crystal_system       triclinic
_cell_length_a                    23.403077
_cell_length_b                    7.300541
_cell_length_c                    15.104242
_cell_angle_alpha                 89.676656
_cell_angle_beta                  108.667734
_cell_angle_gamma                 90.396262
_cell_volume                      2444.79707036

loop_
_atom_site_label
_atom_site_type_symbol
_atom_type_description
_atom_site_fract_x
_atom_site_fract_y
_atom_site_fract_z
_atom_type_partial_charge
O1    O     O_R   0.711000 0.648610 0.341170 -0.535742
O2    O     O_R   0.289000 0.351390 0.658830 -0.535742
O3    O     O_R   0.789000 0.148610 0.158830 -0.528844
O4    O     O_R   0.211000 0.851390 0.841170 -0.528844
O5    O     O_R   0.829650 0.322030 0.336650 -0.529367
O6    O     O_R   0.170350 0.677970 0.663350 -0.529367
O7    O     O_R   0.670350 0.822030 0.163350 -0.536056
O8    O     O_R   0.329650 0.177970 0.836650 -0.536057
C1    C     C_R   0.854299 0.485974 0.356747 0.726214
C2    C     C_R   0.145701 0.514026 0.643253 0.726213
C3    C     C_R   0.645702 0.985530 0.143239 0.725737
C4    C     C_R   0.354298 0.014469 0.856761 0.725738
O9    O     O_R   0.713950 0.319280 0.352070 -0.532810
O10   O     O_R   0.286050 0.680720 0.647930 -0.532810
O11   O     O_R   0.786050 0.819280 0.147930 -0.540081
O12   O     O_R   0.213950 0.180720 0.852070 -0.540081
O13   O     O_R   0.672470 0.142870 0.174360 -0.524854
O14   O     O_R   0.327530 0.857130 0.825640 -0.524854
O15   O     O_R   0.827530 0.642870 0.325640 -0.531059
O16   O     O_R   0.172470 0.357130 0.674360 -0.531060
C5    C     C_R   0.701444 0.486687 0.375296 0.725439
C6    C     C_R   0.298556 0.513313 0.624704 0.725440
C7    C     C_R   0.798542 0.988116 0.124743 0.725048
C8    C     C_R   0.201458 0.011883 0.875257 0.725048
O17   O     O_3   0.736530 0.478650 0.191680 -0.378812
O18   O     O_3   0.263470 0.521350 0.808320 -0.378812
O19   O     O_3   0.763470 0.978650 0.308320 -0.377914
O20   O     O_3   0.236530 0.021350 0.691680 -0.377914
V1    V     V_3+5 0.752500 0.206170 0.260820 1.503068
V2    V     V_3+5 0.247500 0.793830 0.739180 1.503068
V3    V     V_3+5 0.747500 0.706170 0.239180 1.486314
V4    V     V_3+5 0.252500 0.293830 0.760820 1.486314
C9    C     C_R   0.830093 0.999460 0.055907 -0.050936
C10   C     C_R   0.169907 0.000539 0.944093 -0.050936
C11   C     C_R   0.669964 0.491092 0.444327 -0.050134
C12   C     C_R   0.330036 0.508908 0.555673 -0.050134
C13   C     C_R   0.825338 0.067508 0.897362 -0.153788
C14   C     C_R   0.174662 0.932492 0.102638 -0.153788
C15   C     C_R   0.675530 0.460963 0.605886 -0.153727
C16   C     C_R   0.324470 0.539037 0.394114 -0.153727
C17   C     C_R   0.796368 0.027569 0.962317 -0.206712
C18   C     C_R   0.203632 0.972432 0.037683 -0.206712
C19   C     C_R   0.703982 0.485859 0.538916 -0.205531
C20   C     C_R   0.296018 0.514141 0.461084 -0.205531
C21   C     C_R   0.893640 0.000624 0.084621 0.059559
C22   C     C_R   0.106359 0.999375 0.915379 0.059558
C23   C     C_R   0.606474 0.481944 0.415973 0.060360
C24   C     C_R   0.393525 0.518055 0.584027 0.060360
C25   C     C_R   0.923189 0.009078 0.015524 0.048969
C26   C     C_R   0.076810 0.990921 0.984476 0.048970
C27   C     C_R   0.576964 0.489134 0.485091 0.050178
C28   C     C_R   0.423036 0.510866 0.514909 0.050178
C29   C     C_R   0.888350 0.063313 0.923737 0.111932
C30   C     C_R   0.111650 0.936686 0.076262 0.111932
C31   C     C_R   0.612498 0.457625 0.579516 0.112549
C32   C     C_R   0.387502 0.542375 0.420484 0.112549
C33   C     C_R   0.985904 0.974449 0.033751 0.062991
C34   C     C_R   0.014096 0.025549 0.966248 0.062991
C35   C     C_R   0.513753 0.517767 0.464903 0.063631
C36   C     C_R   0.486247 0.482232 0.535096 0.063631
C37   C     C_R   0.979372 0.118675 0.885424 -0.139281
C38   C     C_R   0.020627 0.881323 0.114575 -0.139281
C39   C     C_R   0.522276 0.409594 0.621075 -0.137490
C40   C     C_R   0.477724 0.590405 0.378924 -0.137490
C41   C     C_R   0.917008 0.123951 0.860985 -0.175689
C42   C     C_R   0.082992 0.876048 0.139015 -0.175689
C43   C     C_R   0.584679 0.411548 0.645596 -0.175901
C44   C     C_R   0.415321 0.588451 0.354403 -0.175901
H1    H     H_    0.891260 0.183232 0.794288 0.130265
H2    H     H_    0.108740 0.816767 0.205712 0.130265
H3    H     H_    0.611233 0.368953 0.715452 0.129777
H4    H     H_    0.388767 0.631046 0.284548 0.129777
H5    H     H_    0.252453 0.968848 0.059090 0.113904
H6    H     H_    0.747546 0.031154 0.940910 0.113904
H7    H     H_    0.247177 0.511710 0.439661 0.113855
H8    H     H_    0.752823 0.488290 0.560339 0.113855
H9    H     H_    0.798495 0.103582 0.826619 0.120468
H10   H     H_    0.201505 0.896419 0.173380 0.120468
H11   H     H_    0.702819 0.442341 0.678305 0.120162
H12   H     H_    0.297181 0.557660 0.321695 0.120162
H13   H     H_    0.999904 0.189436 0.840434 0.164610
H14   H     H_    0.000096 0.810562 0.159566 0.164610
H15   H     H_    0.502765 0.349425 0.670153 0.164721
H16   H     H_    0.497234 0.650574 0.329847 0.164721
C45   C     C_1   0.416801 0.007619 0.918721 -0.141548
C46   C     C_1   0.583199 0.992381 0.081279 -0.141548
C47   C     C_1   0.083200 0.506549 0.581321 -0.140844
C48   C     C_1   0.916800 0.493451 0.418678 -0.140844
C49   C     C_1   0.469155 0.002718 0.969945 0.044367
C50   C     C_1   0.530845 0.997282 0.030055 0.044367
C51   C     C_1   0.030843 0.502192 0.530075 0.045693
C52   C     C_1   0.969157 0.497808 0.469925 0.045693
I1    I     I_    0.060636 0.943152 0.769429 -0.429970
I2    I     I_    0.939364 0.056845 0.230571 -0.429969
I3    I     I_    0.438216 0.609228 0.725271 -0.432722
I4    I     I_    0.561783 0.390770 0.274729 -0.432722

loop_
_geom_bond_atom_site_label_1
_geom_bond_atom_site_label_2
_ccdc_geom_bond_type
O17   V3    S    
O1    C5    A    
C24   I3    S    
C47   C51   T    
O19   V1    S    
C9    C21   A    
O3    C7    A    
C10   C18   A    
O15   V3    S    
C25   C33   A    
C33   C38   A    
O7    C3    A    
C35   C40   A    
C26   C30   A    
C4    C45   S    
C36   C39   A    
C40   C44   A    
O9    V1    S    
C14   C18   A    
C1    C48   S    
O4    C8    A    
C25   C29   A    
C3    C46   S    
O1    V3    S    
O13   V1    S    
O2    V4    S    
O3    V1    S    
C40   H16   S    
C28   C36   A    
C17   H6    S    
C1    O15   A    
C15   C31   A    
C48   C52   T    
C2    O16   A    
C7    C9    S    
O2    C6    A    
C23   I4    S    
C16   H12   S    
C10   C22   A    
C11   C19   A    
C16   C20   A    
C43   H3    S    
C44   H4    S    
C13   C29   A    
C34   C37   A    
O11   C7    A    
C38   H14   S    
C11   C23   A    
C35   C36   A    
O12   C8    A    
O10   V2    S    
C21   I2    S    
O5    V1    S    
C39   C43   A    
C2    C47   S    
O7    V3    S    
C38   C42   A    
O8    V4    S    
C46   C50   T    
C51   C52   S    
C45   C49   T    
O18   V4    S    
C23   C27   A    
C14   H10   S    
C16   C32   A    
C32   C44   A    
C13   H9    S    
C8    C10   S    
C39   H15   S    
C26   C34   A    
C20   H7    S    
O5    C1    A    
C31   C43   A    
C14   C30   A    
C21   C25   A    
O8    C4    A    
O9    C5    A    
O14   V2    S    
O6    V2    S    
C12   C20   A    
C27   C35   A    
C29   C41   A    
O16   V4    S    
C19   H8    S    
C3    O13   A    
C18   H5    S    
O6    C2    A    
C15   C19   A    
O11   V3    S    
C30   C42   A    
O12   V4    S    
C6    C12   S    
C22   C26   A    
C9    C17   A    
O10   C6    A    
O20   V2    S    
C5    C11   S    
C37   H13   S    
C33   C34   A    
C42   H2    S    
C22   I1    S    
C41   H1    S    
C12   C24   A    
C27   C31   A    
C13   C17   A    
C37   C41   A    
C24   C28   A    
C4    O14   A    
C49   C50   S    
O4    V2    S    
C28   C32   A    
C15   H11   S    
