data_mof_unit_34829.cif
_audit_creation_date              2012-12-11T16:24:22-0500
_audit_creation_method            fapswitch 2.2
_symmetry_space_group_name_H-M    P1
_symmetry_Int_Tables_number       1
_space_group_crystal_system       triclinic
_cell_length_a                    14.750235
_cell_length_b                    14.757255
_cell_length_c                    33.309228
_cell_angle_alpha                 96.20584
_cell_angle_beta                  96.394778
_cell_angle_gamma                 61.209574
_cell_volume                      6302.36834752

loop_
_atom_site_label
_atom_site_type_symbol
_atom_type_description
_atom_site_fract_x
_atom_site_fract_y
_atom_site_fract_z
_atom_type_partial_charge
C1    C     C_R   0.391013 0.699341 0.446039 0.547893
C2    C     C_1   0.314916 0.340253 0.229041 -0.015460
C3    C     C_3   0.073898 0.559259 0.586010 -0.459899
C4    C     C_2   0.096512 0.448323 0.823266 0.234784
C5    C     C_2   0.831164 0.187335 0.585986 0.225893
C6    C     C_2   0.791404 0.477304 0.902176 0.228946
C7    C     C_1   0.320313 0.344455 0.265358 -0.015678
C8    C     C_R   0.405860 0.386358 0.433967 0.541750
C9    C     C_R   0.291468 0.294344 0.101818 0.019530
C10   C     C_R   0.754612 0.375101 0.409238 0.033472
C11   C     C_R   0.761858 0.450797 0.389512 -0.142160
C12   C     C_R   0.785527 0.434286 0.349422 -0.128405
C13   C     C_R   0.803559 0.341220 0.327792 0.020440
C14   C     C_R   0.808073 0.260655 0.348177 -0.104904
C15   C     C_R   0.784954 0.275496 0.388999 0.005472
C16   C     C_R   0.330514 0.347976 0.308624 0.041535
C17   C     C_R   0.821085 0.317241 0.202262 0.346744
C18   C     C_R   0.811986 0.331321 0.283714 0.346830
C19   C     C_R   0.824554 0.393616 0.139687 -0.119116
C20   C     C_R   0.701017 0.409666 0.447427 0.544422
C21   C     C_R   0.858828 0.380922 0.101200 -0.124693
C22   C     C_R   0.907898 0.198376 0.098506 -0.130733
C23   C     C_R   0.874017 0.210980 0.137136 -0.119852
C24   C     C_R   0.836554 0.307761 0.158789 0.033329
C25   C     C_R   0.905121 0.282309 0.081090 0.024399
C26   C     C_R   0.371199 0.753452 0.408849 0.022855
C27   C     C_R   0.412545 0.265366 0.328268 -0.107577
C28   C     C_R   0.277295 0.782573 0.385427 -0.130730
C29   C     C_R   0.267397 0.809955 0.345857 -0.120486
C30   C     C_R   0.351090 0.809015 0.329061 0.035590
C31   C     C_R   0.441583 0.789122 0.353678 -0.120734
C32   C     C_R   0.393581 0.701298 0.561285 0.544062
C33   C     C_R   0.451595 0.761490 0.393281 -0.131935
C34   C     C_R   0.343807 0.827946 0.204231 0.348615
C35   C     C_R   0.346946 0.819719 0.285358 0.348154
C36   C     C_R   0.258832 0.831521 0.135026 -0.118555
C37   C     C_R   0.239097 0.862229 0.095540 -0.128987
C38   C     C_R   0.432315 0.274337 0.370021 -0.124329
C39   C     C_R   0.381310 0.902624 0.105150 -0.129144
C40   C     C_R   0.401126 0.871772 0.144703 -0.119535
C41   C     C_R   0.336844 0.840663 0.160560 0.035262
C42   C     C_R   0.296946 0.902754 0.080918 0.022855
C43   C     C_R   0.368004 0.365295 0.583430 0.020603
C44   C     C_R   0.406291 0.388174 0.548544 0.535224
C45   C     C_R   0.269260 0.433305 0.598730 0.005518
C46   C     C_R   0.252641 0.421023 0.638143 -0.091026
C47   C     C_R   0.327855 0.339618 0.660634 0.018566
C48   C     C_R   0.418006 0.265433 0.642932 -0.129127
C49   C     C_R   0.394321 0.252902 0.165883 -0.107829
C50   C     C_R   0.438209 0.278507 0.604933 -0.140698
C51   C     C_R   0.301238 0.331483 0.783365 0.380643
C52   C     C_R   0.315655 0.335933 0.703421 0.341626
C53   C     C_R   0.197601 0.384386 0.845289 0.010844
C54   C     C_R   0.195380 0.372493 0.886167 -0.154324
C55   C     C_R   0.377861 0.247011 0.889501 -0.131677
C56   C     C_R   0.702883 0.413047 0.562359 0.580884
C57   C     C_R   0.382556 0.261666 0.849398 -0.143175
C58   C     C_R   0.292762 0.327508 0.826545 0.045110
C59   C     C_R   0.283419 0.299530 0.907741 0.012943
C60   C     C_R   0.385174 0.234409 0.124073 -0.123734
C61   C     C_R   0.755806 0.382347 0.602900 0.038557
C62   C     C_R   0.743636 0.462802 0.632359 -0.148086
C63   C     C_R   0.769852 0.443349 0.673048 -0.112310
C64   C     C_R   0.808874 0.343236 0.685231 0.033068
C65   C     C_R   0.827478 0.260997 0.656390 -0.135834
C66   C     C_R   0.803335 0.278869 0.614973 0.010201
C67   C     C_R   0.919762 0.206351 0.820673 -0.114930
C68   C     C_R   0.370298 0.366483 0.392447 0.020010
C69   C     C_R   0.945298 0.195576 0.861966 -0.149981
C70   C     C_R   0.841663 0.382274 0.875185 0.005236
C71   C     C_R   0.209962 0.377948 0.121780 -0.125271
C72   C     C_R   0.818191 0.391821 0.833293 -0.128629
C73   C     C_R   0.858702 0.304503 0.806226 0.038197
C74   C     C_1   0.841063 0.315853 0.763437 -0.001866
C75   C     C_1   0.827225 0.326536 0.727627 -0.005617
C76   C     C_R   0.910359 0.282971 0.889638 0.036026
C77   C     C_R   0.376544 0.754803 0.602027 0.021413
C78   C     C_R   0.281065 0.790296 0.618983 -0.122723
C79   C     C_R   0.271424 0.819770 0.660171 -0.107641
C80   C     C_R   0.283528 0.446200 0.372756 -0.125667
C81   C     C_R   0.356805 0.814377 0.684845 0.043334
C82   C     C_R   0.219316 0.396138 0.163630 -0.107841
C83   C     C_R   0.450310 0.785169 0.667877 -0.111016
C84   C     C_R   0.460112 0.755927 0.626613 -0.129666
C85   C     C_R   0.396711 0.884221 0.832842 -0.108502
C86   C     C_R   0.377015 0.911336 0.873651 -0.121934
C87   C     C_R   0.226084 0.884535 0.862267 -0.129662
C88   C     C_R   0.246039 0.857380 0.821508 -0.111880
C89   C     C_R   0.329715 0.859827 0.806566 0.040656
C90   C     C_1   0.342463 0.843684 0.763876 -0.020057
C91   C     C_1   0.350111 0.831206 0.727880 -0.019214
C92   C     C_R   0.264071 0.437034 0.330968 -0.108354
C93   C     C_R   0.310298 0.331589 0.185768 0.041505
C94   C     C_R   0.289581 0.914871 0.888524 0.020230
C95   C     C_R   0.963231 0.264318 0.045392 0.557571
C96   C     C_R   0.272773 0.259461 0.060050 0.542992
C97   C     C_R   0.259267 0.959713 0.043804 0.546936
C98   C     C_R   0.961425 0.267856 0.930988 0.586837
C99   C     C_R   0.270174 0.263738 0.945096 0.546655
C100  C     C_R   0.255878 0.965270 0.928876 0.542081
C101  C     C_3   0.793128 0.183964 0.409049 -0.277884
C102  C     C_3   0.877407 0.150280 0.443706 -0.395711
C103  C     C_3   0.184664 0.519822 0.574059 -0.261919
Cr1   Cr    Cr6+3 0.576280 0.580550 0.506370 1.012687
Cr2   Cr    Cr6+3 0.346780 0.572400 0.496520 1.000443
Cr3   Cr    Cr6+3 0.576960 0.347070 0.497150 1.042073
Cr4   Cr    Cr6+3 0.087320 0.083240 0.984860 1.018909
Cr5   Cr    Cr6+3 0.087720 0.316210 0.996740 1.042047
Cr6   Cr    Cr6+3 0.317350 0.090340 0.995890 1.017765
H1    H     H_    0.449306 0.169571 0.109597 0.130874
H2    H     H_    0.174396 0.860173 0.077374 0.131674
H3    H     H_    0.465192 0.202855 0.182902 0.118199
H4    H     H_    0.195841 0.826986 0.327860 0.135397
H5    H     H_    0.506967 0.788980 0.341711 0.134219
H6    H     H_    0.209306 0.805782 0.146134 0.135933
H7    H     H_    0.427703 0.932878 0.094593 0.131562
H8    H     H_    0.462692 0.878400 0.163518 0.135307
H9    H     H_    0.512516 0.223363 0.593583 0.139136
H10   H     H_    0.121567 0.412653 0.899885 0.123985
H11   H     H_    0.182059 0.475764 0.652056 0.140027
H12   H     H_    0.854388 0.447243 0.088198 0.138665
H13   H     H_    0.476507 0.200923 0.659544 0.135905
H14   H     H_    0.464128 0.196003 0.311085 0.117464
H15   H     H_    0.446905 0.190621 0.905528 0.134943
H16   H     H_    0.456135 0.218330 0.835685 0.130957
H17   H     H_    0.998015 0.118777 0.871926 0.135921
H18   H     H_    0.951053 0.138338 0.799881 0.117636
H19   H     H_    0.860843 0.182932 0.666230 0.095747
H20   H     H_    0.707936 0.542557 0.624350 0.128815
H21   H     H_    0.768579 0.467521 0.821660 0.099865
H22   H     H_    0.499667 0.211639 0.384277 0.126217
H23   H     H_    0.784714 0.496907 0.334896 0.140300
H24   H     H_    0.756074 0.507305 0.695209 0.121494
H25   H     H_    0.427185 0.934666 0.893003 0.130975
H26   H     H_    0.461821 0.886091 0.821511 0.114903
H27   H     H_    0.516808 0.780844 0.686797 0.111120
H28   H     H_    0.534782 0.728527 0.614545 0.122642
H29   H     H_    0.215336 0.790238 0.600909 0.126760
H30   H     H_    0.193898 0.838324 0.801339 0.114994
H31   H     H_    0.157999 0.886805 0.872684 0.128558
H32   H     H_    0.198646 0.842535 0.673081 0.111231
H33   H     H_    0.234409 0.518181 0.389153 0.128238
H34   H     H_    0.826380 0.186957 0.331850 0.129789
H35   H     H_    0.154047 0.457439 0.178888 0.118182
H36   H     H_    0.136770 0.425404 0.105518 0.131273
H37   H     H_    0.200224 0.501210 0.315897 0.116612
H38   H     H_    0.742206 0.526589 0.404120 0.135649
H39   H     H_    0.953756 0.127651 0.432157 0.149010
H40   H     H_    0.860345 0.213428 0.467729 0.200296
H41   H     H_    0.882120 0.082503 0.457266 0.153566
H42   H     H_    0.717525 0.201174 0.419615 0.180603
H43   H     H_    0.813535 0.116065 0.386936 0.124874
H44   H     H_    0.058391 0.493434 0.588207 0.168987
H45   H     H_    0.794186 0.469689 0.155292 0.139546
H46   H     H_    0.060681 0.606500 0.615175 0.147829
H47   H     H_    0.018008 0.609721 0.562594 0.141091
H48   H     H_    0.201031 0.586299 0.576221 0.174100
H49   H     H_    0.185651 0.490402 0.541863 0.158892
H50   H     H_    0.035439 0.513167 0.839297 0.089511
H51   H     H_    0.842243 0.115153 0.596309 0.089439
H52   H     H_    0.759955 0.552832 0.890033 0.092683
H53   H     H_    0.942638 0.121490 0.083533 0.132960
H54   H     H_    0.882886 0.143655 0.150850 0.137685
H55   H     H_    0.213575 0.778138 0.396740 0.129668
H56   H     H_    0.524760 0.740047 0.410713 0.127036
N1    N     N_R   0.797933 0.407914 0.224018 -0.228955
N2    N     N_R   0.423440 0.826727 0.268968 -0.230193
N3    N     N_R   0.421534 0.831457 0.229185 -0.229271
N4    N     N_R   0.249992 0.422103 0.764911 -0.175444
N5    N     N_R   0.256789 0.424210 0.725593 -0.222658
N6    N     N_R   0.368541 0.245684 0.722085 -0.231052
N7    N     N_R   0.361169 0.243461 0.761328 -0.231699
N8    N     N_R   0.793094 0.414891 0.263871 -0.227240
N9    N     N_R   0.834152 0.240683 0.261965 -0.231512
N10   N     N_R   0.839209 0.233633 0.222013 -0.229668
N11   N     N_R   0.267690 0.820537 0.220659 -0.229630
N12   N     N_R   0.269406 0.816164 0.260379 -0.229662
O1    O     O_R   0.679450 0.499830 0.463150 -0.522455
O2    O     O_R   0.340240 0.172500 0.045430 -0.518624
O3    O     O_R   0.309670 0.000990 0.032050 -0.500549
O4    O     O_R   0.480650 0.664000 0.464630 -0.501747
O5    O     O_R   0.168330 0.982130 0.939200 -0.522382
O6    O     O_R   0.000140 0.178170 0.944610 -0.512785
O7    O     O_R   0.983010 0.336750 0.948660 -0.470850
O8    O     O_R   0.181800 0.312190 0.959860 -0.507272
O9    O     O_R   0.338500 0.175680 0.956950 -0.516541
O10   O     O_R   0.308050 0.003930 0.950020 -0.499946
O11   O     O_3   0.164130 0.163270 0.992500 -0.246742
O12   O     O_R   0.356040 0.477400 0.534170 -0.512539
O13   O     O_R   0.323930 0.675950 0.455370 -0.518787
O14   O     O_R   0.354700 0.475360 0.451930 -0.503633
O15   O     O_R   0.494470 0.320860 0.448390 -0.524158
O16   O     O_R   0.662580 0.357570 0.460050 -0.497002
O17   O     O_R   0.680900 0.502040 0.551870 -0.531553
O18   O     O_R   0.481990 0.666040 0.546870 -0.503719
O19   O     O_R   0.325370 0.678160 0.544080 -0.522924
O20   O     O_2   0.077599 0.425726 0.788149 -0.473927
O21   O     O_2   0.847370 0.189424 0.551041 -0.519836
O22   O     O_2   0.779872 0.472969 0.937518 -0.486149
O23   O     O_R   0.495910 0.323070 0.537100 -0.515818
O24   O     O_R   0.663920 0.359620 0.542290 -0.452613
O25   O     O_3   0.500010 0.500010 0.500010 -0.241379
O26   O     O_R   0.170070 0.978950 0.027680 -0.519008
O27   O     O_R   0.001760 0.175230 0.026640 -0.502247
O28   O     O_R   0.984760 0.333570 0.037150 -0.507116
O29   O     O_R   0.183410 0.309240 0.041890 -0.503186

loop_
_geom_bond_atom_site_label_1
_geom_bond_atom_site_label_2
_ccdc_geom_bond_type
C95   O28   A    
Cr2   O19   S    
N6    N7    A    
C35   N12   A    
C101  C102  S    
C56   C61   S    
C55   C59   A    
C4    C53   S    
C59   C99   S    
N4    N5    A    
Cr2   O14   S    
C2    C7    T    
Cr3   O15   S    
C87   H31   S    
C87   C88   A    
C90   C91   T    
C79   H32   S    
C53   C54   A    
Cr6   O10   S    
C25   C95   S    
C62   C63   A    
C49   C60   A    
C13   C18   S    
C63   H24   S    
C28   C29   A    
C19   C21   A    
C88   C89   A    
C10   C15   A    
C57   H16   S    
C30   C31   A    
C22   H53   S    
C4    H50   S    
C27   C38   A    
C76   C98   S    
C87   C94   A    
C37   C42   A    
C69   C76   A    
C73   C74   S    
C98   O6    A    
C3    H44   S    
N9    N10   A    
C21   C25   A    
C86   C94   A    
C102  H39   S    
C32   C77   S    
C46   C47   A    
C61   C66   A    
C86   H25   S    
Cr1   O1    S    
C83   C84   A    
C10   C20   S    
C22   C25   A    
C35   N2    A    
C23   C24   A    
C31   C33   A    
C67   C73   A    
Cr3   O16   S    
C45   C103  S    
C31   H5    S    
C32   O19   A    
C71   C82   A    
C1    O13   A    
C16   C27   A    
C48   C50   A    
Cr1   O4    S    
C82   C93   A    
C50   H9    S    
C54   H10   S    
C21   H12   S    
C62   H20   S    
C36   C41   A    
C34   C41   S    
C97   O26   A    
C32   O18   A    
C34   N3    A    
C78   H29   S    
C52   N6    A    
C81   C83   A    
C39   C42   A    
C23   H54   S    
C54   C59   A    
Cr6   O11   S    
C33   H56   S    
C17   C24   S    
C27   H14   S    
C74   C75   T    
Cr5   O7    S    
Cr4   O5    S    
C92   H37   S    
C65   H19   S    
Cr2   O12   S    
Cr5   O8    S    
C51   N4    A    
C100  O10   A    
C34   N11   A    
C82   H35   S    
C42   C97   S    
C52   N5    A    
C39   C40   A    
C79   C81   A    
C1    O4    A    
C78   C79   A    
Cr5   O28   S    
C97   O3    A    
C20   O1    A    
C56   O24   A    
C77   C84   A    
C95   O27   A    
C77   C78   A    
Cr4   O11   S    
C101  H42   S    
Cr4   O6    S    
C67   C69   A    
Cr1   O25   S    
C80   C92   A    
C43   C44   S    
C88   H30   S    
Cr4   O26   S    
C29   C30   A    
C38   H22   S    
C67   H18   S    
C44   O12   A    
Cr3   O25   S    
Cr6   O2    S    
C26   C33   A    
C96   O29   A    
C47   C48   A    
C6    H52   S    
C94   C100  S    
C11   C12   A    
C5    H51   S    
C3    H46   S    
C46   H11   S    
C103  H49   S    
C102  H41   S    
C51   C58   S    
C64   C75   S    
C15   C101  S    
C43   C45   A    
C9    C96   S    
C83   H27   S    
C47   C52   S    
C85   H26   S    
C49   H3    S    
C56   O17   A    
C30   C35   S    
Cr5   O29   S    
N11   N12   A    
C71   H36   S    
C38   C68   A    
C69   H17   S    
C44   O23   A    
C80   H33   S    
C55   C57   A    
C70   C76   A    
C1    C26   S    
C16   C92   A    
C68   C80   A    
C89   C90   S    
C18   N9    A    
C20   O16   A    
N2    N3    A    
C100  O5    A    
C28   H55   S    
Cr3   O23   S    
C3    C103  S    
C6    C70   S    
C29   H4    S    
C55   H15   S    
C36   C37   A    
N1    N8    A    
C85   C89   A    
C12   H23   S    
C51   N7    A    
C14   C15   A    
Cr2   O13   S    
Cr5   O11   S    
C2    C93   S    
C7    C16   S    
C9    C71   A    
C4    O20   D    
C72   C73   A    
C85   C86   A    
C84   H28   S    
C70   C72   A    
C53   C58   A    
C43   C50   A    
C72   H21   S    
C5    O21   D    
Cr6   O9    S    
C101  H43   S    
C26   C28   A    
Cr1   O18   S    
C17   N1    A    
C9    C60   A    
C64   C65   A    
C8    C68   S    
C19   C24   A    
C14   H34   S    
Cr4   O27   S    
C5    C66   S    
Cr3   O24   S    
C48   H13   S    
Cr6   O3    S    
C11   H38   S    
Cr2   O25   S    
C6    O22   D    
C8    O15   A    
C3    H47   S    
C99   O8    A    
C40   H8    S    
C96   O2    A    
C98   O7    A    
C61   C62   A    
C37   H2    S    
C60   H1    S    
C10   C11   A    
C102  H40   S    
C63   C64   A    
C81   C91   S    
C18   N8    A    
C45   C46   A    
C103  H48   S    
C12   C13   A    
C65   C66   A    
C39   H7    S    
C19   H45   S    
Cr1   O17   S    
C22   C23   A    
C40   C41   A    
C8    O14   A    
C49   C93   A    
C57   C58   A    
C13   C14   A    
C36   H6    S    
C99   O9    A    
C17   N10   A    
