data_mof_unit_44686.cif
_audit_creation_date              2012-12-11T16:28:26-0500
_audit_creation_method            fapswitch 2.2
_symmetry_space_group_name_H-M    P1
_symmetry_Int_Tables_number       1
_space_group_crystal_system       triclinic
_cell_length_a                    17.270721
_cell_length_b                    7.24802
_cell_length_c                    14.537735
_cell_angle_alpha                 90.000791
_cell_angle_beta                  94.496928
_cell_angle_gamma                 90.001138
_cell_volume                      1814.2100928

loop_
_atom_site_label
_atom_site_type_symbol
_atom_type_description
_atom_site_fract_x
_atom_site_fract_y
_atom_site_fract_z
_atom_type_partial_charge
O1    O     O_R   0.663460 0.361760 0.165970 -0.522648
O2    O     O_R   0.336540 0.638240 0.834030 -0.522641
O3    O     O_R   0.836540 0.861760 0.334030 -0.522667
O4    O     O_R   0.163460 0.138240 0.665970 -0.522666
O5    O     O_R   0.827100 0.689870 0.163730 -0.542307
O6    O     O_R   0.172900 0.310130 0.836270 -0.542312
O7    O     O_R   0.672900 0.189870 0.336270 -0.542288
O8    O     O_R   0.327100 0.810130 0.663730 -0.542286
C1    C     C_R   0.855540 0.523742 0.146629 0.788924
C2    C     C_R   0.144462 0.476258 0.853373 0.788913
C3    C     C_R   0.644457 0.023741 0.353366 0.788939
C4    C     C_R   0.355543 0.976259 0.646634 0.788933
O9    O     O_R   0.663490 0.691370 0.155500 -0.536327
O10   O     O_R   0.336510 0.308630 0.844500 -0.536333
O11   O     O_R   0.836510 0.191370 0.344500 -0.536319
O12   O     O_R   0.163490 0.808630 0.655500 -0.536318
O13   O     O_R   0.671770 0.863320 0.325740 -0.520317
O14   O     O_R   0.328230 0.136680 0.674260 -0.520325
O15   O     O_R   0.828230 0.363320 0.174260 -0.520300
O16   O     O_R   0.171770 0.636680 0.825740 -0.520299
C5    C     C_R   0.640475 0.521548 0.127610 0.767267
C6    C     C_R   0.359524 0.478451 0.872390 0.767258
C7    C     C_R   0.859521 0.021553 0.372395 0.767292
C8    C     C_R   0.140479 0.978447 0.627605 0.767296
O17   O     O_3   0.752910 0.528800 0.305860 -0.374854
O18   O     O_3   0.247090 0.471200 0.694140 -0.374850
O19   O     O_3   0.747090 0.028800 0.194140 -0.374833
O20   O     O_3   0.252910 0.971200 0.805860 -0.374830
V1    V     V_3+5 0.749460 0.803010 0.239640 1.459528
V2    V     V_3+5 0.250540 0.196990 0.760360 1.459525
V3    V     V_3+5 0.750540 0.303010 0.260360 1.459564
V4    V     V_3+5 0.249460 0.696990 0.739640 1.459575
C9    C     C_1   0.469772 0.994313 0.531312 0.000061
C10   C     C_1   0.530225 0.005688 0.468683 0.000055
C11   C     C_1   0.030230 0.494313 0.968690 0.000036
C12   C     C_1   0.969773 0.505687 0.031314 0.000036
H1    H     H_    0.798776 0.974971 0.708155 0.142898
H2    H     H_    0.201223 0.025021 0.291848 0.142904
H3    H     H_    0.701236 0.474956 0.791868 0.142890
H4    H     H_    0.298766 0.525060 0.208135 0.142888
C13   C     C_R   0.007509 0.996962 0.305725 -0.192714
C14   C     C_R   0.992491 0.003031 0.694276 -0.192709
C15   C     C_R   0.492480 0.496887 0.194272 -0.192722
C16   C     C_R   0.507520 0.503067 0.805726 -0.192716
C17   C     C_R   0.077484 0.999923 0.264723 0.094067
C18   C     C_R   0.922516 0.000074 0.735279 0.094069
C19   C     C_R   0.422501 0.499858 0.235268 0.094082
C20   C     C_R   0.577500 0.500106 0.764731 0.094089
C21   C     C_R   0.145967 0.013557 0.321583 -0.120475
C22   C     C_R   0.854032 0.986433 0.678419 -0.120482
C23   C     C_R   0.354022 0.513567 0.178403 -0.120486
C24   C     C_R   0.645979 0.486436 0.821598 -0.120488
C25   C     C_R   0.144962 0.019926 0.417633 0.196781
C26   C     C_R   0.855038 0.980067 0.582368 0.196773
C27   C     C_R   0.355036 0.519986 0.082355 0.196765
C28   C     C_R   0.644965 0.480029 0.917646 0.196765
C29   C     C_R   0.074091 0.003550 0.461722 0.025941
C30   C     C_R   0.925909 0.996442 0.538280 0.025937
C31   C     C_R   0.425908 0.503569 0.038273 0.025945
C32   C     C_R   0.574093 0.496431 0.961727 0.025944
C33   C     C_R   0.003619 0.002138 0.402938 0.013104
C34   C     C_R   0.996381 0.997857 0.597063 0.013101
C35   C     C_R   0.496376 0.502110 0.097061 0.013111
C36   C     C_R   0.503624 0.497874 0.902938 0.013111
C37   C     C_R   0.070118 0.993106 0.560029 -0.133351
C38   C     C_R   0.929882 0.006891 0.439972 -0.133354
C39   C     C_R   0.429884 0.493127 0.939967 -0.133337
C40   C     C_R   0.570115 0.506870 0.060033 -0.133342
C41   C     C_1   0.418173 0.985109 0.584199 -0.172498
C42   C     C_1   0.581825 0.014891 0.415798 -0.172511
C43   C     C_1   0.081832 0.485109 0.915807 -0.172526
C44   C     C_1   0.918171 0.514891 0.084197 -0.172525
H5    H     H_    0.955690 0.990775 0.258960 0.113245
H6    H     H_    0.044311 0.009214 0.741042 0.113243
H7    H     H_    0.544298 0.490656 0.241040 0.113236
H8    H     H_    0.455702 0.509268 0.758958 0.113233
Br1   Br    Br    0.243166 0.084669 0.476234 -0.654733
Br2   Br    Br    0.756828 0.915289 0.523763 -0.654732
Br3   Br    Br    0.256853 0.584999 0.023745 -0.654683
Br4   Br    Br    0.743151 0.415058 0.976255 -0.654679
C45   C     C_3   0.074376 0.993912 0.159974 -0.377501
C46   C     C_3   0.152558 0.015862 0.117660 -0.316284
C47   C     C_3   0.141842 0.008026 0.012497 -0.628256
H9    H     H_    0.117963 0.872031 0.989440 0.234512
H10   H     H_    0.101426 0.117795 0.985648 0.207621
H11   H     H_    0.198774 0.028417 0.983441 0.245921
H12   H     H_    0.178987 0.150980 0.138397 0.210251
H13   H     H_    0.192599 0.903100 0.142203 0.226887
H14   H     H_    0.047858 0.860321 0.136709 0.185227
H15   H     H_    0.035096 0.106134 0.132498 0.179980
C48   C     C_3   0.925624 0.006094 0.840028 -0.377502
C49   C     C_3   0.847441 0.984144 0.882343 -0.316292
C50   C     C_3   0.858159 0.991970 0.987506 -0.628284
H16   H     H_    0.898559 0.882173 0.014351 0.207641
H17   H     H_    0.882053 0.127945 0.010565 0.234497
H18   H     H_    0.801224 0.971621 0.016559 0.245926
H19   H     H_    0.807403 0.096909 0.857802 0.226885
H20   H     H_    0.821012 0.849029 0.861603 0.210259
H21   H     H_    0.964905 0.893880 0.867506 0.179984
H22   H     H_    0.952140 0.139690 0.863289 0.185226
C51   C     C_3   0.425602 0.493812 0.340017 -0.377476
C52   C     C_3   0.347419 0.515793 0.382327 -0.316287
C53   C     C_3   0.358130 0.507969 0.487491 -0.628258
H23   H     H_    0.381997 0.371971 0.510551 0.234511
H24   H     H_    0.398553 0.617726 0.514340 0.207636
H25   H     H_    0.301199 0.528384 0.516540 0.245899
H26   H     H_    0.321001 0.650919 0.361588 0.210289
H27   H     H_    0.307370 0.403041 0.357781 0.226847
H28   H     H_    0.452104 0.360199 0.363272 0.185232
H29   H     H_    0.464894 0.606006 0.367506 0.179972
C54   C     C_3   0.574400 0.506113 0.659983 -0.377489
C55   C     C_3   0.652593 0.484264 0.617680 -0.316291
C56   C     C_3   0.641887 0.492069 0.512516 -0.628207
H30   H     H_    0.601518 0.382202 0.485666 0.207660
H31   H     H_    0.617959 0.628006 0.489449 0.234470
H32   H     H_    0.698832 0.471808 0.483474 0.245914
H33   H     H_    0.692606 0.597083 0.642228 0.226867
H34   H     H_    0.679050 0.349182 0.638425 0.210273
H35   H     H_    0.535144 0.393845 0.632502 0.179991
H36   H     H_    0.547859 0.639675 0.636713 0.185208

loop_
_geom_bond_atom_site_label_1
_geom_bond_atom_site_label_2
_ccdc_geom_bond_type
O17   V3    S    
C16   C20   A    
C4    C41   S    
O1    C5    A    
C51   C52   S    
C19   C51   S    
C27   C31   A    
O19   V1    S    
O13   V1    S    
O3    C7    A    
C54   C55   S    
C1    C44   S    
C13   C33   A    
O15   V3    S    
C45   C46   S    
C3    C42   S    
C49   H20   S    
H2    C21   S    
C16   C36   A    
O7    C3    A    
C22   C26   A    
C7    C38   S    
O2    V4    S    
O16   V4    S    
C55   H33   S    
O4    C8    A    
C46   H13   S    
C51   H28   S    
C46   H12   S    
O1    V3    S    
C54   H35   S    
C14   C18   A    
C16   H8    S    
C31   C39   A    
C33   C38   A    
C30   C38   A    
C11   C12   S    
C2    O16   A    
O2    C6    A    
C52   H27   S    
O14   V2    S    
C48   H22   S    
C14   C34   A    
C9    C41   T    
C56   H32   S    
C45   H14   S    
C2    C43   S    
O11   C7    A    
H3    C24   S    
C11   C43   T    
C50   H17   S    
O10   V2    S    
C55   C56   S    
C1    O15   A    
C49   H19   S    
O5    V1    S    
C15   H7    S    
C14   H6    S    
O7    V3    S    
C15   C35   A    
O8    V4    S    
C36   C39   A    
C48   C49   S    
C25   C29   A    
O18   V4    S    
C19   C23   A    
C18   C48   S    
C51   H29   S    
C28   C32   A    
C56   H31   S    
C54   H36   S    
C25   Br1   S    
O5    C1    A    
C27   Br3   S    
C47   H9    S    
C17   C21   A    
O8    C4    A    
C20   C54   S    
C9    C10   S    
O9    C5    A    
C52   H26   S    
C53   H24   S    
C50   H16   S    
O11   V3    S    
C30   C34   A    
C45   H15   S    
C8    C37   S    
O6    V2    S    
C50   H18   S    
C5    C40   S    
C56   H30   S    
C26   C30   A    
O9    V1    S    
C10   C42   T    
C35   C40   A    
C3    O13   A    
C34   C37   A    
C47   H10   S    
C17   C45   S    
C29   C37   A    
O6    C2    A    
C29   C33   A    
O12   V4    S    
H4    C23   S    
C18   C22   A    
C31   C35   A    
C28   Br4   S    
C32   C36   A    
O10   C6    A    
O20   V2    S    
C55   H34   S    
H1    C22   S    
O3    V1    S    
C21   C25   A    
C49   C50   S    
C53   H25   S    
C23   C27   A    
C52   C53   S    
C6    C39   S    
C13   H5    S    
C12   C44   T    
C20   C24   A    
C47   H11   S    
C32   C40   A    
O12   C8    A    
C46   C47   S    
C4    O14   A    
C53   H23   S    
C13   C17   A    
C48   H21   S    
C15   C19   A    
O4    V2    S    
C24   C28   A    
C26   Br2   S    
