data_mof_unit_29283.cif
_audit_creation_date              2012-10-26T18:32:21-0400
_audit_creation_method            fapswitch 2.2
_symmetry_space_group_name_H-M    P1
_symmetry_Int_Tables_number       1
_space_group_crystal_system       triclinic
_cell_length_a                    12.431115
_cell_length_b                    13.115808
_cell_length_c                    15.88192
_cell_angle_alpha                 78.457954
_cell_angle_beta                  98.554473
_cell_angle_gamma                 116.171941
_cell_volume                      2271.57815252

loop_
_atom_site_label
_atom_site_type_symbol
_atom_type_description
_atom_site_fract_x
_atom_site_fract_y
_atom_site_fract_z
_atom_type_partial_charge
C1    C     C_R   0.855904 0.285573 0.506946 0.529524
C2    C     C_R   0.229832 0.838385 0.485934 -0.001557
C3    C     C_R   0.814906 0.073311 0.550212 0.007251
C4    C     C_R   0.998825 0.502216 0.658463 0.536720
C5    C     C_R   0.730459 0.960196 0.571259 -0.171563
C6    C     C_R   0.608856 0.928709 0.550795 -0.141944
C7    C     C_R   0.566853 0.008413 0.503188 0.023297
C8    C     C_R   0.651984 0.122814 0.478224 -0.012415
C9    C     C_R   0.442055 0.979445 0.483063 0.009971
C10   C     C_R   0.404420 0.067500 0.448342 0.041256
C11   C     C_R   0.490203 0.177451 0.415646 0.013625
C12   C     C_3   0.063215 0.419268 0.063273 -0.060711
C13   C     C_R   0.610761 0.198446 0.423606 -0.111297
C14   C     C_R   0.353677 0.865524 0.495800 -0.153400
C15   C     C_R   0.195038 0.930357 0.469065 -0.018763
C16   C     C_R   0.144813 0.714187 0.491226 0.532335
C17   C     C_R   0.775540 0.159367 0.508530 0.000353
C18   C     C_R   0.353066 0.342739 0.645770 -0.119127
C19   C     C_R   0.762812 0.647528 0.385481 0.042427
C20   C     C_R   0.690742 0.704750 0.381295 -0.170258
C21   C     C_R   0.604022 0.665362 0.440543 -0.136867
C22   C     C_R   0.569799 0.555211 0.489111 -0.002798
C23   C     C_3   0.004338 0.497653 0.082479 0.058899
C24   C     C_R   0.658381 0.512019 0.502381 0.169639
C25   C     C_R   0.458432 0.491416 0.530596 -0.010758
C26   C     C_R   0.454246 0.403290 0.599367 -0.011668
C27   C     C_R   0.550257 0.372801 0.620496 -0.177804
C28   C     C_R   0.001714 0.499686 0.340822 0.541494
C29   C     C_R   0.648491 0.423255 0.570923 -0.095344
C30   C     C_R   0.347547 0.501512 0.501831 0.125918
C31   C     C_R   0.250741 0.362807 0.622666 0.184702
C32   C     C_3   0.035388 0.400980 0.963785 0.070217
C33   C     C_3   0.867496 0.470033 0.943599 -0.236668
C34   C     C_3   0.071226 0.623736 0.035178 -0.101468
C35   C     C_3   0.871883 0.453389 0.043530 -0.235682
C36   C     C_1   0.004221 0.498748 0.251227 -0.061262
C37   C     C_3   0.993367 0.497833 0.914755 0.082941
C38   C     C_3   0.036144 0.307978 0.131446 -0.274791
C39   C     C_3   0.120263 0.249903 0.132149 -0.314854
C40   C     C_3   0.098462 0.153299 0.207581 -0.471139
C41   C     C_3   0.148859 0.404998 0.925854 -0.237215
C42   C     C_3   0.266308 0.516089 0.919094 -0.314011
C43   C     C_3   0.371248 0.492149 0.904370 -0.448461
C44   C     C_3   0.069055 0.917564 0.473780 -0.239112
C45   C     C_3   0.076628 0.619638 0.939006 -0.212102
C46   C     C_3   0.009777 0.930424 0.383016 -0.296673
C47   C     C_3   0.912673 0.972439 0.380663 -0.442516
C48   C     C_3   0.458013 0.274282 0.370164 -0.253324
C49   C     C_3   0.404181 0.256314 0.278141 -0.303926
C50   C     C_3   0.498679 0.277761 0.217192 -0.438646
C51   C     C_2   0.941599 0.093849 0.575166 0.190401
C52   C     C_3   0.930955 0.275674 0.954708 -0.238976
C53   C     C_3   0.878308 0.245696 0.863440 -0.304952
C54   C     C_3   0.790887 0.118890 0.867499 -0.461923
C55   C     C_2   0.149331 0.298095 0.679445 0.251130
C56   C     C_1   0.004392 0.498531 0.175431 -0.095300
C57   C     C_3   0.333648 0.560090 0.410358 -0.191151
C58   C     C_3   0.312735 0.481012 0.344570 -0.286513
C59   C     C_3   0.315155 0.543475 0.252705 -0.470496
C60   C     C_3   0.196267 0.696550 0.077354 -0.277739
C61   C     C_3   0.248977 0.822954 0.034390 -0.304661
C62   C     C_3   0.367040 0.893724 0.081780 -0.454096
C63   C     C_1   0.991249 0.505351 0.821487 -0.080397
C64   C     C_1   0.994288 0.505954 0.746408 -0.051028
C65   C     C_R   0.282126 0.042582 0.446256 -0.124743
Cu1   Cu    Cu3+1 0.098280 0.475420 0.519630 0.933131
Cu2   Cu    Cu3+1 0.901720 0.524580 0.480370 0.893288
H1    H     H_    0.160888 0.469362 0.074482 0.123587
H2    H     H_    0.832600 0.678081 0.341523 0.118401
H3    H     H_    0.567826 0.723150 0.450088 0.105268
H4    H     H_    0.705352 0.781698 0.335460 0.098845
H5    H     H_    0.715622 0.391771 0.589669 0.183340
H6    H     H_    0.842323 0.542260 0.916263 0.112765
H7    H     H_    0.794388 0.393568 0.919314 0.112713
H8    H     H_    0.820345 0.361706 0.070165 0.110524
H9    H     H_    0.826238 0.501082 0.062306 0.109432
H10   H     H_    0.169595 0.649275 0.923101 0.115824
H11   H     H_    0.047135 0.684127 0.899047 0.102893
H12   H     H_    0.014728 0.669524 0.037668 0.131508
H13   H     H_    0.126541 0.188587 0.269335 0.153422
H14   H     H_    0.001829 0.092662 0.206638 0.155344
H15   H     H_    0.150441 0.104923 0.201855 0.132565
H16   H     H_    0.105281 0.210099 0.074209 0.154353
H17   H     H_    0.215540 0.313575 0.136538 0.150569
H18   H     H_    0.050487 0.330773 0.197013 0.165574
H19   H     H_    0.940784 0.245317 0.125376 0.134990
H20   H     H_    0.388448 0.434124 0.960484 0.145114
H21   H     H_    0.351543 0.451928 0.845264 0.187473
H22   H     H_    0.453616 0.574106 0.896325 0.135560
H23   H     H_    0.252067 0.110160 0.427132 0.123836
H24   H     H_    0.256740 0.577160 0.862286 0.164471
H25   H     H_    0.290714 0.556872 0.977883 0.144030
H26   H     H_    0.171443 0.335667 0.963154 0.143915
H27   H     H_    0.124908 0.383331 0.859757 0.180706
H28   H     H_    0.861258 0.965478 0.317080 0.115359
H29   H     H_    0.850355 0.921139 0.432250 0.173989
H30   H     H_    0.954540 0.064281 0.388748 0.207432
H31   H     H_    0.077757 0.992078 0.338314 0.155791
H32   H     H_    0.972090 0.847674 0.358639 0.163566
H33   H     H_    0.012093 0.836649 0.513274 0.170316
H34   H     H_    0.380776 0.796143 0.509928 0.124757
H35   H     H_    0.075784 0.986069 0.508370 0.181391
H36   H     H_    0.571324 0.366173 0.216414 0.148581
H37   H     H_    0.538000 0.214565 0.237259 0.158007
H38   H     H_    0.456007 0.268243 0.150910 0.132001
H39   H     H_    0.333276 0.167535 0.278063 0.164760
H40   H     H_    0.362694 0.317034 0.253671 0.148543
H41   H     H_    0.395003 0.282332 0.408141 0.121153
H42   H     H_    0.538120 0.358552 0.367812 0.151648
H43   H     H_    0.963998 0.051359 0.636604 0.104951
H44   H     H_    0.837936 0.063461 0.895098 0.155000
H45   H     H_    0.549850 0.841337 0.574617 0.107410
H46   H     H_    0.715768 0.098045 0.907593 0.144171
H47   H     H_    0.753076 0.100221 0.801502 0.146424
H48   H     H_    0.827261 0.295825 0.832237 0.158837
H49   H     H_    0.949380 0.262156 0.821307 0.177309
H50   H     H_    0.963575 0.210134 0.984253 0.140916
H51   H     H_    0.854128 0.256664 0.991867 0.132218
H52   H     H_    0.059766 0.288699 0.659225 0.170757
H53   H     H_    0.248048 0.579220 0.241968 0.156895
H54   H     H_    0.405502 0.614603 0.241088 0.149193
H55   H     H_    0.293909 0.482837 0.206661 0.130445
H56   H     H_    0.758974 0.894967 0.605417 0.103969
H57   H     H_    0.385984 0.452733 0.354472 0.152243
H58   H     H_    0.225791 0.403881 0.353222 0.191974
H59   H     H_    0.269177 0.596370 0.402848 0.200581
H60   H     H_    0.406831 0.641830 0.390304 0.088298
H61   H     H_    0.352325 0.891999 0.149460 0.149801
H62   H     H_    0.434021 0.859157 0.081429 0.146051
H63   H     H_    0.403430 0.984314 0.049242 0.140547
H64   H     H_    0.266340 0.829726 0.966457 0.159179
H65   H     H_    0.184258 0.860198 0.034880 0.157228
H66   H     H_    0.186392 0.696665 0.145557 0.150528
H67   H     H_    0.672140 0.275940 0.386847 0.153077
H68   H     H_    0.260745 0.659765 0.075549 0.137573
H69   H     H_    0.546976 0.305187 0.673515 0.107401
H70   H     H_    0.353682 0.278069 0.700238 0.145855
N1    N     N_R   0.246300 0.438200 0.549400 -0.246871
N2    N     N_R   0.754300 0.561180 0.451130 -0.240539
O1    O     O_R   0.972520 0.318130 0.524690 -0.462308
O2    O     O_2   0.164942 0.252021 0.752133 -0.596172
O3    O     O_R   0.806530 0.359650 0.491530 -0.536976
O4    O     O_R   0.083030 0.479240 0.637150 -0.520996
O5    O     O_R   0.917040 0.520750 0.603990 -0.510500
O6    O     O_R   0.193470 0.640350 0.508470 -0.527904
O7    O     O_R   0.027480 0.681870 0.475310 -0.503204
O8    O     O_R   0.082960 0.479250 0.396010 -0.509726
O9    O     O_R   0.916970 0.520760 0.362850 -0.504721
O10   O     O_2   0.020398 0.150254 0.525401 -0.531650

loop_
_geom_bond_atom_site_label_1
_geom_bond_atom_site_label_2
_ccdc_geom_bond_type
C59   H54   S    
C46   H32   S    
C54   H46   S    
C50   H37   S    
C8    C13   A    
C30   N1    A    
C27   C29   A    
C44   H33   S    
C13   H67   S    
C62   H63   S    
C19   C20   A    
C18   C26   A    
C4    O4    A    
C23   C56   S    
C49   H40   S    
C55   H52   S    
C53   C54   S    
C12   H1    S    
C12   C23   S    
C35   H8    S    
C26   C27   A    
C59   H53   S    
C38   H19   S    
C55   O2    D    
C43   H21   S    
C39   H17   S    
C5    C6    A    
C15   C65   A    
C30   C57   S    
C16   O7    A    
C42   H24   S    
C41   C42   S    
C24   C29   A    
C32   C52   S    
Cu1   O6    S    
C1    O3    A    
C61   H65   S    
C41   H26   S    
C22   C25   A    
C50   H38   S    
C32   C41   S    
C40   H13   S    
C20   H4    S    
C45   H11   S    
Cu2   N2    S    
C9    C10   A    
C53   H49   S    
C29   H5    S    
C52   H50   S    
C59   H55   S    
C48   H42   S    
C46   H31   S    
C50   H36   S    
C21   C22   A    
C12   C32   S    
C34   C60   S    
C62   H62   S    
C11   C48   S    
Cu2   O5    S    
C37   C63   S    
C44   C46   S    
C24   N2    A    
C65   H23   S    
C35   H9    S    
C28   O9    A    
C38   H18   S    
C40   H15   S    
C7    C8    A    
Cu1   Cu2   S    
C57   H59   S    
C44   H35   S    
C14   H34   S    
Cu1   O4    S    
C25   C26   A    
C33   C37   S    
C16   O6    A    
C18   H70   S    
C9    C14   A    
C4    O5    A    
C36   C56   T    
C34   H12   S    
C41   H27   S    
Cu1   N1    S    
C47   H29   S    
C23   C34   S    
Cu2   O7    S    
C34   C45   S    
C43   H22   S    
C32   C37   S    
C20   C21   A    
C31   N1    A    
C2    C15   A    
C60   H68   S    
C51   O10   D    
Cu1   O8    S    
C6    C7    A    
C1    O1    A    
C33   H6    S    
C48   C49   S    
C51   H43   S    
C23   C35   S    
C15   C44   S    
C48   H41   S    
C22   C24   A    
C19   H2    S    
C42   C43   S    
C27   H69   S    
C37   C45   S    
C39   C40   S    
C2    C16   S    
C52   C53   S    
C10   C65   A    
C25   C30   A    
C7    C9    A    
C5    H56   S    
C46   C47   S    
C28   O8    A    
C3    C51   S    
C6    H45   S    
C40   H14   S    
C3    C5    A    
C57   H60   S    
C49   H39   S    
C4    C64   S    
C58   H57   S    
C8    C17   A    
C47   H30   S    
C21   H3    S    
C43   H20   S    
C58   C59   S    
C39   H16   S    
C62   H61   S    
C11   C13   A    
C57   C58   S    
C38   C39   S    
C54   H47   S    
C33   C35   S    
C54   H44   S    
C3    C17   A    
C42   H25   S    
C12   C38   S    
C61   C62   S    
C2    C14   A    
C10   C11   A    
C61   H64   S    
C63   C64   T    
C33   H7    S    
Cu1   O1    S    
C1    C17   S    
C28   C36   S    
C58   H58   S    
C19   N2    A    
C49   C50   S    
Cu2   O9    S    
C47   H28   S    
C60   C61   S    
C45   H10   S    
C18   C31   A    
C31   C55   S    
Cu2   O3    S    
C60   H66   S    
C53   H48   S    
C52   H51   S    
