data_mof_unit_14984.cif
_audit_creation_date              2012-12-10T20:43:16-0500
_audit_creation_method            fapswitch 2.2
_symmetry_space_group_name_H-M    P1
_symmetry_Int_Tables_number       1
_space_group_crystal_system       triclinic
_cell_length_a                    15.799741
_cell_length_b                    10.69414
_cell_length_c                    9.863204
_cell_angle_alpha                 89.829352
_cell_angle_beta                  90.082068
_cell_angle_gamma                 89.929228
_cell_volume                      1666.52235364

loop_
_atom_site_label
_atom_site_type_symbol
_atom_type_description
_atom_site_fract_x
_atom_site_fract_y
_atom_site_fract_z
_atom_type_partial_charge
C1    C     C_R   0.497504 0.259997 0.500241 0.892116
C2    C     C_R   0.043226 0.523450 0.620342 -0.183847
C3    C     C_1   0.823698 0.521198 0.498425 -0.090190
C4    C     C_1   0.175856 0.516125 0.499139 -0.052735
C5    C     C_1   0.250722 0.507762 0.499736 -0.169905
C6    C     C_1   0.749025 0.510574 0.499940 -0.184539
C7    C     C_R   0.481879 0.062789 0.622853 0.078163
C8    C     C_R   0.484871 0.128615 0.500647 -0.108975
C9    C     C_R   0.472597 0.065102 0.377843 -0.224186
C10   C     C_R   0.472994 0.935844 0.377322 -0.226270
C11   C     C_R   0.485650 0.871313 0.499642 -0.098767
C12   C     C_R   0.339243 0.500284 0.499911 0.902363
C13   C     C_R   0.482281 0.935315 0.621977 0.113324
C14   C     C_3   0.535618 0.924944 0.746942 -0.515555
C15   C     C_3   0.534159 0.067339 0.750386 -0.208003
C16   C     C_R   0.427641 0.473364 0.071079 0.182008
C17   C     C_R   0.569308 0.537041 0.071943 -0.142702
C18   C     C_R   0.569292 0.537134 0.928073 -0.148406
C19   C     C_R   0.427680 0.473954 0.928411 0.205754
C20   C     C_3   0.377697 0.356259 0.920902 -0.550862
C21   C     C_3   0.378694 0.353948 0.075268 -0.252916
C22   C     C_R   0.498031 0.740000 0.499776 0.873762
C23   C     C_R   0.660716 0.500634 0.500108 0.922452
C24   C     C_R   0.955692 0.526864 0.618978 -0.213149
C25   C     C_R   0.912613 0.532822 0.495490 0.120402
C26   C     C_R   0.956480 0.539757 0.371277 0.005548
C27   C     C_R   0.044707 0.535514 0.374097 -0.222250
C28   C     C_R   0.087024 0.526026 0.497934 0.152863
H1    H     H_    0.076613 0.516415 0.716158 0.145152
H2    H     H_    0.625728 0.565081 0.125940 0.162373
H3    H     H_    0.625728 0.565160 0.874151 0.149526
H4    H     H_    0.314388 0.372332 0.874370 0.207174
H5    H     H_    0.414113 0.278664 0.874654 0.198273
H6    H     H_    0.414871 0.274579 0.119631 0.153815
H7    H     H_    0.921437 0.521805 0.713774 0.140758
H8    H     H_    0.080371 0.539137 0.280274 0.157363
H9    H     H_    0.468581 0.114096 0.281840 0.163282
H10   H     H_    0.469077 0.887624 0.281079 0.173546
H11   H     H_    0.500348 0.881574 0.832409 0.200282
H12   H     H_    0.598624 0.882327 0.726965 0.198093
H13   H     H_    0.496309 0.102189 0.837355 0.138162
N1    N     N_R   0.499440 0.499140 0.142800 -0.117252
N2    N     N_R   0.499440 0.499180 0.857150 -0.103650
O1    O     O_R   0.500010 0.316790 0.614690 -0.614686
O2    O     O_R   0.500000 0.316760 0.385350 -0.628049
O3    O     O_R   0.378030 0.499990 0.614640 -0.616201
O4    O     O_R   0.378020 0.499950 0.385300 -0.609339
O5    O     O_R   0.500000 0.683240 0.614650 -0.614658
O6    O     O_R   0.499990 0.683210 0.385310 -0.625049
O7    O     O_R   0.621980 0.500050 0.614700 -0.617134
O8    O     O_R   0.621970 0.500010 0.385360 -0.617396
Zn1   Zn    Zn3+2 0.500010 0.500020 0.653130 0.946907
Zn2   Zn    Zn3+2 0.499990 0.499980 0.346870 0.946499
C29   C     C_R   0.619996 0.129537 0.737195 0.197124
C30   C     C_R   0.676179 0.100701 0.630888 -0.170913
C31   C     C_R   0.754023 0.162093 0.620777 -0.149368
C32   C     C_R   0.776692 0.252111 0.716495 -0.115609
C33   C     C_R   0.721387 0.281290 0.822120 -0.133967
C34   C     C_R   0.643484 0.220527 0.832524 -0.107430
H14   H     H_    0.659597 0.031545 0.555478 0.135480
H15   H     H_    0.796768 0.139947 0.538606 0.138580
H16   H     H_    0.836978 0.299457 0.708582 0.128889
H17   H     H_    0.738595 0.351100 0.896095 0.132755
H18   H     H_    0.601306 0.245004 0.914802 0.114230
C35   C     C_1   0.294212 0.370723 0.134849 0.245258
N3    N     N_1   0.227614 0.383686 0.181451 -0.232869
C36   C     C_R   0.912111 0.548884 0.238734 0.117861
C37   C     C_R   0.851606 0.643129 0.215231 -0.125950
C38   C     C_R   0.810711 0.651974 0.089733 -0.141784
C39   C     C_R   0.830091 0.567437 0.986621 -0.138069
C40   C     C_R   0.890247 0.473648 0.008970 -0.145702
C41   C     C_R   0.931343 0.464510 0.134183 -0.146675
H19   H     H_    0.836634 0.710333 0.293570 0.124738
H20   H     H_    0.764138 0.724599 0.072295 0.124990
H21   H     H_    0.798452 0.574557 0.889473 0.120413
H22   H     H_    0.904977 0.407663 0.929455 0.121513
H23   H     H_    0.977611 0.391061 0.149992 0.133216

loop_
_geom_bond_atom_site_label_1
_geom_bond_atom_site_label_2
_ccdc_geom_bond_type
C22   O5    A    
C30   C31   A    
C16   C21   S    
C1    C8    S    
C19   C20   S    
C3    C6    T    
C7    C8    A    
C34   H18   S    
C2    H1    S    
C26   C36   S    
N1    Zn2   S    
C40   H22   S    
N2    Zn1   S    
O3    Zn1   S    
C31   C32   A    
C36   C41   A    
C17   N1    A    
C14   H11   S    
C8    C9    A    
O7    Zn1   S    
C39   C40   A    
C9    C10   A    
O4    Zn2   S    
O1    Zn1   S    
C7    C15   S    
O2    Zn2   S    
C30   H14   S    
C17   H2    S    
C12   O4    A    
C4    C28   S    
C19   N2    A    
C29   C34   A    
C24   H7    S    
C36   C37   A    
C37   H19   S    
C15   C29   S    
C32   H16   S    
C24   C25   A    
C15   H13   S    
C5    C12   S    
C12   O3    A    
C37   C38   A    
C23   O7    A    
C21   H6    S    
C33   C34   A    
O8    Zn2   S    
C41   H23   S    
C1    O1    A    
C23   O8    A    
O5    Zn1   S    
C9    H9    S    
C17   C18   A    
C26   C27   A    
C38   H20   S    
C22   O6    A    
C20   H5    S    
C2    C24   A    
C16   N1    A    
C39   H21   S    
C20   H4    S    
C33   H17   S    
C29   C30   A    
C21   C35   S    
C14   C15   S    
C4    C5    T    
C27   H8    S    
C11   C22   S    
C10   H10   S    
C25   C26   A    
C40   C41   A    
C18   N2    A    
C11   C13   A    
C1    O2    A    
C32   C33   A    
C16   C19   A    
O6    Zn2   S    
C6    C23   S    
C38   C39   A    
C10   C11   A    
C14   H12   S    
C7    C13   A    
C3    C25   S    
C20   C21   S    
C35   N3    T    
C27   C28   A    
C31   H15   S    
C2    C28   A    
C18   H3    S    
C13   C14   S    
