data_mof_unit_42927.cif
_audit_creation_date              2012-12-10T16:54:34-0500
_audit_creation_method            fapswitch 2.2
_symmetry_space_group_name_H-M    P1
_symmetry_Int_Tables_number       1
_space_group_crystal_system       triclinic
_cell_length_a                    15.015905
_cell_length_b                    10.914242
_cell_length_c                    9.892639
_cell_angle_alpha                 88.807447
_cell_angle_beta                  90.884522
_cell_angle_gamma                 92.315811
_cell_volume                      1619.429208

loop_
_atom_site_label
_atom_site_type_symbol
_atom_type_description
_atom_site_fract_x
_atom_site_fract_y
_atom_site_fract_z
_atom_type_partial_charge
C1    C     C_R   0.495713 0.265743 0.500815 0.874922
C2    C     C_R   0.910443 0.614089 0.500394 -0.071671
C3    C     C_R   0.944086 0.275138 0.501331 0.359549
C4    C     C_R   0.037661 0.273742 0.494867 0.335133
C5    C     C_R   0.089700 0.384678 0.503851 -0.022674
C6    C     C_R   0.046950 0.498331 0.501346 -0.117546
C7    C     C_R   0.098201 0.610270 0.494326 -0.150517
C8    C     C_R   0.055777 0.722599 0.509436 0.366368
C9    C     C_R   0.962733 0.724867 0.508330 0.465970
C10   C     C_R   0.183395 0.384443 0.517079 0.304777
C11   C     C_R   0.233070 0.495774 0.497859 -0.188404
C12   C     C_R   0.329658 0.498738 0.499209 0.857552
C13   C     C_R   0.191000 0.606252 0.475669 0.327871
C14   C     C_2   0.461542 0.930982 0.406350 0.261150
C15   C     C_2   0.511969 0.867004 0.494355 0.187944
C16   C     C_2   0.476069 0.065369 0.391790 0.371175
C17   C     C_2   0.481130 0.133272 0.503940 -0.259000
C18   C     C_2   0.455215 0.418283 0.921387 0.656966
C19   C     C_2   0.456639 0.419449 0.076586 0.050067
C20   C     C_R   0.502025 0.733924 0.498766 0.786459
C21   C     C_R   0.670305 0.500749 0.500887 0.825327
C22   C     C_R   0.816686 0.614993 0.489223 0.312059
C23   C     C_R   0.766875 0.503284 0.503175 -0.213692
C24   C     C_R   0.808381 0.392166 0.523878 0.391683
C25   C     C_R   0.901874 0.388011 0.512599 -0.066332
C26   C     C_R   0.953099 0.500080 0.505357 -0.159368
Cu1   Cu    Cu3+1 0.500020 0.500020 0.638630 1.024046
Cu2   Cu    Cu3+1 0.499980 0.499980 0.361370 1.038484
H1    H     H_    0.471244 0.089905 0.602796 0.130430
H2    H     H_    0.407800 0.358964 0.126362 0.101106
N1    N     N_2   0.499020 0.498660 0.846910 -0.033436
N2    N     N_2   0.499000 0.498630 0.153040 -0.015381
O1    O     O_R   0.500020 0.321960 0.617040 -0.565029
O2    O     O_R   0.499980 0.321920 0.382900 -0.514740
O3    O     O_R   0.370270 0.499990 0.617090 -0.554614
O4    O     O_R   0.370240 0.499950 0.382940 -0.577343
O5    O     O_R   0.500020 0.678080 0.617100 -0.627084
O6    O     O_R   0.499980 0.678040 0.382960 -0.586406
O7    O     O_R   0.629760 0.500050 0.617060 -0.563109
O8    O     O_R   0.629730 0.500010 0.382910 -0.553821
O9    O     O_3   0.776300 0.725577 0.465062 -0.678606
H3    H     H_    0.710672 0.715419 0.466647 0.286942
O10   O     O_3   0.577496 0.925807 0.572200 -0.755812
H4    H     H_    0.610647 0.863201 0.624065 0.311499
O11   O     O_3   0.483264 0.119587 0.264514 -0.718436
H5    H     H_    0.484788 0.053970 0.196855 0.314669
O12   O     O_3   0.389566 0.346668 0.857632 -0.591158
C27   C     C_3   0.403223 0.221628 0.886558 -0.333009
H6    H     H_    0.379299 0.194976 0.989086 0.164866
H7    H     H_    0.474242 0.197967 0.875363 0.175550
H8    H     H_    0.363386 0.165968 0.813061 0.201541
O13   O     O_3   0.586294 0.513168 0.878704 -0.452531
C28   C     C_3   0.613074 0.637569 0.851609 0.031421
H9    H     H_    0.562358 0.702548 0.883034 0.095957
H10   H     H_    0.630196 0.660517 0.746937 0.131772
H11   H     H_    0.677500 0.656285 0.904715 0.115620
O14   O     O_3   0.575914 0.550152 0.107106 -0.455904
C29   C     C_3   0.584835 0.672253 0.151966 -0.000898
H12   H     H_    0.621649 0.677563 0.248870 0.174577
H13   H     H_    0.520434 0.719468 0.148121 0.147956
H14   H     H_    0.630259 0.728346 0.087536 0.061602
O15   O     O_3   0.755278 0.289397 0.554393 -0.659705
H15   H     H_    0.784840 0.245209 0.630154 0.354584
O16   O     O_3   0.892049 0.168635 0.484443 -0.685553
H16   H     H_    0.929525 0.096435 0.480787 0.397075
O17   O     O_3   0.075991 0.163427 0.471794 -0.672108
H17   H     H_    0.120138 0.177965 0.399076 0.361512
O18   O     O_3   0.223494 0.275402 0.550798 -0.702605
H18   H     H_    0.288797 0.287640 0.560442 0.316593
O19   O     O_3   0.242697 0.708135 0.436868 -0.681142
H19   H     H_    0.207242 0.756899 0.371563 0.370014
O20   O     O_3   0.103617 0.832623 0.526297 -0.530983
C30   C     C_3   0.138385 0.837151 0.659856 -0.198954
H20   H     H_    0.199138 0.782970 0.670846 0.186652
H21   H     H_    0.089049 0.804633 0.736924 0.102869
H22   H     H_    0.157819 0.933843 0.682318 0.208214
O21   O     O_3   0.923862 0.837774 0.510312 -0.494316
C31   C     C_3   0.902270 0.865317 0.644597 -0.179916
H23   H     H_    0.878817 0.783672 0.705858 0.113080
H24   H     H_    0.847219 0.930174 0.641443 0.211697
H25   H     H_    0.959986 0.912259 0.695454 0.158792
O22   O     O_3   0.397691 0.870317 0.327206 -0.721017
H26   H     H_    0.362894 0.932333 0.277143 0.328730

loop_
_geom_bond_atom_site_label_1
_geom_bond_atom_site_label_2
_ccdc_geom_bond_type
C17   H1    S    
O9    H3    S    
N1    O13   S    
C18   O12   S    
C1    O1    A    
C7    C8    A    
C28   H9    S    
Cu1   O1    S    
C5    C6    A    
C31   H24   S    
C22   O9    S    
C16   C17   D    
C13   O19   S    
Cu2   O8    S    
C29   H13   S    
C18   C19   S    
C30   H20   S    
O18   H18   S    
C27   H8    S    
Cu1   O7    S    
C8    C9    A    
C2    C22   A    
C23   C24   A    
O19   H19   S    
C12   O4    A    
C29   H14   S    
C27   H7    S    
O17   H17   S    
Cu2   O2    S    
C30   H21   S    
N2    O14   S    
C19   N2    D    
C1    O2    A    
C28   H10   S    
C15   C20   S    
C8    O20   S    
Cu1   N1    S    
Cu2   N2    S    
C24   C25   A    
C31   H23   S    
C4    C5    A    
Cu1   O3    S    
C25   C26   A    
O21   C31   S    
C2    C9    A    
O10   H4    S    
O15   H15   S    
C20   O6    A    
O12   C27   S    
C21   O7    A    
Cu2   O6    S    
C2    C26   A    
C9    O21   S    
C12   O3    A    
C27   H6    S    
C21   C23   S    
C30   H22   S    
C14   C16   S    
C14   O22   S    
C3    C4    A    
O13   C28   S    
C28   H11   S    
C24   O15   S    
C14   C15   D    
O20   C30   S    
C16   O11   S    
C11   C12   S    
C6    C7    A    
C10   O18   S    
C1    C17   S    
O16   H16   S    
C29   H12   S    
C15   O10   S    
C5    C10   A    
C4    O17   S    
C20   O5    A    
C11   C13   A    
C31   H25   S    
O14   C29   S    
C6    C26   A    
C21   O8    A    
Cu1   O5    S    
C3    O16   S    
C10   C11   A    
O11   H5    S    
C7    C13   A    
C3    C25   A    
Cu2   O4    S    
O22   H26   S    
Cu1   Cu2   S    
C22   C23   A    
C18   N1    D    
C19   H2    S    
