data_mof_unit_47185.cif
_audit_creation_date              2012-10-26T19:55:48-0400
_audit_creation_method            fapswitch 2.2
_symmetry_space_group_name_H-M    P1
_symmetry_Int_Tables_number       1
_space_group_crystal_system       triclinic
_cell_length_a                    10.810298
_cell_length_b                    10.734907
_cell_length_c                    9.616839
_cell_angle_alpha                 91.220976
_cell_angle_beta                  89.089315
_cell_angle_gamma                 92.463487
_cell_volume                      1114.60065567

loop_
_atom_site_label
_atom_site_type_symbol
_atom_type_description
_atom_site_fract_x
_atom_site_fract_y
_atom_site_fract_z
_atom_type_partial_charge
C1    C     C_R   0.494813 0.262713 0.498968 0.529216
C2    C     C_R   0.823977 0.328515 0.964799 -0.116627
C3    C     C_R   0.742503 0.228483 0.929955 -0.101362
C4    C     C_R   0.262631 0.502684 0.500563 0.523830
C5    C     C_R   0.725902 0.193261 0.790501 -0.074313
C6    C     C_R   0.789600 0.258995 0.685598 -0.048592
C7    C     C_R   0.869795 0.361346 0.719594 0.045200
C8    C     C_R   0.294601 0.124643 0.643933 -0.113813
C9    C     C_R   0.202499 0.057340 0.716934 -0.125852
C10   C     C_R   0.203980 0.927936 0.720315 -0.127508
C11   C     C_R   0.297534 0.865083 0.650702 -0.115465
C12   C     C_R   0.246840 0.743548 0.049223 -0.091801
C13   C     C_R   0.392473 0.931491 0.576766 0.010784
C14   C     C_R   0.391266 0.062957 0.573870 0.015824
C15   C     C_R   0.484919 0.128550 0.497105 -0.006167
C16   C     C_R   0.495385 0.736982 0.501073 0.548298
C17   C     C_R   0.573466 0.065697 0.419455 -0.159654
C18   C     C_R   0.574498 0.937542 0.421961 -0.123536
C19   C     C_R   0.487099 0.870588 0.502245 0.028993
C20   C     C_R   0.685297 0.640621 0.142296 -0.098586
C21   C     C_R   0.790642 0.681213 0.068033 -0.220030
C22   C     C_R   0.789487 0.677486 0.923986 -0.163032
C23   C     C_R   0.936764 0.545887 0.390130 -0.154855
C24   C     C_R   0.674852 0.657899 0.860222 0.122383
C25   C     C_R   0.586611 0.575145 0.926054 0.157800
C26   C     C_R   0.589005 0.571314 0.074836 0.154427
C27   C     C_R   0.416205 0.430271 0.073611 0.008513
C28   C     C_R   0.737135 0.494736 0.499433 0.544372
C29   C     C_R   0.416966 0.429381 0.925786 -0.003882
C30   C     C_R   0.259887 0.791419 0.184747 -0.087350
C31   C     C_R   0.199842 0.730780 0.295668 -0.057261
C32   C     C_R   0.127625 0.620787 0.271837 0.053386
C33   C     C_R   0.114258 0.573796 0.135173 -0.105486
C34   C     C_R   0.871015 0.488710 0.498935 0.002020
C35   C     C_R   0.173738 0.635132 0.024315 -0.128714
C36   C     C_2   0.633388 0.779164 0.812632 0.600652
C37   C     C_R   0.934322 0.434252 0.608439 -0.026750
C38   C     C_R   0.063019 0.445101 0.609129 -0.159966
C39   C     C_R   0.128558 0.504231 0.500633 -0.003777
C40   C     C_R   0.064852 0.555058 0.389222 -0.027633
C41   C     C_R   0.888197 0.394063 0.860166 -0.101341
Cu1   Cu    Cu3+1 0.499990 0.499990 0.640660 0.953064
Cu2   Cu    Cu3+1 0.500010 0.500010 0.359340 0.927401
H1    H     H_    0.293008 0.790623 0.963495 0.161160
H2    H     H_    0.645650 0.890308 0.363202 0.121643
H3    H     H_    0.347329 0.373163 0.128395 0.117522
H4    H     H_    0.316359 0.875563 0.203884 0.120172
H5    H     H_    0.682834 0.666122 0.249949 0.180216
H6    H     H_    0.868874 0.725435 0.121289 0.128999
H7    H     H_    0.865806 0.724766 0.869350 0.141873
H8    H     H_    0.348837 0.371436 0.870589 0.103154
H9    H     H_    0.209624 0.769038 0.399913 0.095935
H10   H     H_    0.058882 0.489106 0.115049 0.096130
H11   H     H_    0.163841 0.598254 0.919234 0.108219
H12   H     H_    0.692506 0.178084 0.010991 0.115523
H13   H     H_    0.888049 0.587656 0.307276 0.121058
H14   H     H_    0.112442 0.402343 0.691728 0.112322
H15   H     H_    0.950349 0.471876 0.888300 0.100635
H16   H     H_    0.836915 0.355724 0.072823 0.117415
H17   H     H_    0.510238 0.914296 0.835407 0.328161
H18   H     H_    0.663173 0.115474 0.763570 0.141852
H19   H     H_    0.775649 0.231011 0.577937 0.096174
H20   H     H_    0.644243 0.116426 0.359700 0.118665
H21   H     H_    0.287532 0.224687 0.640781 0.125783
H22   H     H_    0.128917 0.105755 0.769779 0.117038
H23   H     H_    0.131647 0.875875 0.776006 0.116215
H24   H     H_    0.293074 0.764438 0.653695 0.140900
N1    N     N_R   0.501190 0.501210 0.147910 -0.236523
N2    N     N_R   0.501230 0.501290 0.852040 -0.244167
O1    O     O_R   0.499990 0.319640 0.618810 -0.508520
O2    O     O_R   0.523960 0.826636 0.867223 -0.722146
O3    O     O_R   0.500000 0.319660 0.381240 -0.502140
O4    O     O_R   0.319640 0.500000 0.618780 -0.531929
O5    O     O_R   0.319650 0.500020 0.381210 -0.489395
O6    O     O_R   0.500000 0.680340 0.618760 -0.473484
O7    O     O_R   0.500010 0.680360 0.381190 -0.523161
O8    O     O_R   0.680350 0.499980 0.618790 -0.489308
O9    O     O_R   0.680360 0.500000 0.381220 -0.532724
O10   O     O_2   0.697670 0.840703 0.731081 -0.556079

loop_
_geom_bond_atom_site_label_1
_geom_bond_atom_site_label_2
_ccdc_geom_bond_type
Cu2   O3    S    
C27   C29   A    
C34   C37   A    
C31   H9    S    
C21   H6    S    
C23   H13   S    
Cu2   O9    S    
Cu1   O6    S    
C24   C36   S    
C41   H15   S    
C5    C6    A    
C2    C41   A    
C23   C40   A    
C16   O6    A    
Cu1   O1    S    
C18   C19   A    
C27   N1    A    
C3    H12   S    
C8    C9    A    
C1    C15   S    
C28   O9    A    
C9    C10   A    
C4    O5    A    
C36   O2    S    
C22   H7    S    
Cu2   O5    S    
C7    C41   A    
C28   C34   S    
C13   C14   A    
C35   H11   S    
C11   H24   S    
C29   N2    A    
C10   H23   S    
C33   H10   S    
C38   C39   A    
C1    O3    A    
C13   C19   A    
C30   H4    S    
C24   C25   A    
C39   C40   A    
C2    H16   S    
Cu2   N1    S    
H17   O2    S    
C25   C26   A    
Cu1   N2    S    
C37   C38   A    
C38   H14   S    
C31   C32   A    
C4    C39   S    
C23   C34   A    
C17   C18   A    
C7    C37   S    
C5    H18   S    
C12   C35   A    
C28   O8    A    
C4    O4    A    
C20   H5    S    
C8    H21   S    
C27   H3    S    
C22   C24   A    
C25   N2    A    
Cu1   Cu2   S    
C18   H2    S    
C29   H8    S    
Cu2   O7    S    
C15   C17   A    
Cu1   O4    S    
C8    C14   A    
C12   C30   A    
C16   O7    A    
C3    C5    A    
C36   O10   D    
C6    C7    A    
C1    O1    A    
C26   N1    A    
C32   C33   A    
C6    H19   S    
C2    C3    A    
C12   H1    S    
C17   H20   S    
C11   C13   A    
C30   C31   A    
C20   C26   A    
C16   C19   S    
C33   C35   A    
C32   C40   S    
C9    H22   S    
C10   C11   A    
C20   C21   A    
Cu1   O8    S    
C14   C15   A    
C21   C22   A    
