data_mof_unit_7642.cif
_audit_creation_date              2012-12-11T14:08:33-0500
_audit_creation_method            fapswitch 2.2
_symmetry_space_group_name_H-M    P1
_symmetry_Int_Tables_number       1
_space_group_crystal_system       triclinic
_cell_length_a                    10.959101
_cell_length_b                    10.912436
_cell_length_c                    18.683034
_cell_angle_alpha                 90.243146
_cell_angle_beta                  90.142897
_cell_angle_gamma                 60.323397
_cell_volume                      1941.22903506

loop_
_atom_site_label
_atom_site_type_symbol
_atom_type_description
_atom_site_fract_x
_atom_site_fract_y
_atom_site_fract_z
_atom_type_partial_charge
C1    C     C_R   0.238184 0.643847 0.609477 0.579818
C2    C     C_2   0.791848 0.124788 0.703320 -0.161341
C3    C     C_2   0.186132 0.654506 0.683361 0.239864
C4    C     C_R   0.656695 0.624824 0.600127 0.600392
C5    C     C_2   0.208571 0.662587 0.844215 0.278973
C6    C     C_2   0.228227 0.548813 0.806329 0.276334
C7    C     C_2   0.252336 0.540083 0.727754 0.228667
C8    C     C_2   0.678314 0.687174 0.335633 0.250751
C9    C     C_2   0.700117 0.709744 0.177972 -0.104489
C10   C     C_2   0.806823 0.629898 0.220945 -0.205806
C11   C     C_2   0.784445 0.597846 0.292989 -0.160710
C12   C     C_3   0.665664 0.597585 0.803728 -0.138526
C13   C     C_2   0.565094 0.325224 0.314373 -0.041069
C14   C     C_2   0.645961 0.187886 0.171582 0.228025
C15   C     C_2   0.515210 0.249560 0.198737 -0.092740
C16   C     C_R   0.629149 0.224818 0.601039 0.587136
C17   C     C_2   0.485791 0.289332 0.274443 -0.061037
C18   C     C_2   0.117664 0.678555 0.347376 0.327770
C19   C     C_2   0.124971 0.687444 0.188904 0.236409
C20   C     C_2   0.034958 0.791339 0.233096 -0.110857
C21   C     C_2   0.067225 0.796941 0.308493 0.231071
C22   C     C_R   0.704208 0.100366 0.896909 0.539718
C23   C     C_3   0.727716 0.697830 0.807596 -0.050831
C24   C     C_R   0.756405 0.713006 0.883402 0.563366
C25   C     C_R   0.122282 0.705330 0.908860 0.613454
C26   C     C_R   0.675683 0.109297 0.104184 0.535411
C27   C     C_R   0.731859 0.718379 0.104529 0.562204
C28   C     C_R   0.214426 0.651712 0.405191 0.617578
C29   C     C_R   0.091788 0.710678 0.113889 0.520799
C30   C     C_R   0.645270 0.627010 0.396302 0.579918
C31   C     C_R   0.571101 0.309606 0.391466 0.566244
C32   C     C_3   0.617597 0.840337 0.773061 -0.277715
C33   C     C_3   0.580091 0.813284 0.696564 0.034924
C34   C     C_3   0.683398 0.656277 0.674185 0.166953
C35   C     C_3   0.865667 0.642486 0.763131 0.113409
C36   C     C_3   0.836052 0.633389 0.682446 0.100354
C37   C     C_3   0.664373 0.552990 0.726086 0.437151
C38   C     C_2   0.675223 0.147949 0.668735 -0.124147
C39   C     C_2   0.694575 0.157121 0.825246 -0.121216
C40   C     C_2   0.806399 0.097429 0.781000 -0.129780
Cr1   Cr    Cr6+3 0.393010 0.398050 0.501480 1.062550
Cr2   Cr    Cr6+3 0.398820 0.707980 0.501630 1.110284
Cr3   Cr    Cr6+3 0.708140 0.393940 0.496850 1.069412
Cr4   Cr    Cr6+3 0.937950 0.938450 0.008940 1.040758
Cr5   Cr    Cr6+3 0.626180 0.937030 0.994750 1.042568
Cr6   Cr    Cr6+3 0.937790 0.625760 0.001410 1.068720
H1    H     H_    0.599639 0.127169 0.695757 0.127065
H2    H     H_    0.024426 0.511873 0.645686 0.326197
H3    H     H_    0.910323 0.024793 0.801619 0.207304
H4    H     H_    0.874919 0.131988 0.675509 0.172194
H5    H     H_    0.590654 0.230225 0.804798 0.142671
H6    H     H_    0.247426 0.361629 0.807677 0.360854
H7    H     H_    0.294304 0.372520 0.677075 0.333942
H8    H     H_    0.325701 0.708561 0.784206 0.363277
H9    H     H_    0.520282 0.894167 0.805876 0.202479
H10   H     H_    0.044621 0.849844 0.669050 0.324761
H11   H     H_    0.912723 0.570110 0.199522 0.160312
H12   H     H_    0.853968 0.489058 0.308592 0.164894
H13   H     H_    0.591674 0.764511 0.195991 0.167732
H14   H     H_    0.652860 0.862377 0.295509 0.326102
H15   H     H_    0.843908 0.138933 0.183799 0.342665
H16   H     H_    0.632704 0.360121 0.290543 0.166767
H17   H     H_    0.379653 0.946184 0.694589 0.333688
H18   H     H_    0.026060 0.990603 0.298882 0.344088
H19   H     H_    0.302990 0.521457 0.169987 0.315806
H20   H     H_    0.017527 0.600265 0.296790 0.311026
H21   H     H_    0.592203 0.884758 0.658216 0.089761
H22   H     H_    0.902232 0.720664 0.768690 0.155449
H23   H     H_    0.430856 0.248784 0.168415 0.119713
H24   H     H_    0.840102 0.720618 0.653388 0.053932
H25   H     H_    0.557220 0.652862 0.825962 0.145965
H26   H     H_    0.535257 0.481918 0.742277 0.334132
H27   H     H_    0.407097 0.270378 0.299209 0.182875
H28   H     H_    0.941148 0.881812 0.212031 0.102928
H29   H     H_    0.724505 0.501942 0.837450 0.159234
H30   H     H_    0.660991 0.913224 0.770407 0.081376
H31   H     H_    0.755377 0.371842 0.677094 0.378294
H32   H     H_    0.945498 0.441883 0.787487 0.398944
O1    O     O_R   0.507110 0.256280 0.580300 -0.484855
O2    O     O_R   0.837080 0.593860 0.915300 -0.465610
O3    O     O_R   0.064770 0.636080 0.932550 -0.465547
O4    O     O_R   0.280830 0.527190 0.577940 -0.509610
O5    O     O_R   0.068250 0.829200 0.092940 -0.522646
O6    O     O_R   0.799650 0.057040 0.080330 -0.515252
O7    O     O_R   0.586130 0.079760 0.077080 -0.531335
O8    O     O_R   0.627700 0.809630 0.066580 -0.483093
O9    O     O_R   0.816140 0.597180 0.075920 -0.491839
O10   O     O_R   0.045360 0.639170 0.081440 -0.531034
O11   O     O_3   0.833980 0.833750 0.001700 -0.314067
O12   O     O_R   0.524640 0.695370 0.425100 -0.465534
O13   O     O_R   0.261360 0.738990 0.584270 -0.477023
O14   O     O_R   0.532590 0.694780 0.574370 -0.449136
O15   O     O_R   0.744470 0.503750 0.577000 -0.470228
O16   O     O_R   0.698520 0.277230 0.571620 -0.502449
O17   O     O_R   0.498530 0.256920 0.419280 -0.497563
O18   O     O_R   0.272880 0.527780 0.428680 -0.500887
O19   O     O_R   0.252780 0.739630 0.423250 -0.474668
O20   O     O_3   0.776595 0.414233 0.718368 -0.695823
O21   O     O_3   0.974856 0.514025 0.789365 -0.644096
O22   O     O_3   0.938783 0.504222 0.652982 -0.626629
O23   O     O_R   0.735890 0.504390 0.415980 -0.559778
O24   O     O_3   0.230066 0.437353 0.842452 -0.661931
O25   O     O_3   0.349586 0.409691 0.701749 -0.729124
O26   O     O_3   0.249145 0.756632 0.819355 -0.670440
O27   O     O_3   0.080103 0.781724 0.709165 -0.745644
O28   O     O_3   0.596873 0.830577 0.323449 -0.684805
O29   O     O_3   0.755996 0.180421 0.211900 -0.740275
O30   O     O_3   0.439987 0.841980 0.695137 -0.624725
O31   O     O_3   0.061240 0.917270 0.336619 -0.669195
O32   O     O_3   0.250996 0.577381 0.212528 -0.691868
O33   O     O_3   0.100413 0.565558 0.327723 -0.692508
O34   O     O_R   0.690560 0.277820 0.422350 -0.478436
O35   O     O_3   0.536488 0.555957 0.712061 -0.670075
O36   O     O_3   0.499990 0.499990 0.499980 -0.310383
O37   O     O_R   0.089190 0.825870 0.932320 -0.478852
O38   O     O_R   0.819070 0.053960 0.931440 -0.489479
O39   O     O_R   0.607070 0.076440 0.916460 -0.506573
O40   O     O_R   0.647110 0.806550 0.917690 -0.504135

loop_
_geom_bond_atom_site_label_1
_geom_bond_atom_site_label_2
_ccdc_geom_bond_type
Cr5   O40   S    
C28   O19   A    
C22   O39   A    
C39   H5    S    
C18   C21   D    
C35   C36   S    
Cr1   O36   S    
C30   O12   A    
Cr4   O5    S    
Cr6   O11   S    
C3    O27   S    
C12   C23   S    
H6    O24   S    
H8    O26   S    
H19   O32   S    
C29   O5    A    
C3    C7    D    
C25   O37   A    
Cr3   O36   S    
C5    C6    D    
C15   H23   S    
Cr1   O18   S    
C37   O35   S    
Cr1   O4    S    
C40   H3    S    
C34   C37   S    
Cr3   O16   S    
Cr2   O13   S    
C12   C37   S    
C29   O10   A    
C2    H4    S    
Cr2   O36   S    
C13   H16   S    
C19   C20   D    
Cr4   O37   S    
C36   H24   S    
C23   C24   S    
H20   O33   S    
C11   H12   S    
Cr5   O11   S    
C9    C10   D    
C32   H9    S    
Cr2   O14   S    
C9    C27   S    
C22   O38   A    
C5    O26   S    
C1    O13   A    
C7    O25   S    
C25   O3    A    
C33   O30   S    
C35   O21   S    
C37   O20   S    
C24   O2    A    
Cr6   O10   S    
H2    O22   S    
C4    C34   S    
C10   H11   S    
C18   C28   S    
C18   O33   S    
Cr2   O19   S    
C39   C40   D    
C17   H27   S    
C1    O4    A    
H26   O35   S    
C1    C3    S    
C27   O8    A    
Cr5   O7    S    
Cr3   O23   S    
Cr1   O1    S    
Cr6   O3    S    
C2    C38   D    
C31   O34   A    
C33   C34   S    
C20   H28   S    
H31   O20   S    
C36   O22   S    
C14   C26   S    
C27   O9    A    
C38   H1    S    
C5    C25   S    
C14   O29   S    
C12   H25   S    
C23   C35   S    
Cr3   O34   S    
C19   C29   S    
H14   O28   S    
C33   H21   S    
Cr6   O9    S    
C19   O32   S    
Cr5   O39   S    
C15   C17   S    
C26   O6    A    
C16   O16   A    
C13   C31   S    
C26   O7    A    
Cr4   O6    S    
C8    O28   S    
C32   H30   S    
C21   O31   S    
C6    C7    S    
C24   O40   A    
C13   C17   D    
C28   O18   A    
C16   O1    A    
C8    C30   S    
C23   C32   S    
Cr5   O8    S    
C32   C33   S    
Cr6   O2    S    
H18   O31   S    
Cr1   O17   S    
C35   H22   S    
H7    O25   S    
C8    C11   D    
C31   O17   A    
C22   C39   S    
C30   O23   A    
Cr3   O15   S    
C34   C36   S    
C6    O24   S    
H15   O29   S    
H10   O27   S    
C10   C11   S    
C4    O15   A    
C2    C40   S    
C20   C21   S    
Cr4   O38   S    
C12   H29   S    
H32   O21   S    
C14   C15   D    
Cr2   O12   S    
H17   O30   S    
C9    H13   S    
Cr4   O11   S    
C16   C38   S    
C4    O14   A    
