data_mof_unit_12031.cif
_audit_creation_date              2012-12-10T18:57:08-0500
_audit_creation_method            fapswitch 2.2
_symmetry_space_group_name_H-M    P1
_symmetry_Int_Tables_number       1
_space_group_crystal_system       triclinic
_cell_length_a                    10.713179
_cell_length_b                    9.871969
_cell_length_c                    10.644814
_cell_angle_alpha                 90.297982
_cell_angle_beta                  90.559492
_cell_angle_gamma                 90.084277
_cell_volume                      1125.72714601

loop_
_atom_site_label
_atom_site_type_symbol
_atom_type_description
_atom_site_fract_x
_atom_site_fract_y
_atom_site_fract_z
_atom_type_partial_charge
C1    C     C_R   0.259987 0.499893 0.500239 0.888335
C2    C     C_R   0.740003 0.500029 0.500153 0.870034
C3    C     C_R   0.580441 0.071464 0.576011 0.366521
C4    C     C_R   0.420802 0.070415 0.422652 0.373412
C5    C     C_R   0.580165 0.928070 0.575717 -0.137815
C6    C     C_R   0.420752 0.926994 0.423342 -0.180448
C7    C     C_R   0.499370 0.499430 0.260459 0.910281
C8    C     C_R   0.499943 0.500269 0.739666 0.892838
C9    C     C_R   0.404837 0.567275 0.063625 0.071805
C10   C     C_R   0.406223 0.569670 0.935903 -0.035609
C11   C     C_R   0.495449 0.495188 0.128824 -0.099434
C12   C     C_R   0.497492 0.498207 0.871500 -0.043481
C13   C     C_R   0.574460 0.405880 0.065326 -0.193213
C14   C     C_R   0.575625 0.407632 0.935498 -0.212218
C15   C     C_3   0.359432 0.712448 0.930791 0.229638
C16   C     C_3   0.357186 0.708563 0.075021 0.216838
C17   C     C_R   0.063451 0.378539 0.478931 -0.158138
C18   C     C_R   0.935649 0.378666 0.478587 -0.158758
C19   C     C_R   0.872502 0.500082 0.500535 -0.016023
C20   C     C_R   0.127477 0.499838 0.500961 -0.011041
C21   C     C_R   0.936473 0.621329 0.523197 -0.186228
C22   C     C_R   0.064346 0.621136 0.523655 -0.198047
H1    H     H_    0.639323 0.341229 0.115682 0.165271
H2    H     H_    0.641131 0.343927 0.885838 0.208991
H3    H     H_    0.266976 0.718341 0.882049 0.082880
H4    H     H_    0.424686 0.776670 0.124809 0.118519
H5    H     H_    0.111570 0.284060 0.461340 0.201209
H6    H     H_    0.886739 0.284303 0.460464 0.184065
H7    H     H_    0.888157 0.715697 0.541274 0.166610
H8    H     H_    0.113347 0.715333 0.542265 0.157244
H9    H     H_    0.643962 0.873469 0.636406 0.188105
H10   H     H_    0.357774 0.871385 0.362091 0.178172
N1    N     N_R   0.500000 0.857200 0.500000 -0.121870
N2    N     N_R   0.500000 0.142810 0.500000 -0.134948
O1    O     O_R   0.316770 0.614620 0.499990 -0.631720
O2    O     O_R   0.683230 0.614620 0.500010 -0.635197
O3    O     O_R   0.316800 0.385290 0.500000 -0.585329
O4    O     O_R   0.683200 0.385290 0.500000 -0.580811
O5    O     O_R   0.500000 0.614690 0.316780 -0.629015
O6    O     O_R   0.500000 0.614690 0.683220 -0.584111
O7    O     O_R   0.500020 0.385360 0.316780 -0.569167
O8    O     O_R   0.499980 0.385360 0.683220 -0.591325
Zn1   Zn    Zn3+2 0.500000 0.653120 0.500000 0.969256
Zn2   Zn    Zn3+2 0.500000 0.346880 0.500000 1.036765
O9    O     O_3   0.452024 0.801505 0.885937 -0.594204
C23   C     C_3   0.403126 0.933658 0.870994 0.092159
H11   H     H_    0.307316 0.948416 0.908399 0.100194
H12   H     H_    0.399158 0.957299 0.769250 0.171009
C24   C     C_3   0.488990 0.034997 0.936615 -0.755711
H13   H     H_    0.488324 0.017867 0.039622 0.242555
H14   H     H_    0.585812 0.023565 0.902090 0.285839
H15   H     H_    0.456321 0.139573 0.917361 0.234913
O10   O     O_3   0.235736 0.706503 0.125478 -0.607212
C25   C     C_3   0.185618 0.838684 0.128231 0.085311
H16   H     H_    0.142819 0.862190 0.035400 0.142607
H17   H     H_    0.256658 0.917602 0.151821 0.165663
C26   C     C_3   0.084163 0.845407 0.227017 -0.739582
H18   H     H_    0.010232 0.769454 0.205767 0.256261
H19   H     H_    0.124778 0.824453 0.321231 0.247236
H20   H     H_    0.041833 0.948014 0.228029 0.219218
Cl1   Cl    Cl    0.687553 0.155094 0.674810 -0.664521
Cl2   Cl    Cl    0.318876 0.152926 0.318557 -0.664580

loop_
_geom_bond_atom_site_label_1
_geom_bond_atom_site_label_2
_ccdc_geom_bond_type
C5    H9    S    
C6    H10   S    
C25   H17   S    
O4    Zn2   S    
C13   C14   A    
O1    Zn1   S    
C9    C10   A    
C2    O4    A    
C6    N1    A    
C1    O3    A    
C8    C12   S    
C24   H15   S    
O3    Zn2   S    
C3    Cl1   S    
C17   C18   A    
C12   C14   A    
C18   H6    S    
O9    C23   S    
C7    C11   S    
C11   C13   A    
C23   C24   S    
C9    C11   A    
C26   H18   S    
C8    O6    A    
O8    Zn2   S    
C10   C12   A    
C1    C20   S    
C19   C21   A    
C9    C16   S    
C20   C22   A    
C18   C19   A    
C4    N2    A    
C10   C15   S    
C7    O7    A    
C16   H4    S    
O7    Zn2   S    
C23   H12   S    
C26   H19   S    
C15   H3    S    
C15   O9    S    
C14   H2    S    
C15   C16   S    
C17   H5    S    
C4    Cl2   S    
C26   H20   S    
C17   C20   A    
N2    Zn2   S    
C13   H1    S    
C4    C6    A    
C24   H13   S    
C23   H11   S    
C2    O2    A    
C25   H16   S    
C1    O1    A    
C7    O5    A    
C16   O10   S    
O2    Zn1   S    
O5    Zn1   S    
C22   H8    S    
C3    N2    A    
C3    C5    A    
C2    C19   S    
C21   C22   A    
N1    Zn1   S    
C21   H7    S    
O6    Zn1   S    
O10   C25   S    
C8    O8    A    
C24   H14   S    
C25   C26   S    
C5    N1    A    
