data_mof_unit_67866.cif
_audit_creation_date              2012-12-10T16:55:47-0500
_audit_creation_method            fapswitch 2.2
_symmetry_space_group_name_H-M    P1
_symmetry_Int_Tables_number       1
_space_group_crystal_system       triclinic
_cell_length_a                    7.91874
_cell_length_b                    8.643873
_cell_length_c                    10.53653
_cell_angle_alpha                 93.281045
_cell_angle_beta                  84.969294
_cell_angle_gamma                 93.397667
_cell_volume                      716.186872151

loop_
_atom_site_label
_atom_site_type_symbol
_atom_type_description
_atom_site_fract_x
_atom_site_fract_y
_atom_site_fract_z
_atom_type_partial_charge
C1    C     C_R   0.544684 0.793492 0.497567 0.937979
C2    C     C_3   0.501088 0.495183 0.876120 -0.145122
C3    C     C_3   0.353932 0.557622 0.051425 -0.058878
C4    C     C_3   0.648519 0.449317 0.949131 -0.094775
C5    C     C_2   0.568557 0.955805 0.489359 0.195489
C6    C     C_2   0.433013 0.045139 0.515559 0.252080
C7    C     C_2   0.765361 0.719429 0.069583 0.538366
C8    C     C_2   0.227877 0.299113 0.927135 0.427543
C9    C     C_2   0.465350 0.803387 0.914385 0.338460
C10   C     C_2   0.538373 0.203346 0.087150 0.457539
C11   C     C_2   0.196913 0.627843 0.110674 0.382707
C12   C     C_R   0.455555 0.206579 0.502782 0.934125
C13   C     C_2   0.808310 0.381100 0.891504 0.415773
C14   C     C_2   0.015132 0.386945 0.348593 0.676326
C15   C     C_2   0.983540 0.603896 0.654256 0.656038
C16   C     C_3   0.847803 0.016544 0.526662 -0.015070
C17   C     C_3   0.249247 0.990907 0.690251 -0.258517
C18   C     C_R   0.499896 0.495526 0.741434 0.909470
C19   C     C_R   0.500637 0.507262 0.258883 0.966025
C20   C     C_3   0.483624 0.644763 0.960620 -0.100799
C21   C     C_3   0.518142 0.361303 0.039727 -0.049289
C22   C     C_3   0.630585 0.599576 0.034633 -0.103276
C23   C     C_3   0.370849 0.407424 0.966218 -0.007130
C24   C     C_3   0.500555 0.511248 0.124428 -0.125496
H1    H     H_    0.852898 0.767559 0.995121 0.098356
H2    H     H_    0.793765 0.007496 0.627600 0.172143
H3    H     H_    0.924363 0.127877 0.522281 0.191655
H4    H     H_    0.121204 0.031157 0.722032 0.203269
H5    H     H_    0.344024 0.068320 0.739138 0.125705
H6    H     H_    0.254498 0.871391 0.722119 0.194801
H7    H     H_    0.191246 0.295935 0.830333 0.047120
H8    H     H_    0.356292 0.868695 0.948898 0.088353
H9    H     H_    0.647526 0.138304 0.052435 0.119444
H10   H     H_    0.205093 0.734540 0.169745 0.117283
H11   H     H_    0.929096 0.438697 0.908409 0.106330
H12   H     H_    0.953919 0.404576 0.263506 0.111020
H13   H     H_    0.036906 0.571956 0.739276 -0.024657
H14   H     H_    0.935422 0.922315 0.500318 0.232462
N1    N     N_2   0.950320 0.457950 0.465730 -0.191371
N2    N     N_2   0.049680 0.542050 0.534270 -0.160116
O1    O     O_R   0.389250 0.738570 0.508410 -0.614416
O2    O     O_2   0.148216 0.217828 0.005062 -0.504745
O3    O     O_2   0.574052 0.860281 0.838974 -0.580315
O4    O     O_2   0.431952 0.147104 0.164584 -0.522464
O5    O     O_2   0.059315 0.565229 0.092529 -0.634179
O6    O     O_2   0.802751 0.260363 0.825686 -0.602661
O7    O     O_2   0.117887 0.287292 0.344496 -0.508898
O8    O     O_2   0.885238 0.707645 0.662658 -0.593865
O9    O     O_3   0.725312 0.013910 0.436433 -0.602940
O10   O     O_3   0.270425 0.987828 0.555509 -0.610050
O11   O     O_R   0.610750 0.261430 0.491590 -0.624319
O12   O     O_R   0.678390 0.711620 0.486450 -0.553958
O13   O     O_R   0.321610 0.288380 0.513550 -0.567418
O14   O     O_R   0.355460 0.513510 0.697030 -0.697467
O15   O     O_R   0.644540 0.486490 0.302970 -0.628559
O16   O     O_R   0.644600 0.486560 0.675070 -0.583726
O17   O     O_R   0.355400 0.513440 0.324930 -0.619268
O18   O     O_2   0.775707 0.765623 0.180373 -0.532329
Zn1   Zn    Zn3+2 0.306940 0.517990 0.514670 0.990831
Zn2   Zn    Zn3+2 0.693060 0.482010 0.485330 1.029387

loop_
_geom_bond_atom_site_label_1
_geom_bond_atom_site_label_2
_ccdc_geom_bond_type
C17   O10   S    
C2    C4    S    
C14   O7    D    
C4    C21   S    
C2    C18   S    
C7    C22   S    
C4    C22   S    
C7    O18   D    
C3    C23   S    
C12   O13   A    
C7    H1    S    
C18   O16   A    
C8    O2    D    
C12   O11   A    
C16   H3    S    
C19   C24   S    
O13   Zn1   S    
C9    O3    D    
C3    C20   S    
N2    Zn1   S    
O15   Zn2   S    
C19   O17   A    
C6    C12   S    
C17   H6    S    
C8    H7    S    
C5    O9    S    
C3    C24   S    
C5    C6    D    
C15   O8    D    
C1    C5    S    
N1    Zn2   S    
C1    O1    A    
C20   C22   S    
C13   H11   S    
C10   H9    S    
O14   Zn1   S    
C21   C23   S    
C10   C21   S    
C14   H12   S    
C13   O6    D    
C1    O12   A    
C22   C24   S    
C15   N2    S    
C11   O5    D    
O17   Zn1   S    
C3    C11   S    
C18   O14   A    
C10   O4    D    
N1    N2    D    
C8    C23   S    
C17   H5    S    
C16   O9    S    
O1    Zn1   S    
O12   Zn2   S    
C21   C24   S    
C19   O15   A    
C2    C23   S    
C15   H13   S    
O11   Zn2   S    
C9    C20   S    
C9    H8    S    
C14   N1    S    
C17   H4    S    
C2    C20   S    
C11   H10   S    
C6    O10   S    
O16   Zn2   S    
C4    C13   S    
C16   H14   S    
C16   H2    S    
