data_mof_unit_63622.cif
_audit_creation_date              2012-12-10T16:57:18-0500
_audit_creation_method            fapswitch 2.2
_symmetry_space_group_name_H-M    P1
_symmetry_Int_Tables_number       1
_space_group_crystal_system       triclinic
_cell_length_a                    21.753096
_cell_length_b                    21.764799
_cell_length_c                    22.021939
_cell_angle_alpha                 60.401648
_cell_angle_beta                  118.798264
_cell_angle_gamma                 89.810187
_cell_volume                      7535.84412197

loop_
_atom_site_label
_atom_site_type_symbol
_atom_type_description
_atom_site_fract_x
_atom_site_fract_y
_atom_site_fract_z
_atom_type_partial_charge
C1    C     C_R   0.617634 0.501191 0.497015 0.930991
C2    C     C_2   0.817573 0.506581 0.504901 -0.325524
C3    C     C_2   0.692726 0.566696 0.451446 -0.155873
C4    C     C_R   0.418654 0.581431 0.337245 0.908503
C5    C     C_2   0.679213 0.503120 0.488511 -0.327911
C6    C     C_3   0.720572 0.274674 0.027871 0.021465
C7    C     C_3   0.746662 0.322592 0.971004 -0.201544
C8    C     C_1   0.625914 0.374066 0.751719 -0.177920
C9    C     C_1   0.875289 0.125895 0.248298 -0.109123
C10   C     C_3   0.681609 0.245033 0.973112 -0.209132
C11   C     C_3   0.709023 0.291700 0.917665 0.191989
C12   C     C_3   0.290037 0.709106 0.082123 0.200306
C13   C     C_3   0.753679 0.179412 0.028533 -0.191348
C14   C     C_3   0.791532 0.209914 0.082321 0.127166
C15   C     C_3   0.780126 0.226867 0.971355 -0.142277
C16   C     C_R   0.382366 0.498807 0.502985 0.932425
C17   C     C_3   0.818586 0.256763 0.026453 -0.184153
C18   C     C_1   0.663527 0.336737 0.826771 -0.048508
C19   C     C_1   0.837721 0.163863 0.173259 0.003310
C20   C     C_2   0.244119 0.434983 0.555964 -0.151680
C21   C     C_2   0.182425 0.493407 0.495096 -0.332846
C22   C     C_2   0.307276 0.433298 0.548554 -0.151984
C23   C     C_3   0.184341 0.735318 0.973554 -0.161397
C24   C     C_2   0.320787 0.496876 0.511490 -0.331683
C25   C     C_R   0.001314 0.879294 0.503099 0.917176
C26   C     C_R   0.080977 0.918557 0.662763 0.896045
C27   C     C_R   0.997781 0.121280 0.495316 0.996879
C28   C     C_R   0.581321 0.418595 0.662719 0.908785
C29   C     C_R   0.919044 0.081055 0.337285 0.935512
C30   C     C_R   0.001997 0.619351 0.499554 0.934072
C31   C     C_R   0.881274 0.501864 0.500859 0.940488
C32   C     C_R   0.997951 0.380674 0.500286 0.978201
C33   C     C_R   0.118726 0.498129 0.499140 0.933746
C34   C     C_3   0.207378 0.791098 0.917924 0.199650
C35   C     C_2   0.064821 0.687999 0.556760 -0.152118
C36   C     C_2   0.006892 0.686712 0.496152 -0.336090
C37   C     C_2   0.066605 0.758576 0.549143 -0.153508
C38   C     C_2   0.003423 0.809200 0.511872 -0.330908
C39   C     C_2   0.938441 0.317215 0.434411 -0.204163
C40   C     C_3   0.283994 0.734376 0.970950 -0.159479
C41   C     C_2   0.990502 0.314074 0.502301 -0.428885
C42   C     C_2   0.932307 0.248818 0.437683 0.497794
C43   C     C_2   0.994934 0.191720 0.486146 -0.496360
C44   C     C_3   0.313059 0.764889 0.026477 -0.161166
C45   C     C_3   0.213421 0.765823 0.029112 -0.161507
C46   C     C_1   0.373814 0.626068 0.248180 -0.179095
C47   C     C_1   0.124677 0.874041 0.751844 -0.174636
C48   C     C_3   0.261761 0.677802 0.028172 -0.159368
C49   C     C_2   0.685904 0.302694 0.057751 0.897514
C50   C     C_3   0.235652 0.822403 0.971874 -0.161655
C51   C     C_1   0.335929 0.663645 0.173091 -0.071822
C52   C     C_1   0.161877 0.836527 0.826946 -0.073252
C53   C     C_2   0.755881 0.565007 0.444034 -0.150723
H1    H     H_    0.366613 0.776236 0.049722 0.137838
H2    H     H_    0.344057 0.380027 0.576331 0.167022
H3    H     H_    0.312148 0.722249 0.945551 0.140862
H4    H     H_    0.289050 0.548876 0.492510 0.158607
H5    H     H_    0.111878 0.638127 0.610068 0.169037
H6    H     H_    0.964052 0.737995 0.438328 0.156187
H7    H     H_    0.119540 0.767635 0.576805 0.168288
H8    H     H_    0.951670 0.796484 0.493085 0.158064
H9    H     H_    0.898982 0.370297 0.376611 0.221877
H10   H     H_    0.025895 0.261096 0.562527 0.163187
H11   H     H_    0.048489 0.199081 0.515821 0.135733
H12   H     H_    0.710945 0.451119 0.507487 0.164067
H13   H     H_    0.224153 0.882469 0.947233 0.137129
H14   H     H_    0.185279 0.777940 0.054527 0.137658
H15   H     H_    0.130786 0.723977 0.950297 0.139792
H16   H     H_    0.273262 0.617736 0.052810 0.141442
H17   H     H_    0.752631 0.612518 0.390454 0.165925
H18   H     H_    0.823836 0.463239 0.562917 0.157165
H19   H     H_    0.655948 0.619968 0.423670 0.166691
H20   H     H_    0.689921 0.292594 0.155759 0.358204
H21   H     H_    0.735588 0.330357 0.269570 0.383305
H22   H     H_    0.742873 0.381949 0.946149 0.155240
H23   H     H_    0.875377 0.260823 0.049607 0.149099
H24   H     H_    0.803882 0.207928 0.946460 0.137596
H25   H     H_    0.757317 0.120090 0.053396 0.145348
H26   H     H_    0.624763 0.241109 0.949981 0.151227
H27   H     H_    0.247371 0.387473 0.609547 0.167013
H28   H     H_    0.176161 0.536745 0.437078 0.157516
O1    O     O_R   0.590490 0.448940 0.499990 -0.619011
O2    O     O_R   0.034710 0.555670 0.569560 -0.615528
O3    O     O_R   0.874770 0.534770 0.430450 -0.614455
O4    O     O_R   0.590420 0.551070 0.499980 -0.617420
O5    O     O_R   0.944330 0.465210 0.569580 -0.624306
O6    O     O_R   0.965290 0.444330 0.430440 -0.614335
O7    O     O_R   0.034850 0.374760 0.569570 -0.626938
O8    O     O_R   0.055670 0.534790 0.430420 -0.623310
O9    O     O_R   0.125230 0.465230 0.569550 -0.619553
O10   O     O_R   0.438430 0.510550 0.376780 -0.613089
O11   O     O_R   0.438360 0.612680 0.376770 -0.621124
O12   O     O_R   0.948920 0.909510 0.500030 -0.630188
O13   O     O_R   0.409580 0.448930 0.500020 -0.616863
O14   O     O_R   0.409510 0.551060 0.500010 -0.621949
O15   O     O_R   0.561640 0.387320 0.623230 -0.620651
O16   O     O_R   0.561570 0.489450 0.623220 -0.611848
O17   O     O_R   0.051050 0.909420 0.500010 -0.620339
O18   O     O_2   0.628931 0.355539 0.006420 -0.622495
O19   O     O_R   0.718559 0.268524 0.143699 -0.754600
O20   O     O_2   0.848343 0.223164 0.320622 -0.292890
O21   O     O_2   0.817873 0.196986 0.423009 -0.279522
O22   O     O_3   0.782851 0.335080 0.304848 -0.566351
O23   O     O_R   0.112670 0.938280 0.623210 -0.622639
O24   O     O_R   0.010540 0.938370 0.623230 -0.620281
O25   O     O_R   0.051080 0.090340 0.499970 -0.632534
O26   O     O_R   0.948950 0.090430 0.499990 -0.548308
O27   O     O_R   0.989460 0.061480 0.376770 -0.634920
O28   O     O_R   0.887330 0.061570 0.376790 -0.573934
O29   O     O_R   0.965150 0.625240 0.430430 -0.628336
S1    S     S_3+6 0.843816 0.248779 0.370834 0.038869
Zn1   Zn    Zn3+2 0.500050 0.431810 0.500010 0.972346
Zn2   Zn    Zn3+2 0.499950 0.568190 0.499990 0.968471
Zn3   Zn    Zn3+2 0.068190 0.999870 0.499990 0.965648
Zn4   Zn    Zn3+2 0.931810 0.999990 0.500010 1.047176
Zn5   Zn    Zn3+2 0.953560 0.546450 0.407100 0.969221
Zn6   Zn    Zn3+2 0.046440 0.453550 0.592900 0.960486

loop_
_geom_bond_atom_site_label_1
_geom_bond_atom_site_label_2
_ccdc_geom_bond_type
C28   O16   A    
O10   Zn1   S    
H20   O19   S    
C11   C18   S    
C25   O12   A    
C23   C45   S    
C35   C36   D    
C48   H16   S    
C12   C48   S    
C36   H6    S    
C39   C41   D    
C4    C46   S    
C7    C11   S    
O15   Zn1   S    
O25   Zn3   S    
C35   H5    S    
C1    C5    S    
C29   O28   A    
C35   C37   S    
C20   C22   S    
O17   Zn3   S    
C49   O18   D    
C32   O7    A    
C40   C48   S    
O12   Zn4   S    
O27   Zn3   S    
C30   O2    A    
C26   O23   A    
C11   C15   S    
C9    C19   T    
C24   H4    S    
C40   H3    S    
C45   H14   S    
C17   H23   S    
C32   C41   S    
C29   O27   A    
O11   Zn2   S    
C44   H1    S    
C9    C29   S    
C4    O10   A    
O8    Zn5   S    
O3    Zn5   S    
C31   O5    A    
C13   C14   S    
C14   C17   S    
O21   S1    D    
C53   H17   S    
C26   O24   A    
C43   H11   S    
C39   C42   S    
C1    O4    A    
C34   C50   S    
C20   H27   S    
O9    Zn6   S    
C5    H12   S    
C7    H22   S    
C27   O25   A    
C7    C17   S    
C1    O1    A    
C32   O6    A    
C46   C51   T    
C10   C13   S    
C8    C18   T    
C31   O3    A    
C2    C31   S    
O1    Zn1   S    
C23   H15   S    
C47   C52   T    
C42   S1    S    
C37   C38   D    
C33   O8    A    
C25   C38   S    
C6    C14   S    
C27   O26   A    
C23   C34   S    
C50   H13   S    
O26   Zn4   S    
O6    Zn5   S    
C6    C7    S    
C26   C47   S    
O23   Zn3   S    
C30   O29   A    
C13   C15   S    
C8    C28   S    
C34   C40   S    
C42   C43   D    
C41   H10   S    
O16   Zn2   S    
C2    H18   S    
O29   Zn5   S    
C12   C51   S    
C44   C50   S    
C15   C17   S    
C39   H9    S    
C13   H25   S    
C16   O14   A    
C23   C48   S    
C34   C52   S    
C14   C19   S    
O24   Zn4   S    
C21   H28   S    
C12   C45   S    
C3    C5    D    
C2    C53   D    
C6    C10   S    
C10   H26   S    
C22   H2    S    
O22   S1    S    
O20   S1    D    
C16   O13   A    
C30   C36   S    
C28   O15   A    
C38   H8    S    
O4    Zn2   S    
C3    H19   S    
C12   C44   S    
C33   O9    A    
C49   O19   S    
C3    C53   S    
O2    Zn6   S    
C15   H24   S    
C45   C50   S    
O14   Zn2   S    
O13   Zn1   S    
O5    Zn6   S    
C22   C24   D    
C6    C49   S    
C37   H7    S    
C10   C11   S    
O28   Zn4   S    
C27   C43   S    
C25   O17   A    
C40   C44   S    
C21   C33   S    
C20   C21   D    
C16   C24   S    
O7    Zn6   S    
H21   O22   S    
C4    O11   A    
