data_mof_unit_16490.cif
_audit_creation_date              2012-12-10T20:36:39-0500
_audit_creation_method            fapswitch 2.2
_symmetry_space_group_name_H-M    P1
_symmetry_Int_Tables_number       1
_space_group_crystal_system       triclinic
_cell_length_a                    10.680301
_cell_length_b                    10.8697
_cell_length_c                    10.080976
_cell_angle_alpha                 95.474368
_cell_angle_beta                  92.587587
_cell_angle_gamma                 94.950383
_cell_volume                      1158.95143503

loop_
_atom_site_label
_atom_site_type_symbol
_atom_type_description
_atom_site_fract_x
_atom_site_fract_y
_atom_site_fract_z
_atom_type_partial_charge
C1    C     C_R   0.505189 0.260734 0.495529 0.904851
C2    C     C_R   0.576439 0.951449 0.594297 -0.030288
C3    C     C_3   0.603356 0.966824 0.741483 0.580999
C4    C     C_R   0.257931 0.504508 0.497982 0.894496
C5    C     C_3   0.604935 0.106790 0.735545 0.204629
C6    C     C_R   0.442850 0.400414 0.054441 -0.023775
C7    C     C_R   0.574183 0.585184 0.084738 0.355698
C8    C     C_R   0.575482 0.584055 0.941588 0.189999
C9    C     C_R   0.434041 0.410154 0.915735 0.004699
C10   C     C_3   0.299507 0.370542 0.890327 0.449896
C11   C     C_3   0.308356 0.334796 0.034003 0.340421
C12   C     C_3   0.966049 0.627349 0.489770 -0.326518
C13   C     C_R   0.497144 0.739317 0.504530 0.932714
C14   C     C_R   0.742450 0.504834 0.503106 0.966967
C15   C     C_3   0.033708 0.396042 0.513342 -0.275255
C16   C     C_3   0.944841 0.432531 0.401567 0.361510
C17   C     C_3   0.878324 0.510419 0.507174 -0.179711
C18   C     C_3   0.966522 0.475603 0.617674 0.476455
C19   C     C_3   0.056538 0.591185 0.601254 -0.169622
C20   C     C_3   0.785658 0.662467 0.897172 -0.501608
C21   C     C_3   0.155428 0.207815 0.750683 -0.598093
C22   C     C_3   0.090461 0.331597 0.096537 -0.440216
C23   C     C_3   0.033706 0.548377 0.385880 0.212297
C24   C     C_3   0.982555 0.642440 0.182357 -0.692931
C25   C     C_3   0.544885 0.108153 0.178609 -0.464309
C26   C     C_3   0.372218 0.820059 0.171940 -0.535457
C27   C     C_3   0.122559 0.511884 0.495383 -0.153004
C28   C     C_R   0.580653 0.077044 0.589209 -0.024592
C29   C     C_R   0.517426 0.128615 0.487721 -0.175314
C30   C     C_R   0.461435 0.046694 0.381515 0.078181
C31   C     C_R   0.437914 0.920340 0.396588 0.192833
C32   C     C_R   0.494324 0.871826 0.507795 -0.147277
Cl1   Cl    Cl    0.858243 0.319435 0.283966 -0.630793
Cl2   Cl    Cl    0.753875 0.915185 0.779667 -0.575676
Cl3   Cl    Cl    0.752281 0.193291 0.775565 -0.451990
Cl4   Cl    Cl    0.674166 0.696429 0.186752 -0.658120
Cl5   Cl    Cl    0.213534 0.502755 0.869029 -0.627139
Cl6   Cl    Cl    0.299750 0.169058 0.030408 -0.694340
Cl7   Cl    Cl    0.922344 0.435129 0.775373 -0.573251
Cl8   Cl    Cl    0.475104 0.906030 0.831450 -0.659579
H1    H     H_    0.527951 0.148027 0.787609 0.120122
H2    H     H_    0.132483 0.140160 0.823364 0.286456
H3    H     H_    0.152478 0.155543 0.650309 0.209278
H4    H     H_    0.083843 0.273897 0.750478 0.302449
H5    H     H_    0.227679 0.483637 0.132669 0.256026
H6    H     H_    0.022944 0.401483 0.113834 0.270560
H7    H     H_    0.074770 0.256622 0.162868 0.268023
H8    H     H_    0.070416 0.291723 0.991851 0.267056
H9    H     H_    0.157172 0.656198 0.282445 0.239557
H10   H     H_    0.021832 0.659659 0.085060 0.263853
H11   H     H_    0.953925 0.731057 0.230610 0.266723
H12   H     H_    0.062435 0.301053 0.518126 0.178326
H13   H     H_    0.899438 0.573315 0.164047 0.295100
H14   H     H_    0.375543 0.157741 0.263792 0.288117
H15   H     H_    0.526505 0.057631 0.078101 0.276628
H16   H     H_    0.630333 0.073586 0.224249 0.243857
H17   H     H_    0.565607 0.208220 0.167195 0.260086
H18   H     H_    0.254784 0.870344 0.323815 0.215197
H19   H     H_    0.316863 0.876454 0.108724 0.273661
H20   H     H_    0.345257 0.720481 0.139669 0.222891
H21   H     H_    0.473599 0.840797 0.156019 0.276303
H22   H     H_    0.104065 0.657082 0.682654 0.227975
H23   H     H_    0.935186 0.721263 0.480620 0.208651
H24   H     H_    0.633813 0.762591 0.928975 0.301190
H25   H     H_    0.836653 0.742744 0.959555 0.249069
H26   H     H_    0.822763 0.660179 0.796200 0.274171
H27   H     H_    0.805570 0.577588 0.944204 0.255430
H28   H     H_    0.348136 0.211777 0.770903 0.243091
N1    N     N_R   0.499140 0.499140 0.142800 -0.144517
N2    N     N_R   0.499140 0.499180 0.857150 -0.094410
N3    N     N_2   0.652097 0.676563 0.887132 -0.243129
N4    N     N_2   0.279355 0.271671 0.780157 -0.279955
N5    N     N_2   0.218424 0.388205 0.120036 -0.296193
N6    N     N_2   0.077229 0.595711 0.265551 -0.325279
N7    N     N_2   0.434826 0.088293 0.256901 -0.281832
N8    N     N_2   0.344931 0.845885 0.310846 -0.327277
O1    O     O_R   0.500020 0.316790 0.614690 -0.620041
O2    O     O_R   0.500000 0.316760 0.385350 -0.617689
O3    O     O_R   0.313960 0.499990 0.614650 -0.546348
O4    O     O_R   0.313940 0.499950 0.385310 -0.639318
O5    O     O_R   0.500000 0.683240 0.614650 -0.571892
O6    O     O_R   0.499980 0.683210 0.385310 -0.564070
O7    O     O_R   0.686060 0.500050 0.614690 -0.577707
O8    O     O_R   0.686040 0.500010 0.385350 -0.542024
Zn1   Zn    Zn3+2 0.500010 0.500020 0.653130 1.069390
Zn2   Zn    Zn3+2 0.499990 0.499980 0.346870 1.024658

loop_
_geom_bond_atom_site_label_1
_geom_bond_atom_site_label_2
_ccdc_geom_bond_type
C15   C18   S    
C22   H8    S    
C6    N1    A    
C1    O1    A    
C7    Cl4   S    
C13   C32   S    
C25   H16   S    
C14   O8    A    
C6    C9    A    
H18   N8    S    
C7    C8    A    
C12   C23   S    
C10   Cl5   S    
C2    C32   A    
C28   C29   A    
C26   H21   S    
O8    Zn2   S    
C4    O4    A    
C30   C31   A    
C19   H22   S    
C15   C16   S    
C21   H4    S    
C13   O5    A    
H5    N5    S    
C18   C19   S    
H24   N3    S    
O4    Zn2   S    
C20   H27   S    
C21   H3    S    
C16   C17   S    
C12   C17   S    
C26   N8    S    
C20   N3    S    
C23   C27   S    
C19   C27   S    
C9    C10   S    
O2    Zn2   S    
C24   H11   S    
C22   H7    S    
O1    Zn1   S    
C1    O2    A    
C14   C17   S    
C25   H17   S    
C14   O7    A    
C24   H10   S    
C21   N4    S    
C20   H25   S    
C9    N2    A    
C4    O3    A    
C11   N5    S    
C6    C11   S    
C12   H23   S    
C3    Cl2   S    
C24   H13   S    
O6    Zn2   S    
C13   O6    A    
C21   H2    S    
C25   N7    S    
C11   Cl6   S    
C18   Cl7   S    
C29   C30   A    
C16   Cl1   S    
C5    C28   S    
C15   C27   S    
C31   C32   A    
H28   N4    S    
C1    C29   S    
C17   C18   S    
C15   H12   S    
C22   H6    S    
C3    Cl8   S    
C16   C23   S    
C23   N6    S    
O3    Zn1   S    
C4    C27   S    
C26   H19   S    
C20   H26   S    
C5    H1    S    
C8    N3    S    
O7    Zn1   S    
C25   H15   S    
C3    C5    S    
C7    N1    A    
C8    N2    A    
C2    C3    S    
C30   N7    S    
C24   N6    S    
C31   N8    S    
C5    Cl3   S    
C12   C19   S    
C10   C11   S    
H14   N7    S    
H9    N6    S    
C2    C28   A    
C22   N5    S    
N2    Zn1   S    
C26   H20   S    
O5    Zn1   S    
N1    Zn2   S    
C10   N4    S    
