data_mof_unit_11866.cif
_audit_creation_date              2012-10-26T19:42:43-0400
_audit_creation_method            fapswitch 2.2
_symmetry_space_group_name_H-M    P1
_symmetry_Int_Tables_number       1
_space_group_crystal_system       triclinic
_cell_length_a                    19.319351
_cell_length_b                    10.857366
_cell_length_c                    9.590587
_cell_angle_alpha                 88.173009
_cell_angle_beta                  89.829044
_cell_angle_gamma                 93.076682
_cell_volume                      2007.75225023

loop_
_atom_site_label
_atom_site_type_symbol
_atom_type_description
_atom_site_fract_x
_atom_site_fract_y
_atom_site_fract_z
_atom_type_partial_charge
C1    C     C_R   0.501628 0.261785 0.503394 0.550709
C2    C     C_R   0.854602 0.535703 0.499844 0.013225
C3    C     C_R   0.475743 0.097595 0.768944 -0.081009
C4    C     C_R   0.367556 0.501592 0.499955 0.542264
C5    C     C_R   0.443710 0.025017 0.877591 0.064682
C6    C     C_R   0.412866 0.909868 0.847770 -0.135856
C7    C     C_R   0.422381 0.861019 0.717579 -0.122812
C8    C     C_R   0.462707 0.927130 0.614120 0.022219
C9    C     C_R   0.480045 0.053306 0.631626 -0.007724
C10   C     C_R   0.502892 0.126391 0.511672 -0.018433
C11   C     C_R   0.521490 0.067805 0.390021 -0.151612
C12   C     C_R   0.291738 0.507802 0.498876 0.012843
C13   C     C_R   0.516652 0.940608 0.383991 -0.144739
C14   C     C_R   0.488189 0.869554 0.495903 0.006831
C15   C     C_R   0.592064 0.664693 0.138542 -0.079205
C16   C     C_R   0.495238 0.736626 0.498134 0.528328
C17   C     C_R   0.637601 0.745080 0.063692 -0.149097
C18   C     C_R   0.638298 0.744563 0.920020 -0.142753
C19   C     C_R   0.593315 0.663941 0.850361 -0.081385
C20   C     C_R   0.545875 0.580319 0.922353 0.114114
C21   C     C_R   0.545550 0.580567 0.071893 0.136105
C22   C     C_R   0.455292 0.425893 0.077586 0.051543
C23   C     C_R   0.931022 0.533759 0.499255 0.371058
C24   C     C_R   0.454043 0.426647 0.928696 0.388128
C25   C     C_R   0.632534 0.502140 0.499783 0.532387
C26   C     C_R   0.256596 0.545408 0.617118 -0.151103
C27   C     C_R   0.184649 0.549262 0.616799 -0.117534
C28   C     C_R   0.146817 0.519053 0.496801 0.039148
C29   C     C_R   0.182052 0.484959 0.377040 -0.115007
C30   C     C_R   0.253950 0.478704 0.378302 -0.126386
C31   C     C_2   0.442996 0.067971 0.022537 0.551001
C32   C     C_3   0.339187 0.362854 0.892800 -0.009184
C33   C     C_3   0.306165 0.248606 0.969562 -0.266230
C34   C     C_R   0.070929 0.523226 0.497084 0.339104
C35   C     C_3   0.229214 0.262995 0.996956 -0.471380
C36   C     C_2   0.849836 0.631674 0.738843 0.586714
C37   C     C_R   0.816638 0.570697 0.617861 0.055996
C38   C     C_R   0.744191 0.554564 0.617555 -0.135842
C39   C     C_R   0.708715 0.511629 0.499855 -0.015841
C40   C     C_R   0.746298 0.483358 0.381213 -0.132350
C41   C     C_R   0.818438 0.494069 0.381771 -0.130764
Cu1   Cu    Cu3+1 0.500000 0.499990 0.640660 0.971285
Cu2   Cu    Cu3+1 0.500000 0.500010 0.359340 0.943480
H1    H     H_    0.284709 0.572826 0.709592 0.108508
H2    H     H_    0.598118 0.671897 0.740197 0.177942
H3    H     H_    0.158715 0.577800 0.709740 0.139192
H4    H     H_    0.153959 0.461135 0.283254 0.132149
H5    H     H_    0.279873 0.450299 0.285257 0.118429
H6    H     H_    0.715210 0.580773 0.707727 0.147916
H7    H     H_    0.719984 0.450835 0.288717 0.152473
H8    H     H_    0.846071 0.467127 0.290136 0.159821
H9    H     H_    0.541854 0.120621 0.299977 0.189075
H10   H     H_    0.400789 0.049180 0.215400 0.338473
H11   H     H_    0.311271 0.373463 0.792897 0.171556
H12   H     H_    0.500976 0.183709 0.797163 0.205776
H13   H     H_    0.330832 0.447439 0.952697 0.089727
H14   H     H_    0.312055 0.166329 0.905416 0.192263
H15   H     H_    0.332234 0.233087 0.070857 0.176952
H16   H     H_    0.221970 0.344085 0.062213 0.142138
H17   H     H_    0.206782 0.179114 0.053165 0.169989
H18   H     H_    0.201144 0.275107 0.896909 0.162546
H19   H     H_    0.922983 0.754277 0.808202 0.349975
H20   H     H_    0.384805 0.854231 0.927263 0.157477
H21   H     H_    0.398986 0.770134 0.699595 0.143428
H22   H     H_    0.535997 0.897849 0.292131 0.147515
H23   H     H_    0.420052 0.364309 0.137368 0.137788
H24   H     H_    0.595343 0.672960 0.248272 0.179461
H25   H     H_    0.672548 0.808367 0.117854 0.132198
H26   H     H_    0.673905 0.807309 0.861721 0.136194
N1    N     N_R   0.035814 0.540966 0.376384 -0.219995
N2    N     N_R   0.967146 0.546159 0.377479 -0.216446
N3    N     N_R   0.966153 0.513247 0.619334 -0.172275
N4    N     N_R   0.034800 0.509137 0.618503 -0.218383
N5    N     N_R   0.500660 0.501210 0.147910 -0.275363
N6    N     N_R   0.500680 0.501290 0.852040 -0.240213
O1    O     O_R   0.499990 0.319640 0.618810 -0.474389
O2    O     O_R   0.398210 0.008948 0.121513 -0.722610
O3    O     O_3   0.409481 0.345130 0.859728 -0.541913
O4    O     O_2   0.826845 0.609801 0.856541 -0.516708
O5    O     O_R   0.905400 0.718304 0.717859 -0.669023
O6    O     O_R   0.500000 0.319660 0.381240 -0.488012
O7    O     O_R   0.400140 0.499970 0.618820 -0.482820
O8    O     O_R   0.400150 0.500000 0.381250 -0.508639
O9    O     O_R   0.500000 0.680340 0.618760 -0.535807
O10   O     O_R   0.500010 0.680360 0.381190 -0.520937
O11   O     O_R   0.599850 0.500000 0.618750 -0.520723
O12   O     O_R   0.599860 0.500030 0.381180 -0.516890
O13   O     O_2   0.481817 0.154380 0.056288 -0.552737

loop_
_geom_bond_atom_site_label_1
_geom_bond_atom_site_label_2
_ccdc_geom_bond_type
C33   H15   S    
Cu2   O8    S    
C19   C20   A    
Cu1   O7    S    
C25   O12   A    
C26   H1    S    
C7    C8    A    
C38   H6    S    
C13   H22   S    
Cu1   N6    S    
C37   C38   A    
C29   H4    S    
H19   O5    S    
C36   C37   S    
C5    C6    A    
C2    C41   A    
C1    O6    A    
C16   O9    A    
C35   H16   S    
C18   C19   A    
C22   H23   S    
C11   H9    S    
C3    H12   S    
C8    C9    A    
C8    C14   A    
N1    N2    A    
Cu1   O11   S    
C4    C12   S    
C9    C10   A    
C34   N1    A    
Cu2   N5    S    
C28   C34   S    
C13   C14   A    
C32   H11   S    
C31   O2    S    
Cu2   O10   S    
C23   N2    A    
Cu1   O9    S    
C36   O5    S    
C39   C40   A    
C21   N5    A    
C20   N6    A    
C12   C26   A    
C35   H17   S    
C6    H20   S    
H10   O2    S    
C29   C30   A    
C3    C9    A    
C15   H24   S    
C17   C18   A    
C26   C27   A    
C35   H18   S    
C27   H3    S    
C24   O3    S    
C40   C41   A    
C16   O10   A    
Cu2   O6    S    
C14   C16   S    
Cu1   Cu2   S    
C22   N5    A    
C2    C23   S    
C30   H5    S    
C15   C17   A    
C28   C29   A    
C17   H25   S    
C33   H14   S    
C31   O13   D    
C12   C30   A    
C1    O1    A    
C23   N3    A    
C1    C10   S    
N3    N4    A    
C3    C5    A    
C36   O4    D    
C19   H2    S    
C24   N6    A    
C6    C7    A    
Cu1   O1    S    
Cu2   O12   S    
C32   C33   S    
C25   C39   S    
C11   C13   A    
C2    C37   A    
C38   C39   A    
C4    O8    A    
C18   H26   S    
C40   H7    S    
C25   O11   A    
C33   C35   S    
C41   H8    S    
C22   C24   A    
C7    H21   S    
C10   C11   A    
C34   N4    A    
C32   O3    S    
C15   C21   A    
C4    O7    A    
C20   C21   A    
C27   C28   A    
C32   H13   S    
C5    C31   S    
