data_mof_unit_48940.cif
_audit_creation_date              2012-12-10T18:05:59-0500
_audit_creation_method            fapswitch 2.2
_symmetry_space_group_name_H-M    P1
_symmetry_Int_Tables_number       1
_space_group_crystal_system       triclinic
_cell_length_a                    12.596531
_cell_length_b                    13.202551
_cell_length_c                    14.960222
_cell_angle_alpha                 90.621605
_cell_angle_beta                  102.531943
_cell_angle_gamma                 82.378057
_cell_volume                      2406.8326925

loop_
_atom_site_label
_atom_site_type_symbol
_atom_type_description
_atom_site_fract_x
_atom_site_fract_y
_atom_site_fract_z
_atom_type_partial_charge
C1    C     C_R   0.438951 0.691158 0.491392 0.863796
C2    C     C_R   0.560191 0.556764 0.826395 -0.272115
C3    C     C_R   0.505835 0.487625 0.769457 -0.108044
C4    C     C_R   0.501862 0.496583 0.672966 0.879356
C5    C     C_R   0.454822 0.412271 0.803810 -0.072887
C6    C     C_R   0.714867 0.060709 0.609343 -0.194662
C7    C     C_R   0.597996 0.200603 0.521852 -0.056663
C8    C     C_R   0.311246 0.829688 0.404432 -0.255937
C9    C     C_R   0.302354 0.921891 0.357776 0.012637
C10   C     C_R   0.384686 0.985735 0.382878 -0.043748
C11   C     C_R   0.466146 0.964740 0.466313 0.014397
C12   C     C_R   0.442180 0.424903 0.083793 0.099785
C13   C     C_R   0.473208 0.870536 0.512611 0.090850
C14   C     C_R   0.543205 0.031404 0.504752 0.087573
C15   C     C_R   0.635055 0.996811 0.576087 0.183417
C16   C     C_R   0.561033 0.309124 0.510455 0.865168
C17   C     C_R   0.640022 0.903439 0.619512 -0.247375
C18   C     C_R   0.555598 0.845061 0.592621 -0.182099
C19   C     C_R   0.523820 0.135012 0.482958 -0.231845
C20   C     C_R   0.697117 0.162702 0.580889 -0.190078
C21   C     C_R   0.401938 0.800077 0.475428 -0.130848
C22   C     C_R   0.089448 0.344728 0.373296 -0.081857
C23   C     C_R   0.618870 0.626196 0.067974 -0.208435
C24   C     C_R   0.800290 0.629402 0.608557 0.029934
C25   C     C_R   0.904934 0.657745 0.630225 -0.244549
C26   C     C_R   0.985967 0.608708 0.588737 -0.183795
C27   C     C_R   0.962551 0.530152 0.525229 0.027953
C28   C     C_R   0.499355 0.499833 0.327166 0.884151
C29   C     C_R   0.854468 0.504210 0.505757 0.229525
C30   C     C_R   0.041556 0.476585 0.480609 -0.025278
C31   C     C_R   0.011281 0.398054 0.417654 0.126832
C32   C     C_R   0.903989 0.374360 0.400695 -0.263419
C33   C     C_R   0.827547 0.426418 0.444142 -0.202641
C34   C     C_R   0.618715 0.624574 0.975377 -0.206482
C35   C     C_R   0.150284 0.497674 0.496151 -0.045319
C36   C     C_R   0.195331 0.370116 0.392294 -0.025979
C37   C     C_R   0.439913 0.429789 0.175941 -0.239154
C38   C     C_R   0.498845 0.497800 0.231474 -0.069178
C39   C     C_R   0.559355 0.562365 0.196276 -0.248378
C40   C     C_R   0.560577 0.559901 0.104000 0.121465
C41   C     C_R   0.502150 0.490263 0.047133 0.068499
C42   C     C_1   0.392849 0.060719 0.315216 0.142833
C43   C     C_1   0.213974 0.944111 0.278037 0.186379
C44   C     C_1   0.064153 0.264305 0.308938 0.141269
C45   C     C_R   0.561617 0.555613 0.918601 0.134801
C46   C     C_1   0.420562 0.329451 0.744297 0.201980
C47   C     C_1   0.316322 0.281673 0.883526 0.182228
C48   C     C_R   0.503540 0.486598 0.954007 0.032919
C49   C     C_R   0.447163 0.414779 0.896768 0.013063
C50   C     C_R   0.385568 0.350405 0.935563 -0.016144
C51   C     C_R   0.384552 0.356234 0.028322 -0.244471
H1    H     H_    0.394220 0.379422 0.204970 0.160254
H2    H     H_    0.923210 0.717579 0.678990 0.148902
H3    H     H_    0.747632 0.403596 0.428191 0.216185
H4    H     H_    0.663634 0.679811 0.111206 0.153461
H5    H     H_    0.663223 0.677304 0.948048 0.147685
H6    H     H_    0.600510 0.612730 0.798288 0.148117
H7    H     H_    0.337316 0.307424 0.057476 0.162857
H8    H     H_    0.755328 0.213401 0.611506 0.165272
H9    H     H_    0.556963 0.777666 0.633675 0.142384
H10   H     H_    0.878020 0.315007 0.353629 0.171358
H11   H     H_    0.737088 0.666878 0.640762 0.127061
H12   H     H_    0.705525 0.878502 0.677983 0.137156
H13   H     H_    0.786863 0.033765 0.661699 0.142156
H14   H     H_    0.444908 0.168034 0.443728 0.166935
H15   H     H_    0.254528 0.775884 0.378016 0.172187
H16   H     H_    0.257386 0.330429 0.359735 0.138510
H17   H     H_    0.604151 0.615301 0.240563 0.162084
H18   H     H_    0.180917 0.555119 0.542628 0.131597
H19   H     H_    0.065580 0.633855 0.607988 0.140041
N1    N     N_R   0.222190 0.444670 0.452360 -0.110537
N2    N     N_R   0.776970 0.554790 0.547140 -0.131271
N3    N     N_1   0.399092 0.120215 0.260938 -0.214367
N4    N     N_1   0.143305 0.961765 0.214219 -0.179391
N5    N     N_1   0.043989 0.199946 0.257397 -0.177971
N6    N     N_1   0.394142 0.263761 0.696143 -0.173660
N7    N     N_1   0.260316 0.226542 0.842692 -0.184952
O1    O     O_R   0.366740 0.627160 0.477250 -0.616803
O2    O     O_R   0.544830 0.662520 0.507680 -0.612796
O3    O     O_R   0.410940 0.482340 0.616930 -0.611372
O4    O     O_R   0.589030 0.517700 0.647360 -0.627360
O5    O     O_R   0.455170 0.337480 0.492320 -0.612293
O6    O     O_R   0.633260 0.372840 0.522750 -0.642689
O7    O     O_R   0.410970 0.482300 0.352640 -0.619020
O8    O     O_R   0.589060 0.517660 0.383070 -0.637254
Zn1   Zn    Zn3+2 0.381090 0.476390 0.479680 0.954348
Zn2   Zn    Zn3+2 0.618910 0.523610 0.520320 0.933754

loop_
_geom_bond_atom_site_label_1
_geom_bond_atom_site_label_2
_ccdc_geom_bond_type
O6    Zn2   S    
C34   H5    S    
C27   C29   A    
C39   H17   S    
N2    Zn2   S    
C46   N6    T    
C2    H6    S    
C1    C21   S    
C26   C27   A    
C37   C38   A    
C13   C18   A    
C25   H2    S    
C32   H10   S    
C4    O3    A    
C30   C31   A    
C11   C14   A    
C28   O7    A    
C23   C40   A    
C29   C33   A    
C6    H13   S    
C12   C37   A    
O3    Zn1   S    
C6    C15   A    
C22   C44   S    
C4    O4    A    
C8    C9    A    
C8    H15   S    
C9    C10   A    
C36   N1    A    
C29   N2    A    
O1    Zn1   S    
C43   N4    T    
C35   N1    A    
C27   C30   A    
C1    O1    A    
C5    C49   A    
C36   H16   S    
O2    Zn2   S    
C50   C51   A    
C47   C50   S    
O8    Zn2   S    
C2    C45   A    
C9    C43   S    
C22   C31   A    
C24   C25   A    
C39   C40   A    
C51   H7    S    
C37   H1    S    
C25   C26   A    
O5    Zn1   S    
C16   O6    A    
C44   N5    T    
C12   C41   A    
N1    Zn1   S    
C31   C32   A    
C28   C38   S    
C23   C34   A    
C16   O5    A    
C17   C18   A    
C13   C21   A    
C34   C45   A    
C20   H8    S    
C10   C42   S    
O4    Zn2   S    
C30   C35   A    
C18   H9    S    
C48   C49   A    
C49   C50   A    
C7    C19   A    
C1    O2    A    
C47   N7    T    
C3    C4    S    
C12   C51   A    
C6    C20   A    
C24   N2    A    
C45   C48   A    
C33   H3    S    
C15   C17   A    
C7    C16   S    
C42   N3    T    
C24   H11   S    
C14   C19   A    
O7    Zn1   S    
C3    C5    A    
C8    C21   A    
C23   H4    S    
C22   C36   A    
C5    C46   S    
C32   C33   A    
C2    C3    A    
C17   H12   S    
C11   C13   A    
C38   C39   A    
C26   H19   S    
C41   C48   A    
C19   H14   S    
C10   C11   A    
C35   H18   S    
C7    C20   A    
C28   O8    A    
C14   C15   A    
C40   C41   A    
