data_mof_unit_38847.cif
_audit_creation_date              2012-12-10T19:24:10-0500
_audit_creation_method            fapswitch 2.2
_symmetry_space_group_name_H-M    P1
_symmetry_Int_Tables_number       1
_space_group_crystal_system       triclinic
_cell_length_a                    10.469181
_cell_length_b                    10.49488
_cell_length_c                    9.784682
_cell_angle_alpha                 89.555855
_cell_angle_beta                  90.16449
_cell_angle_gamma                 90.513238
_cell_volume                      1074.99074193

loop_
_atom_site_label
_atom_site_type_symbol
_atom_type_description
_atom_site_fract_x
_atom_site_fract_y
_atom_site_fract_z
_atom_type_partial_charge
C1    C     C_R   0.498494 0.257794 0.500459 0.883626
C2    C     C_3   0.616165 0.499107 0.049022 -0.258355
C3    C     C_R   0.257610 0.499446 0.499602 0.842013
C4    C     C_R   0.742376 0.500041 0.500399 0.870185
C5    C     C_3   0.041366 0.392561 0.562419 -0.182462
C6    C     C_3   0.958606 0.605782 0.437448 -0.151381
C7    C     C_3   0.955946 0.396009 0.433552 -0.195687
C8    C     C_3   0.043908 0.602405 0.566371 -0.171406
C9    C     C_3   0.877513 0.499647 0.501397 0.033294
C10   C     C_3   0.122446 0.498831 0.498542 0.032008
C11   C     C_3   0.960129 0.496198 0.630503 -0.136678
C12   C     C_R   0.500431 0.742177 0.499497 0.931813
C13   C     C_3   0.039818 0.502143 0.369407 -0.144245
C14   C     C_3   0.533349 0.040157 0.625810 -0.299962
C15   C     C_3   0.462769 0.958410 0.373664 -0.284851
C16   C     C_3   0.614696 0.960822 0.528253 0.547243
C17   C     C_3   0.382023 0.039268 0.470442 0.556302
C18   C     C_3   0.498982 0.876866 0.498281 -0.088999
C19   C     C_3   0.497650 0.123026 0.501248 -0.134325
C20   C     C_3   0.823501 0.009394 0.582113 0.088478
C21   C     C_3   0.956398 0.954765 0.601837 -0.806687
C22   C     C_3   0.244181 0.149986 0.325836 0.108837
C23   C     C_3   0.415374 0.954970 0.594300 -0.261884
C24   C     C_3   0.119714 0.113474 0.255302 -0.872508
C25   C     C_3   0.650229 0.208623 0.998080 -0.399312
C26   C     C_3   0.348684 0.790906 0.002017 -0.391259
C27   C     C_3   0.580990 0.044306 0.403937 -0.343444
C28   C     C_3   0.439666 0.400416 0.049595 -0.261069
C29   C     C_3   0.560304 0.599620 0.950396 -0.259453
C30   C     C_3   0.554755 0.401361 0.953848 0.697031
C31   C     C_3   0.445211 0.598644 0.046162 0.692794
C32   C     C_3   0.383823 0.500903 0.950972 -0.260165
H1    H     H_    0.913777 0.312877 0.379813 0.124266
H2    H     H_    0.648657 0.084605 0.327474 0.154124
H3    H     H_    0.389362 0.317395 0.096141 0.131268
H4    H     H_    0.610360 0.682801 0.903677 0.156028
H5    H     H_    0.286722 0.502771 0.905140 0.150625
H6    H     H_    0.713262 0.497122 0.094859 0.151793
H7    H     H_    0.797129 0.060904 0.676835 0.150332
H8    H     H_    0.827655 0.078078 0.494853 0.130865
H9    H     H_    0.986932 0.905405 0.507561 0.263707
H10   H     H_    0.025509 0.032897 0.623906 0.232345
H11   H     H_    0.956362 0.886050 0.688738 0.243526
H12   H     H_    0.085355 0.685840 0.620288 0.134034
H13   H     H_    0.323374 0.135178 0.251906 0.125554
H14   H     H_    0.241235 0.252792 0.350884 0.169559
H15   H     H_    0.038268 0.125362 0.326302 0.258511
H16   H     H_    0.104973 0.175060 0.163908 0.207879
H17   H     H_    0.123180 0.012405 0.222778 0.255910
H18   H     H_    0.564301 0.166089 0.047764 0.167737
H19   H     H_    0.713914 0.253360 0.075671 0.167162
H20   H     H_    0.703915 0.129797 0.950744 0.191262
H21   H     H_    0.284258 0.745773 0.925407 0.165323
H22   H     H_    0.434051 0.833293 0.951139 0.169821
H23   H     H_    0.080109 0.305757 0.612529 0.151734
H24   H     H_    0.295423 0.869917 0.049577 0.192356
H25   H     H_    0.919696 0.692252 0.386853 0.154609
H26   H     H_    0.923474 0.493851 0.736891 0.152555
H27   H     H_    0.076535 0.504247 0.263044 0.152223
H28   H     H_    0.562332 0.075913 0.727809 0.194221
H29   H     H_    0.432902 0.921773 0.272315 0.199173
H30   H     H_    0.346524 0.914606 0.669529 0.153396
N1    N     N_3   0.499910 0.500030 0.863290 -0.114499
N2    N     N_3   0.500090 0.499970 0.136710 -0.113248
O1    O     O_R   0.500010 0.313960 0.616610 -0.570720
O2    O     O_3   0.255163 0.079164 0.448599 -0.635518
O3    O     O_3   0.615592 0.295952 0.894649 -0.597213
O4    O     O_3   0.384412 0.704039 0.105450 -0.591472
O5    O     O_R   0.499990 0.686040 0.383390 -0.575001
O6    O     O_R   0.500060 0.313950 0.383350 -0.652475
O7    O     O_R   0.499940 0.686050 0.616650 -0.629579
O8    O     O_R   0.313930 0.499970 0.616610 -0.631023
O9    O     O_R   0.686070 0.500030 0.383390 -0.632423
O10   O     O_R   0.313980 0.499960 0.383350 -0.616780
O11   O     O_R   0.686020 0.500040 0.616650 -0.601194
O12   O     O_3   0.736043 0.909190 0.556448 -0.623669
Zn1   Zn    Zn3+2 0.499970 0.500010 0.655740 0.984110
Zn2   Zn    Zn3+2 0.500030 0.499990 0.344260 0.969311

loop_
_geom_bond_atom_site_label_1
_geom_bond_atom_site_label_2
_ccdc_geom_bond_type
C15   C18   S    
C12   O5    A    
C29   N1    S    
O6    Zn2   S    
C25   O3    S    
C31   N2    S    
C6    C9    S    
C29   H4    S    
C17   O2    S    
C17   C23   S    
C2    C29   S    
C5    C11   S    
C20   H8    S    
C20   O12   S    
C15   C17   S    
C3    O10   A    
C25   H18   S    
C22   O2    S    
C4    O11   A    
C21   H11   S    
C23   H30   S    
C28   H3    S    
C1    O1    A    
O9    Zn2   S    
C11   H26   S    
C19   C27   S    
C30   O3    S    
C16   C27   S    
C30   N1    S    
C7    H1    S    
C6    H25   S    
O5    Zn2   S    
C26   H22   S    
C2    N2    S    
C27   H2    S    
C31   O4    S    
C1    C19   S    
O1    Zn1   S    
C18   C23   S    
C24   H16   S    
C28   C32   S    
C5    C7    S    
C20   H7    S    
C6    C8    S    
C14   C23   S    
C25   H19   S    
O8    Zn1   S    
O11   Zn1   S    
C2    H6    S    
C15   C27   S    
C31   C32   S    
C15   H29   S    
C32   H5    S    
C9    C11   S    
C4    O9    A    
C21   H9    S    
C28   N2    S    
C16   C18   S    
C22   H14   S    
C12   O7    A    
C22   C24   S    
C26   H21   S    
O7    Zn1   S    
N1    Zn1   S    
C24   H17   S    
C7    C9    S    
C16   O12   S    
C24   H15   S    
N2    Zn2   S    
C14   C19   S    
C5    H23   S    
C8    H12   S    
C32   N1    S    
C10   C13   S    
C26   H24   S    
C13   H27   S    
C14   H28   S    
C1    O6    A    
C2    C30   S    
C26   O4    S    
C28   C30   S    
C3    O8    A    
C25   H20   S    
C5    C10   S    
C29   C31   S    
C3    C10   S    
C6    C13   S    
C8    C11   S    
C17   C19   S    
C14   C16   S    
C21   H10   S    
C7    C13   S    
C22   H13   S    
C20   C21   S    
C8    C10   S    
O10   Zn2   S    
C12   C18   S    
C4    C9    S    
