data_mof_unit_5822.cif
_audit_creation_date              2012-12-10T17:31:27-0500
_audit_creation_method            fapswitch 2.2
_symmetry_space_group_name_H-M    P1
_symmetry_Int_Tables_number       1
_space_group_crystal_system       triclinic
_cell_length_a                    19.051139
_cell_length_b                    18.461787
_cell_length_c                    12.359524
_cell_angle_alpha                 89.99982
_cell_angle_beta                  129.193029
_cell_angle_gamma                 90.000136
_cell_volume                      3369.07058721

loop_
_atom_site_label
_atom_site_type_symbol
_atom_type_description
_atom_site_fract_x
_atom_site_fract_y
_atom_site_fract_z
_atom_type_partial_charge
C1    C     C_R   0.613039 0.898892 0.653997 0.772495
C2    C     C_R   0.613040 0.101107 0.653999 0.772496
C3    C     C_R   0.113038 0.398892 0.653996 0.772494
C4    C     C_R   0.113041 0.601106 0.653999 0.772495
C5    C     C_R   0.245043 0.776283 0.038343 0.074616
C6    C     C_R   0.245029 0.223702 0.038321 0.074615
C7    C     C_R   0.745040 0.276286 0.038339 0.074617
C8    C     C_R   0.745033 0.723707 0.038328 0.074617
C9    C     C_R   0.661723 0.278335 0.014745 0.166934
C10   C     C_R   0.661720 0.721664 0.014747 0.166934
C11   C     C_R   0.161725 0.778334 0.014747 0.166934
C12   C     C_R   0.161717 0.221663 0.014746 0.166935
C13   C     C_R   0.584683 0.246712 0.895522 -0.244177
C14   C     C_R   0.584679 0.753291 0.895530 -0.244183
C15   C     C_R   0.084684 0.746712 0.895523 -0.244175
C16   C     C_R   0.084677 0.253293 0.895532 -0.244184
C17   C     C_R   0.589757 0.210401 0.802662 -0.198295
C18   C     C_R   0.589751 0.789602 0.802666 -0.198296
C19   C     C_R   0.089759 0.710401 0.802663 -0.198292
C20   C     C_R   0.089748 0.289603 0.802667 -0.198295
C21   C     C_R   0.319830 0.811569 0.156668 -0.255410
C22   C     C_R   0.319819 0.188421 0.156647 -0.255410
C23   C     C_R   0.819827 0.311571 0.156664 -0.255410
C24   C     C_R   0.819821 0.688424 0.156653 -0.255412
C25   C     C_R   0.230196 0.851062 0.222381 -0.195551
C26   C     C_R   0.230197 0.148941 0.222389 -0.195552
C27   C     C_R   0.730195 0.351062 0.222380 -0.195552
C28   C     C_R   0.730197 0.648940 0.222387 -0.195551
C29   C     C_R   0.681185 0.156456 0.745242 -0.111706
C30   C     C_R   0.681178 0.843537 0.745232 -0.111704
C31   C     C_R   0.181188 0.656455 0.745244 -0.111709
C32   C     C_R   0.181174 0.343533 0.745227 -0.111706
C33   C     C_R   0.685401 0.000000 0.289288 -0.306594
C34   C     C_R   0.185401 0.500001 0.289288 -0.306594
C35   C     C_R   0.343778 0.000000 0.627906 0.078521
C36   C     C_R   0.843778 0.500000 0.627906 0.078521
C37   C     C_R   0.310023 0.000001 0.700273 -0.252984
C38   C     C_R   0.810023 0.500000 0.700273 -0.252984
C39   C     C_R   0.384468 0.098839 0.342815 0.794589
C40   C     C_R   0.384469 0.901161 0.342816 0.794587
C41   C     C_R   0.884468 0.598839 0.342815 0.794589
C42   C     C_R   0.884468 0.401161 0.342815 0.794587
C43   C     C_R   0.369205 0.000001 0.845951 -0.176273
C44   C     C_R   0.869205 0.500000 0.845951 -0.176272
C45   C     C_R   0.463829 0.000001 0.922226 -0.010060
C46   C     C_R   0.963829 0.500000 0.922226 -0.010060
C47   C     C_R   0.495073 0.000000 0.843246 0.248512
C48   C     C_R   0.995073 0.500000 0.843246 0.248511
C49   C     C_R   0.528150 0.000001 0.072958 -0.059748
C50   C     C_R   0.028150 0.500000 0.072958 -0.059748
C51   C     C_R   0.622697 0.000001 0.141722 0.124139
C52   C     C_R   0.122697 0.500001 0.141722 0.124139
C53   C     C_R   0.653174 0.000001 0.062818 0.031512
C54   C     C_R   0.153174 0.500002 0.062818 0.031512
C55   C     C_R   0.588817 0.000000 0.916740 -0.189682
C56   C     C_R   0.088817 0.500000 0.916740 -0.189682
C57   C     C_R   0.502701 0.000000 0.159552 0.030888
C58   C     C_R   0.002701 0.500000 0.159552 0.030889
C59   C     C_R   0.655757 1.000000 0.366912 0.077687
C60   C     C_R   0.155757 0.500000 0.366912 0.077686
C61   C     C_R   0.655600 0.314172 0.108603 -0.196244
C62   C     C_R   0.655601 0.685831 0.108613 -0.196245
C63   C     C_R   0.155602 0.814171 0.108604 -0.196244
C64   C     C_R   0.155601 0.185832 0.108615 -0.196244
C65   C     C_R   0.311567 0.851469 0.243711 -0.047767
C66   C     C_R   0.311563 0.148528 0.243706 -0.047771
C67   C     C_R   0.811565 0.351470 0.243709 -0.047768
C68   C     C_R   0.811564 0.648529 0.243707 -0.047771
C69   C     C_R   0.760739 0.157615 0.760813 -0.187304
C70   C     C_R   0.760725 0.842367 0.760787 -0.187308
C71   C     C_R   0.260743 0.657612 0.760818 -0.187302
C72   C     C_R   0.260719 0.342356 0.760772 -0.187306
C73   C     C_R   0.333568 0.699996 0.863049 -0.148861
C74   C     C_R   0.333530 0.299949 0.862969 -0.148855
C75   C     C_R   0.833561 0.200003 0.863040 -0.148864
C76   C     C_R   0.833540 0.799967 0.862995 -0.148861
C77   C     C_R   0.329657 0.739575 0.954722 -0.180858
C78   C     C_R   0.329620 0.260372 0.954644 -0.180866
C79   C     C_R   0.829651 0.239581 0.954711 -0.180861
C80   C     C_R   0.829630 0.760390 0.954669 -0.180864
C81   C     C_R   0.750449 0.239581 0.942653 0.081648
C82   C     C_R   0.750437 0.760406 0.942633 0.081646
C83   C     C_R   0.250453 0.739577 0.942659 0.081648
C84   C     C_R   0.250431 0.260398 0.942621 0.081644
C85   C     C_R   0.673168 0.201714 0.829481 0.074532
C86   C     C_R   0.673159 0.798280 0.829472 0.074536
C87   C     C_R   0.173171 0.701713 0.829483 0.074528
C88   C     C_R   0.173155 0.298277 0.829467 0.074537
Cu1   Cu    Cu3+1 0.526340 0.000000 0.421010 0.931202
Cu2   Cu    Cu3+1 0.026340 0.500000 0.421010 0.931202
Cu3   Cu    Cu3+1 0.473640 1.000000 0.578990 0.913914
Cu4   Cu    Cu3+1 0.973640 0.500000 0.578990 0.913914
H1    H     H_    0.222999 0.882035 0.289314 0.145067
H2    H     H_    0.223005 0.117973 0.289333 0.145069
H3    H     H_    0.722999 0.382034 0.289315 0.145067
H4    H     H_    0.723004 0.617971 0.289328 0.145069
H5    H     H_    0.757786 0.999999 0.346999 0.129606
H6    H     H_    0.257786 0.500001 0.346999 0.129606
H7    H     H_    0.432737 0.000001 0.115889 0.124389
H8    H     H_    0.932737 0.500000 0.115889 0.124389
H9    H     H_    0.297229 0.000000 0.514981 0.116295
H10   H     H_    0.797229 0.500000 0.514981 0.116295
H11   H     H_    0.338932 0.000002 0.895800 0.136097
H12   H     H_    0.838932 0.500001 0.895800 0.136097
H13   H     H_    0.237572 0.000001 0.643149 0.142471
H14   H     H_    0.737572 0.500000 0.643149 0.142471
H15   H     H_    0.613789 0.999999 0.861447 0.212391
H16   H     H_    0.113789 0.499999 0.861447 0.212391
H17   H     H_    0.519871 0.250561 0.873147 0.138388
H18   H     H_    0.519870 0.749448 0.873164 0.138401
H19   H     H_    0.019872 0.750562 0.873146 0.138391
H20   H     H_    0.019869 0.249453 0.873171 0.138399
H21   H     H_    0.592235 0.315816 0.091124 0.128635
H22   H     H_    0.592238 0.684191 0.091142 0.128625
H23   H     H_    0.092235 0.815816 0.091123 0.128631
H24   H     H_    0.092239 0.184194 0.091149 0.128626
H25   H     H_    0.385413 0.810695 0.182639 0.145495
H26   H     H_    0.385400 0.189296 0.182612 0.145499
H27   H     H_    0.885410 0.310698 0.182635 0.145496
H28   H     H_    0.885402 0.689297 0.182619 0.145499
H29   H     H_    0.767926 0.123748 0.696742 0.147659
H30   H     H_    0.767912 0.876231 0.696713 0.147662
H31   H     H_    0.267929 0.623745 0.696746 0.147658
H32   H     H_    0.267907 0.376219 0.696698 0.147663
H33   H     H_    0.389504 0.770288 0.032106 0.126863
H34   H     H_    0.389451 0.229634 0.031992 0.126873
H35   H     H_    0.889494 0.270297 0.032090 0.126865
H36   H     H_    0.889466 0.729661 0.032030 0.126871
H37   H     H_    0.394719 0.700386 0.874303 0.127826
H38   H     H_    0.394670 0.299538 0.874191 0.127829
H39   H     H_    0.894710 0.200395 0.874289 0.127829
H40   H     H_    0.894683 0.799563 0.874226 0.127831
H41   H     H_    0.526743 0.190614 0.708139 0.174939
H42   H     H_    0.526737 0.809393 0.708148 0.174948
H43   H     H_    0.026744 0.690616 0.708138 0.174938
H44   H     H_    0.026733 0.309397 0.708153 0.174952
H45   H     H_    0.704451 0.999999 0.479774 0.114085
H46   H     H_    0.204451 0.500000 0.479774 0.114086
N1    N     N_R   0.566260 1.000000 0.302220 -0.179553
N2    N     N_R   0.066260 0.500000 0.302220 -0.179554
N3    N     N_R   0.434410 0.000000 0.697680 -0.200201
N4    N     N_R   0.934410 0.500000 0.697680 -0.200201
O1    O     O_R   0.608610 0.924520 0.551740 -0.577979
O2    O     O_R   0.608610 0.075480 0.551740 -0.577976
O3    O     O_R   0.108610 0.424520 0.551740 -0.577979
O4    O     O_R   0.108610 0.575480 0.551740 -0.577976
O5    O     O_R   0.564110 0.924510 0.685150 -0.604972
O6    O     O_R   0.564110 0.075490 0.685150 -0.604969
O7    O     O_R   0.064110 0.424510 0.685150 -0.604973
O8    O     O_R   0.064110 0.575490 0.685150 -0.604966
O9    O     O_R   0.435880 0.075470 0.314850 -0.582647
O10   O     O_R   0.435880 0.924530 0.314850 -0.582645
O11   O     O_R   0.935880 0.575470 0.314850 -0.582646
O12   O     O_R   0.935880 0.424530 0.314850 -0.582646
O13   O     O_R   0.391380 0.075460 0.448260 -0.592340
O14   O     O_R   0.391380 0.924540 0.448260 -0.592340
O15   O     O_R   0.891380 0.575460 0.448260 -0.592340
O16   O     O_R   0.891380 0.424540 0.448260 -0.592341
C89   C     C_3   0.754894 0.000003 0.136431 -0.401683
C90   C     C_3   0.782077 0.000008 0.042606 -0.353439
C91   C     C_3   0.884797 0.000014 0.129240 -0.839660
H47   H     H_    0.914568 0.049129 0.196079 0.252467
H48   H     H_    0.914577 0.950901 0.196082 0.252466
H49   H     H_    0.902013 0.000017 0.058537 0.242117
H50   H     H_    0.754849 0.950828 0.975710 0.225879
H51   H     H_    0.754842 0.049187 0.975708 0.225889
H52   H     H_    0.785376 0.048926 0.203948 0.204092
H53   H     H_    0.785378 0.951079 0.203944 0.204089
C92   C     C_3   0.254893 0.500005 0.136431 -0.401682
C93   C     C_3   0.282077 0.500011 0.042606 -0.353440
C94   C     C_3   0.384797 0.500018 0.129240 -0.839663
H54   H     H_    0.414567 0.549133 0.196078 0.252468
H55   H     H_    0.414578 0.450906 0.196083 0.252465
H56   H     H_    0.402013 0.500022 0.058537 0.242117
H57   H     H_    0.254850 0.450830 0.975710 0.225876
H58   H     H_    0.254840 0.549190 0.975707 0.225891
H59   H     H_    0.285375 0.548928 0.203948 0.204092
H60   H     H_    0.285379 0.451081 0.203944 0.204089

loop_
_geom_bond_atom_site_label_1
_geom_bond_atom_site_label_2
_ccdc_geom_bond_type
C26   H2    S    
C14   H18   S    
C83   C87   A    
C94   H54   S    
C38   H14   S    
C64   H24   S    
C2    O2    A    
C92   C93   S    
C14   C18   A    
C27   H3    S    
C7    C81   A    
C48   C56   A    
C21   C65   A    
Cu3   O5    S    
C91   H47   S    
C44   H12   S    
C32   C72   A    
C93   H58   S    
C15   C19   A    
C94   H55   S    
C40   O10   A    
C69   H29   S    
C18   C86   A    
C2    C29   S    
C9    C61   A    
C71   H31   S    
C35   C37   A    
C5    C11   A    
Cu2   O3    S    
C19   C87   A    
C6    C12   A    
C5    C83   A    
C93   C94   S    
C59   H45   S    
C19   H43   S    
C57   H7    S    
C39   O9    A    
C49   C57   A    
C89   H53   S    
C57   N1    A    
C36   H10   S    
C25   C63   A    
C23   C67   A    
C29   C69   A    
C9    C13   A    
C56   H16   S    
Cu4   O16   S    
C13   H17   S    
C27   C61   A    
C30   C70   A    
C11   C15   A    
Cu1   O10   S    
C22   C66   A    
C12   C16   A    
C44   C46   A    
C49   C51   A    
C31   C87   A    
C50   C52   A    
C69   C75   A    
C90   H51   S    
C30   C86   A    
Cu4   N4    S    
C47   N3    A    
C3    O7    A    
C29   C85   A    
C63   H23   S    
C52   C54   A    
C45   C47   A    
C33   C59   A    
C55   H15   S    
C72   H32   S    
C34   C60   A    
C54   C92   S    
C10   C62   A    
C17   C85   A    
C92   H59   S    
Cu3   O6    S    
C91   H48   S    
C75   H39   S    
C41   C68   S    
C41   O11   A    
C93   H57   S    
C53   C55   A    
C94   H56   S    
C54   C56   A    
C53   C89   S    
C6    C84   A    
C24   H28   S    
C26   C66   A    
C15   H19   S    
C58   H8    S    
C72   C74   A    
C10   C14   A    
C79   C81   A    
C80   H36   S    
Cu1   N1    S    
C37   H13   S    
Cu1   O1    S    
C39   O13   A    
Cu4   O15   S    
C51   C53   A    
C50   C58   A    
C37   C43   A    
C38   C44   A    
C1    O1    A    
C21   H25   S    
C70   H30   S    
Cu2   Cu4   S    
C89   C90   S    
C59   N1    A    
C25   H1    S    
C16   C20   A    
C4    O4    A    
C45   C49   A    
C48   N4    A    
C90   H50   S    
C20   H44   S    
Cu2   O11   S    
C43   C45   A    
C35   N3    A    
C41   O15   A    
C80   C82   A    
C42   O12   A    
C60   N2    A    
C3    O3    A    
C40   C65   S    
C74   H38   S    
Cu4   O8    S    
C42   C67   S    
C39   C66   S    
C8    C82   A    
C1    O5    A    
C32   C88   A    
Cu1   Cu3   S    
Cu3   O13   S    
C70   C76   A    
C78   H34   S    
C92   H60   S    
C91   H49   S    
C77   H33   S    
C16   H20   S    
C47   C55   A    
C58   N2    A    
C7    C9    A    
C12   C64   A    
C22   H26   S    
C42   O16   A    
C73   C77   A    
C28   C68   A    
C76   C80   A    
C35   H9    S    
Cu2   N2    S    
C28   C62   A    
C62   H22   S    
C26   C64   A    
C33   C51   A    
Cu1   O2    S    
C4    O8    A    
C46   C50   A    
C34   C52   A    
C13   C17   A    
C28   H4    S    
C90   C91   S    
C36   N4    A    
C36   C38   A    
C79   H35   S    
Cu3   O14   S    
Cu2   O4    S    
C82   C86   A    
C17   H41   S    
C76   H40   S    
Cu2   O12   S    
C84   C88   A    
C75   C79   A    
C73   H37   S    
C7    C23   A    
C20   C88   A    
C31   C71   A    
C1    C30   S    
C34   H6    S    
C89   H52   S    
C18   H42   S    
C33   H5    S    
C3    C32   S    
C43   H11   S    
C4    C31   S    
C27   C67   A    
C24   C68   A    
C61   H21   S    
C46   C48   A    
C78   C84   A    
Cu1   O9    S    
C5    C21   A    
C8    C24   A    
C8    C10   A    
C74   C78   A    
C71   C73   A    
Cu4   O7    S    
C25   C65   A    
C77   C83   A    
C40   O14   A    
C23   H27   S    
C11   C63   A    
C2    O6    A    
C81   C85   A    
C60   H46   S    
Cu3   N3    S    
C6    C22   A    
