data_mof_unit_24452.cif
_audit_creation_date              2012-12-11T15:35:23-0500
_audit_creation_method            fapswitch 2.2
_symmetry_space_group_name_H-M    P1
_symmetry_Int_Tables_number       1
_space_group_crystal_system       triclinic
_cell_length_a                    17.580516
_cell_length_b                    24.48023
_cell_length_c                    15.032582
_cell_angle_alpha                 89.904016
_cell_angle_beta                  125.727625
_cell_angle_gamma                 90.077628
_cell_volume                      5252.06626074

loop_
_atom_site_label
_atom_site_type_symbol
_atom_type_description
_atom_site_fract_x
_atom_site_fract_y
_atom_site_fract_z
_atom_type_partial_charge
C1    C     C_R   0.313070 0.128595 0.909238 0.075715
C2    C     C_R   0.312432 0.872073 0.909290 0.079784
C3    C     C_R   0.814427 0.630251 0.908553 0.077458
C4    C     C_R   0.813840 0.370325 0.908537 0.078732
C5    C     C_R   0.646383 0.150995 0.093005 0.168639
C6    C     C_R   0.647237 0.849189 0.092730 0.159078
C7    C     C_R   0.148221 0.650578 0.092528 0.174217
C8    C     C_R   0.149044 0.349639 0.092513 0.160099
C9    C     C_R   0.561112 0.848994 0.910388 -0.144833
C10   C     C_R   0.559684 0.151796 0.910899 -0.170256
C11   C     C_R   0.063336 0.349923 0.909822 -0.151939
C12   C     C_R   0.062694 0.650513 0.909924 -0.145325
C13   C     C_R   0.539179 0.000901 0.717024 0.105320
C14   C     C_R   0.932713 0.499339 0.632582 0.067022
C15   C     C_R   0.823210 0.999782 0.271440 0.074484
C16   C     C_R   0.323635 0.500147 0.276751 0.066082
C17   C     C_R   0.620099 0.181646 0.003348 0.014525
C18   C     C_R   0.622026 0.819224 0.002789 0.012675
C19   C     C_R   0.124572 0.680267 0.002368 0.010710
C20   C     C_R   0.125781 0.320399 0.002265 0.008092
C21   C     C_3   0.059462 0.941618 0.509370 -0.409562
C22   C     C_3   0.042507 0.037696 0.550677 -0.358974
C23   C     C_3   0.564649 0.441157 0.499406 -0.413075
C24   C     C_3   0.543648 0.532086 0.557545 -0.351171
C25   C     C_3   0.955570 0.942904 0.418008 -0.395246
C26   C     C_3   0.944015 0.042628 0.446976 -0.436508
C27   C     C_3   0.459736 0.441965 0.411851 -0.396197
C28   C     C_3   0.444169 0.538420 0.455978 -0.444160
C29   C     C_3   0.095168 0.019514 0.425339 -0.110610
C30   C     C_3   0.591568 0.527578 0.425289 -0.111493
C31   C     C_3   0.101762 0.999919 0.530181 0.199709
C32   C     C_3   0.603352 0.500490 0.528750 0.202603
C33   C     C_3   0.926004 0.999814 0.359824 0.191587
C34   C     C_3   0.426235 0.500536 0.362292 0.196905
C35   C     C_R   0.403633 0.876587 0.093360 -0.118435
C36   C     C_R   0.404527 0.124521 0.093487 -0.119954
C37   C     C_R   0.905906 0.372393 0.092713 -0.112961
C38   C     C_R   0.906538 0.628132 0.092816 -0.113209
C39   C     C_3   0.988835 0.013716 0.319440 0.267915
C40   C     C_3   0.485329 0.520956 0.320610 0.268528
C41   C     C_R   0.163342 0.820536 0.941509 0.224619
C42   C     C_R   0.165785 0.180400 0.944245 0.223246
C43   C     C_R   0.666105 0.319873 0.944798 0.224745
C44   C     C_R   0.667818 0.681080 0.945600 0.224316
C45   C     C_R   0.616710 0.275534 0.944232 -0.197594
C46   C     C_R   0.618662 0.725437 0.944852 -0.196277
C47   C     C_R   0.116056 0.774382 0.938941 -0.196709
C48   C     C_R   0.118371 0.226232 0.941930 -0.194477
C49   C     C_R   0.666363 0.230161 0.008647 0.111490
C50   C     C_R   0.668471 0.771092 0.007747 0.117650
C51   C     C_R   0.167662 0.730531 0.007853 0.108705
C52   C     C_R   0.169965 0.270975 0.007298 0.117055
C53   C     C_R   0.763766 0.228318 0.074736 -0.090310
C54   C     C_R   0.765819 0.773393 0.072288 -0.087799
C55   C     C_R   0.264672 0.732514 0.081370 -0.089358
C56   C     C_R   0.267335 0.270605 0.076557 -0.100752
C57   C     C_R   0.311711 0.776942 0.082393 -0.178688
C58   C     C_R   0.314419 0.226217 0.077623 -0.179571
C59   C     C_R   0.812644 0.271040 0.073550 -0.176263
C60   C     C_R   0.814499 0.730481 0.071537 -0.178367
C61   C     C_R   0.261930 0.820320 0.010755 0.038284
C62   C     C_R   0.264267 0.181679 0.010126 0.042604
C63   C     C_R   0.764324 0.316281 0.007636 0.039001
C64   C     C_R   0.765919 0.684855 0.007381 0.041318
C65   C     C_R   0.622787 0.972658 0.639508 0.214572
C66   C     C_R   0.486972 0.034202 0.537385 0.187271
C67   C     C_R   0.911392 0.448851 0.477604 0.188599
C68   C     C_R   0.905776 0.547771 0.472660 0.183356
C69   C     C_R   0.627204 0.971771 0.550526 -0.206068
C70   C     C_R   0.494844 0.034216 0.452543 -0.184099
C71   C     C_R   0.952541 0.449525 0.422895 -0.184914
C72   C     C_R   0.946468 0.548188 0.417372 -0.182264
C73   C     C_R   0.563069 0.002687 0.458408 0.052651
C74   C     C_R   0.976771 0.499274 0.399716 0.065728
C75   C     C_R   0.546166 0.045653 0.301046 -0.129108
C76   C     C_R   0.546178 0.954951 0.302424 -0.112658
C77   C     C_R   0.022763 0.545240 0.288210 -0.109677
C78   C     C_R   0.023263 0.454453 0.288359 -0.108542
C79   C     C_R   0.551723 0.003490 0.631974 -0.059063
C80   C     C_R   0.904053 0.498450 0.519777 -0.025330
C81   C     C_R   0.246348 0.954528 0.694862 -0.108605
C82   C     C_R   0.246011 0.045261 0.694482 -0.098373
C83   C     C_R   0.747974 0.454815 0.693359 -0.104415
C84   C     C_R   0.747388 0.545347 0.693698 -0.117939
C85   C     C_R   0.318250 0.140770 0.002942 0.035203
C86   C     C_R   0.316954 0.860576 0.002949 0.035584
C87   C     C_R   0.820687 0.644250 0.001841 0.033681
C88   C     C_R   0.819731 0.356544 0.001783 0.032753
C89   C     C_R   0.559276 0.000673 0.362040 0.073076
C90   C     C_R   0.013713 0.499693 0.335463 0.078776
C91   C     C_R   0.197964 0.999807 0.633306 0.017696
C92   C     C_R   0.700483 0.500129 0.630831 0.015143
C93   C     C_R   0.518721 0.045988 0.753476 -0.058960
C94   C     C_R   0.510888 0.954642 0.743202 -0.082714
C95   C     C_R   0.951346 0.544925 0.697113 -0.096194
C96   C     C_R   0.951967 0.454416 0.698290 -0.098346
C97   C     C_R   0.766370 0.954195 0.242615 -0.100415
C98   C     C_R   0.766845 0.045624 0.243507 -0.096083
C99   C     C_R   0.267177 0.454260 0.246433 -0.100703
C100  C     C_R   0.267462 0.545948 0.248454 -0.090180
H1    H     H_    0.068579 0.925016 0.584138 0.200446
H2    H     H_    0.040009 0.020668 0.617753 0.213598
H3    H     H_    0.576842 0.419415 0.571844 0.193744
H4    H     H_    0.543181 0.509576 0.621746 0.212649
H5    H     H_    0.915954 0.934277 0.453332 0.197249
H6    H     H_    0.893604 0.037074 0.468473 0.199188
H7    H     H_    0.423597 0.428919 0.449444 0.196082
H8    H     H_    0.394978 0.528773 0.477819 0.199793
H9    H     H_    0.940287 0.908986 0.360909 0.189813
H10   H     H_    0.934750 0.084834 0.414696 0.194853
H11   H     H_    0.443121 0.410846 0.349289 0.191468
H12   H     H_    0.433108 0.581935 0.429840 0.194331
H13   H     H_    0.540834 0.276198 0.894232 0.155994
H14   H     H_    0.542826 0.724562 0.895941 0.154909
H15   H     H_    0.040299 0.772524 0.883937 0.157960
H16   H     H_    0.042473 0.227158 0.889893 0.156410
H17   H     H_    0.801924 0.192591 0.123239 0.162371
H18   H     H_    0.803916 0.809477 0.119404 0.147197
H19   H     H_    0.304593 0.698343 0.134229 0.168656
H20   H     H_    0.307037 0.305793 0.126082 0.144965
H21   H     H_    0.387616 0.775724 0.135049 0.157894
H22   H     H_    0.390286 0.228012 0.127186 0.153212
H23   H     H_    0.888240 0.267620 0.120758 0.158110
H24   H     H_    0.890030 0.733921 0.117730 0.153859
H25   H     H_    0.431579 0.870363 0.178422 0.123058
H26   H     H_    0.432934 0.131488 0.178467 0.123018
H27   H     H_    0.934961 0.362440 0.176637 0.120547
H28   H     H_    0.935978 0.638309 0.176721 0.120002
H29   H     H_    0.679780 0.947432 0.552883 0.162931
H30   H     H_    0.443879 0.056725 0.378643 0.163398
H31   H     H_    0.961528 0.411008 0.395214 0.148617
H32   H     H_    0.950503 0.586649 0.384997 0.148411
H33   H     H_    0.560130 0.087699 0.328250 0.127519
H34   H     H_    0.559444 0.913089 0.330816 0.120805
H35   H     H_    0.031877 0.587022 0.315232 0.107045
H36   H     H_    0.033115 0.412612 0.315387 0.107059
H37   H     H_    0.237706 0.913525 0.664501 0.107335
H38   H     H_    0.235581 0.086400 0.664355 0.113706
H39   H     H_    0.740466 0.413935 0.662847 0.114936
H40   H     H_    0.737281 0.586629 0.664824 0.114836
H41   H     H_    0.528444 0.088352 0.742246 0.128380
H42   H     H_    0.512243 0.912763 0.721537 0.119838
H43   H     H_    0.940968 0.587276 0.674464 0.136086
H44   H     H_    0.941979 0.411940 0.677522 0.136548
H45   H     H_    0.786597 0.912130 0.250944 0.132637
H46   H     H_    0.788624 0.087597 0.255291 0.146906
H47   H     H_    0.287864 0.412214 0.256181 0.131784
H48   H     H_    0.289259 0.587916 0.263918 0.150813
H49   H     H_    0.522036 0.835304 0.826265 0.119886
H50   H     H_    0.519663 0.166012 0.826992 0.131415
H51   H     H_    0.024778 0.336648 0.825457 0.131465
H52   H     H_    0.023779 0.663938 0.825558 0.128918
H53   H     H_    0.095029 0.913013 0.487170 0.177056
H54   H     H_    0.072555 0.079471 0.576738 0.173749
H55   H     H_    0.600058 0.417303 0.470360 0.190940
H56   H     H_    0.572106 0.573484 0.591161 0.177238
N1    N     N_R   0.392140 0.102630 0.941800 -0.069084
N2    N     N_R   0.392140 0.897370 0.941800 -0.070863
N3    N     N_R   0.892140 0.602630 0.941800 -0.070077
N4    N     N_R   0.892140 0.397370 0.941800 -0.070079
N5    N     N_R   0.450890 0.896450 0.057150 -0.050293
N6    N     N_R   0.450890 0.103550 0.057150 -0.050593
N7    N     N_R   0.950890 0.396450 0.057150 -0.049892
N8    N     N_R   0.950890 0.603550 0.057150 -0.050127
N9    N     N_R   0.525160 0.027960 0.206160 -0.041424
N10   N     N_R   0.525160 0.972040 0.206160 -0.042302
N11   N     N_R   0.025160 0.527960 0.206160 -0.041245
N12   N     N_R   0.025160 0.472040 0.206160 -0.041638
N13   N     N_R   0.317870 0.971120 0.792790 -0.042797
N14   N     N_R   0.317870 0.028880 0.792790 -0.041844
N15   N     N_R   0.817870 0.471120 0.792790 -0.041677
N16   N     N_R   0.817870 0.528880 0.792790 -0.040628
N17   N     N_R   0.473480 0.027920 0.793480 -0.048509
N18   N     N_R   0.473480 0.972080 0.793480 -0.053030
N19   N     N_R   0.973480 0.527920 0.793480 -0.046676
N20   N     N_R   0.973480 0.472080 0.793480 -0.047252
N21   N     N_R   0.681610 0.971120 0.207570 -0.042828
N22   N     N_R   0.681610 0.028880 0.207570 -0.043132
N23   N     N_R   0.181610 0.471120 0.207570 -0.041940
N24   N     N_R   0.181610 0.528880 0.207570 -0.043334
N25   N     N_R   0.605410 0.102620 0.056870 -0.059555
N26   N     N_R   0.605410 0.897380 0.056870 -0.059797
N27   N     N_R   0.105410 0.602620 0.056870 -0.058972
N28   N     N_R   0.105410 0.397380 0.056870 -0.060664
N29   N     N_R   0.549680 0.896430 0.944180 -0.052380
N30   N     N_R   0.549680 0.103570 0.944180 -0.053377
N31   N     N_R   0.049680 0.396430 0.944180 -0.053431
N32   N     N_R   0.049680 0.603570 0.944180 -0.053591
Ni1   Ni    Ni4+2 0.433410 0.064680 0.868830 0.236650
Ni2   Ni    Ni4+2 0.433410 0.935320 0.868830 0.225252
Ni3   Ni    Ni4+2 0.933410 0.564680 0.868830 0.228477
Ni4   Ni    Ni4+2 0.933410 0.435320 0.868830 0.227522
Ni5   Ni    Ni4+2 0.565650 0.934380 0.131170 0.253719
Ni6   Ni    Ni4+2 0.565650 0.065620 0.131170 0.253766
Ni7   Ni    Ni4+2 0.065650 0.434380 0.131170 0.257694
Ni8   Ni    Ni4+2 0.065650 0.565620 0.131170 0.257117
C101  C     C_1   0.253243 0.155876 0.805248 0.051104
N33   N     N_1   0.205134 0.178506 0.722494 -0.062738
C102  C     C_1   0.252617 0.844549 0.805691 0.048872
N34   N     N_1   0.204522 0.821765 0.723217 -0.068371
C103  C     C_1   0.754964 0.656829 0.803734 0.053911
N35   N     N_1   0.707099 0.678980 0.720374 -0.060477
C104  C     C_1   0.753306 0.344479 0.803206 0.053013
N36   N     N_1   0.704569 0.322966 0.719364 -0.064929
C105  C     C_1   0.160531 0.987252 0.414766 0.180227
N37   N     N_1   0.211918 0.961849 0.407047 -0.034440
C106  C     C_1   0.127991 0.076716 0.441017 0.158868
N38   N     N_1   0.153314 0.121563 0.453243 -0.024769
C107  C     C_1   0.655263 0.502322 0.404152 0.184916
N39   N     N_1   0.703141 0.482229 0.384380 -0.021172
C108  C     C_1   0.618905 0.585829 0.448270 0.142781
N40   N     N_1   0.639548 0.631526 0.465973 -0.025209
I1    I     I_    0.967033 0.951272 0.202593 -0.319591
I2    I     I_    0.937340 0.085488 0.212316 -0.372055
I3    I     I_    0.463917 0.463780 0.195547 -0.325507
I4    I     I_    0.429885 0.594809 0.219663 -0.384754
I5    I     I_    0.083279 0.888568 0.842789 -0.341471
I6    I     I_    0.086255 0.111284 0.849881 -0.346468
I7    I     I_    0.589937 0.390400 0.853188 -0.350505
I8    I     I_    0.591506 0.610287 0.855577 -0.352250
I9    I     I_    0.724386 0.927268 0.781282 -0.316098
I10   I     I_    0.367284 0.077315 0.503731 -0.426227
I11   I     I_    0.846733 0.373451 0.470355 -0.387601
I12   I     I_    0.833866 0.620339 0.460413 -0.388145
I13   I     I_    0.693345 0.184295 0.247462 -0.404093
I14   I     I_    0.694505 0.814859 0.246725 -0.404193
I15   I     I_    0.191899 0.685479 0.244755 -0.436812
I16   I     I_    0.194912 0.314187 0.245234 -0.416897

loop_
_geom_bond_atom_site_label_1
_geom_bond_atom_site_label_2
_ccdc_geom_bond_type
C68   C80   A    
C38   C87   A    
C3    N3    A    
N15   N16   A    
C13   C79   S    
C58   C62   A    
N9    N10   A    
C65   C79   A    
C23   H55   S    
C63   C88   S    
N13   N14   A    
C12   H52   S    
C37   C88   A    
C38   H28   S    
C44   I8    S    
N10   Ni5   S    
C41   C61   A    
C66   I10   S    
N9    Ni6   S    
C26   H6    S    
C30   C107  S    
C83   H39   S    
C53   C59   A    
C43   C63   A    
N29   Ni2   S    
C55   H19   S    
N17   N18   A    
C44   C64   A    
C47   H15   S    
C83   C92   A    
C21   C31   S    
N14   Ni1   S    
C9    H49   S    
C50   C54   A    
N21   Ni5   S    
C6    N26   A    
N32   Ni3   S    
C34   C40   S    
C100  H48   S    
C28   H12   S    
C9    N29   A    
N2    Ni2   S    
N19   Ni3   S    
C35   C86   A    
C53   H17   S    
C82   N14   A    
N20   Ni4   S    
C5    C17   A    
C10   C17   A    
N15   Ni4   S    
C12   N32   A    
C70   H30   S    
C29   C105  S    
C12   C19   A    
C35   H25   S    
C103  N35   T    
C14   C96   A    
C60   H24   S    
C95   N19   A    
C21   C25   S    
N2    N5    A    
C16   C34   S    
N17   Ni1   S    
C52   C56   A    
C23   H3    S    
C61   C86   S    
N19   N20   A    
C5    I13   S    
N12   Ni7   S    
C83   N15   A    
C67   C80   A    
C76   N10   A    
C23   C27   S    
C98   N22   A    
C42   C62   A    
C64   C87   S    
C51   C55   A    
N24   Ni8   S    
C25   H9    S    
C76   C89   A    
C37   N7    A    
C21   H1    S    
C8    N28   A    
C38   N8    A    
N7    Ni7   S    
C27   H11   S    
C102  N34   T    
N16   Ni3   S    
C36   N6    A    
C56   H20   S    
C40   I4    S    
C68   I12   S    
N13   Ni2   S    
C15   C97   A    
C65   I9    S    
C44   C46   A    
C60   C64   A    
C72   H32   S    
C27   C34   S    
C59   H23   S    
C36   H26   S    
C6    C18   A    
C62   C85   S    
C43   I7    S    
C77   C90   A    
C58   H22   S    
N27   Ni8   S    
C22   C31   S    
C46   H14   S    
C3    C87   A    
C2    C102  S    
C94   H42   S    
N4    N7    A    
N3    Ni3   S    
N4    Ni4   S    
C72   C74   A    
C25   H5    S    
C17   C49   S    
C30   C108  S    
C39   I1    S    
C16   C100  A    
C4    C104  S    
N23   Ni7   S    
C35   N5    A    
C98   H46   S    
C84   N16   A    
C105  N37   T    
C71   H31   S    
C11   C20   A    
C78   C90   A    
C82   C91   A    
C106  N38   T    
C13   C93   A    
C24   H4    S    
N26   N29   A    
C42   C48   A    
C81   H37   S    
C24   C32   S    
C99   N23   A    
C66   C79   A    
C19   C51   S    
C96   H44   S    
N22   Ni6   S    
C26   C33   S    
C97   N21   A    
C108  N40   T    
C5    N25   A    
C67   I11   S    
C27   H7    S    
C68   C72   A    
N6    Ni6   S    
C70   C73   A    
N8    Ni8   S    
C107  N39   T    
C41   C47   A    
C30   C40   S    
C1    N1    A    
C75   N9    A    
N26   Ni5   S    
C33   C39   S    
C69   C73   A    
N25   Ni6   S    
C43   C45   A    
N31   Ni4   S    
N18   Ni2   S    
C11   H51   S    
C8    C20   A    
C94   N18   A    
C7    C19   A    
C14   C80   S    
C55   C57   A    
C3    C103  S    
C11   N31   A    
C59   C63   A    
C1    C85   A    
C15   C98   A    
C100  N24   A    
C14   C95   A    
N11   N12   A    
C77   H35   S    
C93   H41   S    
C18   C50   S    
C22   H54   S    
C29   C39   S    
C26   H10   S    
C76   H34   S    
C96   N20   A    
C39   I2    S    
C97   H45   S    
C1    C101  S    
C95   H43   S    
C24   C28   S    
C31   C91   S    
C42   I6    S    
C29   C106  S    
C4    N4    A    
C71   C74   A    
C47   C51   A    
N25   N30   A    
C75   H33   S    
C16   C99   A    
C57   C61   A    
C8    I16   S    
C4    C88   A    
C7    N27   A    
C36   C85   A    
C77   N11   A    
N28   Ni7   S    
C20   C52   S    
C46   C50   A    
C78   N12   A    
C81   N13   A    
C22   H2    S    
N28   N31   A    
C48   H16   S    
C13   C94   A    
C54   C60   A    
C23   C32   S    
C74   C90   S    
N30   Ni1   S    
C54   H18   S    
C99   H47   S    
C73   C89   S    
C82   H38   S    
N27   N32   A    
C10   H50   S    
C30   C32   S    
C66   C70   A    
C7    I15   S    
C28   H8    S    
C69   H29   S    
C65   C69   A    
C6    I14   S    
C40   I3    S    
C93   N17   A    
C10   N30   A    
C56   C58   A    
C45   C49   A    
C2    C86   A    
C67   C71   A    
C28   C34   S    
C101  N33   T    
N1    Ni1   S    
C49   C53   A    
N5    Ni5   S    
C32   C92   S    
C57   H21   S    
N23   N24   A    
C81   C91   A    
N11   Ni8   S    
C45   H13   S    
C9    C18   A    
C48   C52   A    
C2    N2    A    
C84   H40   S    
C29   C31   S    
N21   N22   A    
C22   C26   S    
C75   C89   A    
C21   H53   S    
N3    N8    A    
C84   C92   A    
C104  N36   T    
C78   H36   S    
N1    N6    A    
C15   C33   S    
C24   H56   S    
C25   C33   S    
C41   I5    S    
C37   H27   S    
