data_mof_unit_30542.cif
_audit_creation_date              2012-12-10T20:27:15-0500
_audit_creation_method            fapswitch 2.2
_symmetry_space_group_name_H-M    P1
_symmetry_Int_Tables_number       1
_space_group_crystal_system       triclinic
_cell_length_a                    10.651111
_cell_length_b                    10.576809
_cell_length_c                    9.885623
_cell_angle_alpha                 90.350593
_cell_angle_beta                  102.200335
_cell_angle_gamma                 89.990953
_cell_volume                      1088.4889915

loop_
_atom_site_label
_atom_site_type_symbol
_atom_type_description
_atom_site_fract_x
_atom_site_fract_y
_atom_site_fract_z
_atom_type_partial_charge
C1    C     C_R   0.508691 0.259585 0.501825 0.906646
C2    C     C_R   0.606312 0.534216 0.096290 -0.099705
C3    C     C_R   0.606457 0.533892 0.952623 -0.131048
C4    C     C_R   0.258815 0.505676 0.443827 1.001085
C5    C     C_R   0.388990 0.478636 0.902854 0.160450
C6    C     C_3   0.306829 0.363536 0.875332 0.118029
C7    C     C_3   0.305742 0.361258 0.028614 0.123636
C8    C     C_R   0.511111 0.739901 0.502812 0.876129
C9    C     C_R   0.741353 0.506543 0.555837 0.909761
C10   C     C_2   0.121142 0.520101 0.414229 -0.401009
C11   C     C_2   0.064139 0.595405 0.492536 0.568803
C12   C     C_R   0.543301 0.128826 0.509497 -0.115287
C13   C     C_2   0.876799 0.536834 0.582041 -0.303684
C14   C     C_2   0.926571 0.576901 0.476376 -0.334738
C15   C     C_R   0.562836 0.064538 0.634966 0.120721
C16   C     C_3   0.061638 0.782698 0.616231 0.095065
C17   C     C_3   0.150423 0.888426 0.684855 -0.372944
C18   C     C_3   0.074782 0.002983 0.717979 -0.869023
C19   C     C_R   0.564830 0.064372 0.392062 -0.164304
C20   C     C_R   0.565125 0.933370 0.391853 -0.221292
C21   C     C_R   0.548943 0.869723 0.511260 -0.111725
C22   C     C_R   0.570089 0.935505 0.636807 0.109754
C23   C     C_3   0.508528 0.926307 0.758802 -0.458222
C24   C     C_3   0.495365 0.069160 0.752830 -0.448956
C25   C     C_R   0.389532 0.476603 0.045228 0.083420
Cl1   Cl    Cl    0.152516 0.393848 0.771443 -0.657879
Cl2   Cl    Cl    0.381076 0.221838 0.106260 -0.655419
H1    H     H_    0.869359 0.582387 0.371668 0.157144
H2    H     H_    0.565362 0.883758 0.295708 0.181466
H3    H     H_    0.416180 0.874843 0.735639 0.215822
H4    H     H_    0.577198 0.892894 0.852548 0.204383
H5    H     H_    0.393867 0.100293 0.720084 0.210118
H6    H     H_    0.997927 0.755672 0.687072 0.157826
H7    H     H_    0.002576 0.820547 0.517933 0.129105
H8    H     H_    0.211331 0.852892 0.782583 0.240742
H9    H     H_    0.212486 0.918199 0.613445 0.224004
H10   H     H_    0.014191 0.041552 0.621675 0.266102
H11   H     H_    0.142589 0.077813 0.767523 0.295878
H12   H     H_    0.552821 0.118045 0.845319 0.225237
H13   H     H_    0.012546 0.976363 0.790385 0.260579
H14   H     H_    0.692758 0.560195 0.169804 0.131095
H15   H     H_    0.693169 0.559415 0.918867 0.151476
H16   H     H_    0.356906 0.283208 0.837319 0.157010
H17   H     H_    0.210509 0.380299 0.053655 0.163961
H18   H     H_    0.933927 0.531621 0.686454 0.215221
H19   H     H_    0.064870 0.463062 0.331106 0.110801
H20   H     H_    0.569741 0.113162 0.297742 0.225695
N1    N     N_R   0.499160 0.499140 0.142600 -0.076456
N2    N     N_R   0.499160 0.499180 0.856960 -0.116519
O1    O     O_R   0.500020 0.316790 0.614700 -0.627616
O2    O     O_R   0.500000 0.316760 0.385350 -0.557545
O3    O     O_R   0.317820 0.500020 0.571850 -0.524794
O4    O     O_R   0.317800 0.499980 0.342510 -0.622982
O5    O     O_R   0.500000 0.683240 0.614650 -0.612577
O6    O     O_R   0.499980 0.683210 0.385300 -0.626845
O7    O     O_R   0.682200 0.500020 0.657490 -0.627912
O8    O     O_R   0.682180 0.499980 0.428150 -0.620109
O9    O     O_3   0.135769 0.676958 0.591434 -0.602506
Zn1   Zn    Zn3+2 0.500010 0.500020 0.653140 0.982814
Zn2   Zn    Zn3+2 0.499990 0.499980 0.346860 0.981118

loop_
_geom_bond_atom_site_label_1
_geom_bond_atom_site_label_2
_ccdc_geom_bond_type
C10   H19   S    
C23   C24   S    
O7    Zn1   S    
C3    H15   S    
C14   H1    S    
C6    C7    S    
C8    C21   S    
O3    Zn1   S    
C4    O4    A    
C11   O9    S    
C1    O1    A    
C19   C20   A    
N2    Zn1   S    
C12   C15   A    
C20   H2    S    
O6    Zn2   S    
C24   H5    S    
C2    C3    A    
C3    N2    A    
C9    O7    A    
C16   O9    S    
C13   C14   D    
C13   H18   S    
C1    O2    A    
C25   N1    A    
C5    N2    A    
C6    Cl1   S    
C1    C12   S    
C4    O3    A    
C5    C25   A    
O1    Zn1   S    
C12   C19   A    
C15   C24   S    
C17   H9    S    
C18   H10   S    
N1    Zn2   S    
O4    Zn2   S    
C9    O8    A    
O5    Zn1   S    
C18   H11   S    
C5    C6    S    
C16   H6    S    
C11   C14   S    
C19   H20   S    
C10   C11   D    
C2    H14   S    
C4    C10   S    
C6    H16   S    
C23   H3    S    
C24   H12   S    
C7    Cl2   S    
C20   C21   A    
C8    O6    A    
C17   C18   S    
C2    N1    A    
C8    O5    A    
C9    C13   S    
C22   C23   S    
O8    Zn2   S    
C18   H13   S    
O2    Zn2   S    
C17   H8    S    
C16   H7    S    
C21   C22   A    
C7    H17   S    
C15   C22   A    
C23   H4    S    
C16   C17   S    
C7    C25   S    
