data_mof_unit_16639.cif
_audit_creation_date              2012-12-11T14:25:53-0500
_audit_creation_method            fapswitch 2.2
_symmetry_space_group_name_H-M    P1
_symmetry_Int_Tables_number       1
_space_group_crystal_system       triclinic
_cell_length_a                    7.030346
_cell_length_b                    14.829967
_cell_length_c                    16.344183
_cell_angle_alpha                 90.440584
_cell_angle_beta                  90.391574
_cell_angle_gamma                 90.459096
_cell_volume                      1703.8956374

loop_
_atom_site_label
_atom_site_type_symbol
_atom_type_description
_atom_site_fract_x
_atom_site_fract_y
_atom_site_fract_z
_atom_type_partial_charge
O1    O     O_R   0.494490 0.416160 0.413410 -0.544619
O2    O     O_R   0.823830 0.407240 0.585990 -0.535540
O3    O     O_R   0.994160 0.583840 0.586590 -0.530821
C1    C     C_R   0.653619 0.381538 0.609619 0.708196
O4    O     O_R   0.824200 0.405280 0.414020 -0.507129
O5    O     O_R   0.994530 0.581860 0.413390 -0.526610
C2    C     C_R   0.655507 0.385091 0.384536 0.761053
O6    O     O_R   0.494110 0.418140 0.586610 -0.497215
O7    O     O_3   0.660810 0.557940 0.500000 -0.349185
V1    V     V_3+5 0.935650 0.489250 0.500000 1.797595
O8    O     O_R   0.324250 0.592760 0.414010 -0.519141
C3    C     C_R   0.155639 0.616246 0.387413 0.725761
O9    O     O_R   0.323880 0.594720 0.585980 -0.507238
C4    C     C_R   0.157929 0.614778 0.616195 0.889367
V2    V     V_3+5 0.435660 0.510750 0.500000 1.799671
O10   O     O_3   0.160630 0.442060 0.500000 -0.353671
C5    C     C_3   0.023335 0.641292 0.759932 0.238201
H1    H     H_    0.885378 0.643462 0.729454 0.134454
C6    C     C_3   0.004455 0.716092 0.831487 0.259859
H2    H     H_    0.858459 0.741924 0.825386 0.143392
H3    H     H_    0.907323 0.754106 0.647442 0.104527
H4    H     H_    0.892623 0.862011 0.739588 0.163167
C7    C     C_3   0.056037 0.772326 0.661867 0.188497
C8    C     C_3   0.359771 0.701474 0.731844 0.221633
C9    C     C_3   0.155770 0.680358 0.690127 -0.383164
C10   C     C_3   0.124747 0.804906 0.812399 -0.253397
C11   C     C_3   0.043473 0.843036 0.731804 -0.468947
C12   C     C_3   0.338717 0.780287 0.796786 -0.233650
H5    H     H_    0.384050 0.755882 0.857878 0.229016
H6    H     H_    0.111900 0.907751 0.716384 0.264324
C13   C     C_2   0.003951 0.715639 0.279734 -0.265812
C14   C     C_2   0.151661 0.696140 0.331798 0.227073
C15   C     C_2   0.004935 0.799096 0.230360 0.461320
C16   C     C_2   0.115445 0.804220 0.163564 -0.294293
H7    H     H_    0.207079 0.748200 0.147851 0.182817
C17   C     C_2   0.767947 0.200896 0.773921 -0.060740
C18   C     C_2   0.615354 0.182432 0.820301 -0.213724
H8    H     H_    0.898874 0.164008 0.783672 0.166604
H9    H     H_    0.489144 0.223346 0.814538 0.198853
C19   C     C_2   0.773857 0.277409 0.715395 -0.156794
C20   C     C_2   0.634034 0.300603 0.662138 0.208319
H10   H     H_    0.904701 0.316448 0.716042 0.222704
C21   C     C_2   0.784659 0.217805 0.207960 -0.096321
C22   C     C_2   0.623450 0.187335 0.168982 -0.399831
H11   H     H_    0.491199 0.222311 0.180876 0.168837
C23   C     C_2   0.784929 0.299743 0.262530 0.431280
C24   C     C_2   0.645641 0.314839 0.318607 -0.367268
H12   H     H_    0.522186 0.270383 0.319147 0.147994
O11   O     O_R   0.770850 0.076180 0.907410 -0.549412
O12   O     O_R   0.440600 0.088970 0.079950 -0.536367
O13   O     O_R   0.270430 0.912340 0.080550 -0.531437
C25   C     C_R   0.611296 0.112224 0.107186 0.764129
O14   O     O_R   0.441120 0.087010 0.907980 -0.541999
O15   O     O_R   0.270950 0.910370 0.907350 -0.549701
C26   C     C_R   0.609907 0.109573 0.881451 0.704539
O16   O     O_R   0.770320 0.078150 0.080620 -0.522598
O17   O     O_3   0.604200 0.936340 0.994000 -0.337452
V3    V     V_3+5 0.329300 0.004970 0.993950 1.631368
O18   O     O_R   0.941240 0.899420 0.907920 -0.504649
C27   C     C_R   0.110039 0.876638 0.880396 0.789605
O19   O     O_R   0.940720 0.901380 0.079890 -0.512854
C28   C     C_R   0.108974 0.879376 0.106155 0.843642
V4    V     V_3+5 0.829310 0.983370 0.993880 1.686892
O20   O     O_3   0.104280 0.052120 0.993920 -0.374770
C29   C     C_2   0.475533 0.860061 0.784904 0.766463
O21   O     O_2   0.617058 0.865372 0.828202 -0.561518
O22   O     O_R   0.437187 0.929707 0.730390 -0.598168
H13   H     H_    0.540819 0.977614 0.730529 0.329450
S1    S     S_3+6 0.120898 0.824570 0.566336 0.085519
O23   O     O_2   0.241594 0.907830 0.578282 -0.231847
O24   O     O_2   0.224727 0.759286 0.513505 -0.324450
O25   O     O_3   0.921902 0.854602 0.516528 -0.453981
H14   H     H_    0.877707 0.909514 0.545333 0.366617
C30   C     C_2   0.839641 0.655113 0.262017 0.947719
O26   O     O_2   0.801635 0.635974 0.190797 -0.512616
O27   O     O_R   0.720462 0.624862 0.324088 -0.589383
H15   H     H_    0.613437 0.584755 0.302696 0.312374
S2    S     S_3+6 0.356899 0.769153 0.334188 0.118467
O28   O     O_2   0.461674 0.758100 0.255176 -0.317226
O29   O     O_2   0.295575 0.865696 0.342558 -0.255002
O30   O     O_3   0.508728 0.745640 0.411109 -0.432038
H16   H     H_    0.538837 0.804287 0.437632 0.417266
S3    S     S_3+6 0.864365 0.890661 0.263941 0.120652
O31   O     O_2   0.798875 0.874680 0.349807 -0.250596
O32   O     O_2   0.982023 0.975369 0.262105 -0.324703
O33   O     O_3   0.674367 0.902707 0.202089 -0.473978
H17   H     H_    0.600503 0.952453 0.226784 0.362143
S4    S     S_3+6 0.015481 0.515657 0.776413 0.135113
O34   O     O_2   0.101689 0.465936 0.705759 -0.330799
O35   O     O_2   0.108361 0.480121 0.852408 -0.237164
O36   O     O_3   0.791277 0.478136 0.779103 -0.475525
H18   H     H_    0.771438 0.454561 0.834993 0.389643
S5    S     S_3+6 0.430477 0.231036 0.642558 0.052000
O37   O     O_2   0.473773 0.133196 0.655996 -0.306438
O38   O     O_2   0.271890 0.259085 0.698119 -0.315656
O39   O     O_3   0.357058 0.243922 0.545178 -0.457823
H19   H     H_    0.466087 0.224708 0.511336 0.326590
C31   C     C_2   0.974988 0.176454 0.197022 0.950862
O40   O     O_2   0.048395 0.173200 0.129530 -0.526924
O41   O     O_R   0.080827 0.153296 0.266333 -0.604143
H20   H     H_    0.212584 0.130845 0.252279 0.312631
S6    S     S_3+6 0.983473 0.374353 0.251725 0.016065
O42   O     O_2   0.923163 0.469820 0.264636 -0.359181
O43   O     O_2   0.133441 0.350943 0.313837 -0.343514
O44   O     O_3   0.075591 0.365087 0.157343 -0.471011
H21   H     H_    0.194993 0.400984 0.159409 0.381081
S7    S     S_3+6 0.997464 0.683097 0.938546 0.136959
O45   O     O_2   0.940378 0.586386 0.949482 -0.210418
O46   O     O_2   0.184807 0.700870 0.980690 -0.325895
O47   O     O_3   0.830306 0.745462 0.984790 -0.479251
H22   H     H_    0.820923 0.721047 0.040844 0.382757
C32   C     C_2   0.511538 0.721446 0.666705 0.766280
O48   O     O_2   0.622953 0.662831 0.646200 -0.534055
O49   O     O_R   0.518439 0.803318 0.625962 -0.603876
H23   H     H_    0.616785 0.804476 0.581210 0.327962
S8    S     S_3+6 0.448338 0.606950 0.791886 0.079400
O50   O     O_2   0.644100 0.628050 0.819812 -0.330031
O51   O     O_2   0.343389 0.595645 0.870111 -0.233773
O52   O     O_3   0.447570 0.511150 0.736696 -0.449734
H24   H     H_    0.436431 0.461891 0.777033 0.398364

loop_
_geom_bond_atom_site_label_1
_geom_bond_atom_site_label_2
_ccdc_geom_bond_type
S5    O37   D    
O11   V4    S    
C5    S4    S    
C7    S1    S    
C6    H2    S    
C8    C32   S    
C21   C31   S    
C1    O6    A    
C32   O49   S    
O49   H23   S    
O15   C27   A    
C23   S6    S    
C10   C11   S    
C30   O27   S    
C17   C18   D    
O5    C3    A    
S2    O29   D    
C1    C20   S    
V2    O10   S    
C16   C28   S    
S8    O50   D    
S6    O44   S    
O19   V4    S    
C16   H7    S    
S1    O24   D    
C6    C10   S    
O47   H22   S    
O8    V2    S    
C20   S5    S    
S3    O31   D    
S8    O51   D    
C29   O22   S    
O12   C25   A    
S7    O45   D    
C13   C15   S    
O1    V2    S    
C7    C11   S    
O7    V1    S    
O19   C28   A    
C22   C25   S    
C19   H10   S    
O18   C27   A    
S5    O38   D    
O1    C2    A    
O9    C4    A    
C3    C14   S    
C11   H6    S    
S7    O46   D    
S6    O42   D    
O13   C28   A    
C32   O48   D    
O17   V4    S    
O14   C26   A    
V3    O20   S    
C30   O26   D    
O22   H13   S    
O12   V3    S    
C17   C19   S    
C8    C9    S    
O36   H18   S    
O4    C2    A    
S2    O28   D    
C13   C30   S    
O11   C26   A    
O30   H16   S    
C2    C24   S    
S1    O25   S    
O2    C1    A    
C21   C22   D    
C24   H12   S    
S4    O36   S    
O14   V3    S    
O39   H19   S    
C5    H1    S    
O16   V4    S    
O13   V3    S    
O27   H15   S    
S6    O43   D    
C15   S3    S    
O3    C4    A    
C19   C20   D    
S3    O32   D    
S4    O35   D    
C8    S8    S    
O6    V2    S    
C31   O41   S    
H4    C11   S    
H3    C7    S    
S7    O47   S    
C29   O21   D    
O2    V1    S    
C22   H11   S    
O15   V3    S    
C23   C24   D    
C12   H5    S    
O33   H17   S    
C10   C12   S    
C13   C14   D    
C8    C12   S    
O25   H14   S    
O5    V1    S    
O52   H24   S    
S5    O39   S    
O44   H21   S    
O18   V4    S    
S8    O52   S    
C5    C9    S    
O9    V2    S    
C12   C29   S    
O7    V2    S    
O4    V1    S    
C18   H9    S    
O3    V1    S    
V1    O10   S    
S2    O30   S    
O17   V3    S    
C17   H8    S    
O41   H20   S    
C5    C6    S    
C15   C16   D    
C7    C9    S    
C4    C9    S    
S1    O23   D    
C21   C23   S    
C14   S2    S    
V4    O20   S    
C18   C26   S    
S3    O33   S    
S4    O34   D    
C31   O40   D    
C10   C27   S    
C25   O16   A    
O8    C3    A    
C6    S7    S    
