data_mof_unit_17233.cif
_audit_creation_date              2012-12-11T19:42:20-0500
_audit_creation_method            fapswitch 2.2
_symmetry_space_group_name_H-M    P1
_symmetry_Int_Tables_number       1
_space_group_crystal_system       triclinic
_cell_length_a                    8.309444
_cell_length_b                    15.218451
_cell_length_c                    27.060051
_cell_angle_alpha                 98.356931
_cell_angle_beta                  92.670427
_cell_angle_gamma                 81.39814
_cell_volume                      3346.43149882

loop_
_atom_site_label
_atom_site_type_symbol
_atom_type_description
_atom_site_fract_x
_atom_site_fract_y
_atom_site_fract_z
_atom_type_partial_charge
Ba1   Ba    Ba6+2 0.860050 0.456430 0.522530 1.723063
Ba2   Ba    Ba6+2 0.329780 0.543490 0.477460 1.684277
C1    C     C_3   0.750823 0.163754 0.702403 -0.086002
C2    C     C_R   0.907793 0.589277 0.181138 0.631614
C3    C     C_2   0.750029 0.552754 0.272230 -0.141794
C4    C     C_3   0.242999 0.203221 0.649210 0.639342
C5    C     C_3   0.725531 0.579615 0.327097 0.015074
C6    C     C_1   0.978110 0.482580 0.343492 0.025126
C7    C     C_2   0.022585 0.482169 0.296192 -0.144417
C8    C     C_2   0.900449 0.515233 0.256820 0.184817
C9    C     C_R   0.029938 0.509690 0.104071 -0.154103
C10   C     C_R   0.060392 0.431193 0.127222 -0.014918
C11   C     C_R   0.130068 0.350953 0.099193 -0.041667
C12   C     C_3   0.709273 0.224399 0.661186 0.478406
C13   C     C_R   0.958651 0.590447 0.131859 -0.074586
C14   C     C_2   0.831087 0.521790 0.359350 -0.113436
C15   C     C_2   0.347303 0.476988 0.640808 -0.279957
C16   C     C_3   0.185664 0.213166 0.703212 -0.065942
C17   C     C_R   0.190304 0.424845 0.975142 0.038961
C18   C     C_R   0.055430 0.580728 0.976982 -0.025145
C19   C     C_R   0.143708 0.502057 0.950877 0.000720
C20   C     C_R   0.282683 0.349143 0.948045 -0.101287
C21   C     C_R   0.321805 0.348130 0.898545 -0.049065
C22   C     C_R   0.271949 0.422744 0.873733 -0.005856
C23   C     C_3   0.526382 0.682151 0.635614 0.611676
C24   C     C_R   0.183985 0.500065 0.899827 -0.092467
C25   C     C_R   0.136144 0.575118 0.874831 -0.123709
C26   C     C_R   0.180931 0.572532 0.824473 0.615742
C27   C     C_R   0.307237 0.420332 0.823035 0.591179
C28   C     C_3   0.218288 0.262621 0.408076 0.581399
C29   C     C_2   0.438659 0.446505 0.726206 -0.114689
C30   C     C_3   0.454497 0.414657 0.670975 -0.117836
C31   C     C_1   0.205455 0.518657 0.658464 0.118217
C32   C     C_2   0.164248 0.520224 0.706167 0.339749
C33   C     C_2   0.292718 0.487588 0.744313 0.138879
C34   C     C_3   0.625486 0.694155 0.684507 -0.265397
C35   C     C_R   0.143341 0.425679 0.025376 0.050832
C36   C     C_R   0.068606 0.506999 0.052843 -0.003754
C37   C     C_R   0.035857 0.586072 0.029782 -0.039972
C38   C     C_R   0.170051 0.348025 0.049492 -0.093688
C39   C     C_R   0.943487 0.670854 0.110263 0.352167
C40   C     C_3   0.261821 0.164014 0.385786 0.940871
C41   C     C_R   0.986308 0.649945 0.948460 0.452815
C42   C     C_R   0.036499 0.649232 0.899730 -0.037097
C43   C     C_R   0.998120 0.668924 0.061155 0.304100
C44   C     C_R   0.853810 0.833527 0.470707 0.007305
C45   C     C_3   0.057551 0.717324 0.346396 0.481276
C46   C     C_R   0.789384 0.926708 0.474565 -0.066347
C47   C     C_R   0.647632 0.111871 0.480714 -0.041330
C48   C     C_R   0.784595 0.076062 0.451091 0.388048
C49   C     C_R   0.864698 0.989063 0.453375 0.050536
C50   C     C_R   0.582095 0.205237 0.487932 0.107159
C51   C     C_R   0.440831 0.234273 0.515277 -0.306461
C52   C     C_3   0.982920 0.734345 0.586551 0.390551
C53   C     C_R   0.619196 0.805142 0.513745 0.060782
C54   C     C_R   0.554226 0.897098 0.518722 -0.014375
C55   C     C_R   0.638199 0.958149 0.498692 -0.044826
C56   C     C_3   0.023882 0.731292 0.292125 0.299120
C57   C     C_R   0.404634 0.929136 0.541674 -0.050025
C58   C     C_R   0.336165 0.018420 0.544118 -0.066480
C59   C     C_R   0.419422 0.081326 0.527119 0.069651
C60   C     C_R   0.570410 0.050895 0.503095 -0.049295
C61   C     C_R   0.354315 0.173600 0.532659 0.047863
C62   C     C_R   0.765095 0.775162 0.489343 -0.276723
C63   C     C_3   0.986033 0.835286 0.599863 -0.096026
C64   C     C_3   0.685871 0.323062 0.364538 0.343067
C65   C     C_3   0.655888 0.286132 0.309208 0.112335
C66   C     C_3   0.502241 0.790491 0.356557 0.772827
C67   C     C_3   0.459517 0.870927 0.326842 0.316068
C68   C     C_R   0.019551 0.434091 0.177798 0.605466
H1    H     H_    0.857774 0.721231 0.576589 -0.067750
H2    H     H_    0.655413 0.119781 0.702218 0.101340
H3    H     H_    0.575666 0.615888 0.614936 0.061993
H4    H     H_    0.581719 0.759759 0.706970 0.102495
H5    H     H_    0.613340 0.639746 0.706730 0.114797
H6    H     H_    0.755802 0.692318 0.676646 0.149610
H7    H     H_    0.175434 0.674709 0.349885 0.087052
H8    H     H_    0.963224 0.679449 0.356345 -0.192822
H9    H     H_    0.041908 0.664239 0.269229 -0.022772
H10   H     H_    0.895761 0.762674 0.287366 0.117074
H11   H     H_    0.525532 0.927575 0.342792 -0.105026
H12   H     H_    0.062568 0.709690 0.554187 0.030353
H13   H     H_    0.293501 0.265335 0.645022 -0.056053
H14   H     H_    0.498729 0.849864 0.287674 0.093128
H15   H     H_    0.146914 0.456769 0.285457 0.137771
H16   H     H_    0.153414 0.289274 0.115591 0.129717
H17   H     H_    0.538260 0.425602 0.751245 0.117403
H18   H     H_    0.391971 0.287857 0.879637 0.133994
H19   H     H_    0.329461 0.289582 0.964262 0.076913
H20   H     H_    0.219200 0.282923 0.030663 0.075492
H21   H     H_    0.655361 0.575357 0.246035 0.123808
H22   H     H_    0.986707 0.704767 0.880052 0.152821
H23   H     H_    0.960633 0.869114 0.566110 0.014292
H24   H     H_    0.380156 0.478233 0.602583 0.082986
H25   H     H_    0.217951 0.037549 0.560629 0.091650
H26   H     H_    0.336040 0.885696 0.557475 0.089476
H27   H     H_    0.390468 0.304695 0.519760 0.047884
H28   H     H_    0.115866 0.281146 0.713392 0.102737
H29   H     H_    0.813901 0.704884 0.486555 0.030400
H30   H     H_    0.104677 0.162881 0.706075 0.094306
H31   H     H_    0.329836 0.289859 0.423101 -0.134344
H32   H     H_    0.130767 0.268528 0.438557 -0.012384
H33   H     H_    0.690878 0.119212 0.605541 0.145998
H34   H     H_    0.109882 0.846603 0.614273 0.102460
H35   H     H_    0.724436 0.213169 0.585131 0.176989
H36   H     H_    0.417766 0.093432 0.337978 0.291099
H37   H     H_    0.350535 0.051425 0.409900 0.268958
H38   H     H_    0.155221 0.073138 0.343452 0.308364
H39   H     H_    0.883252 0.941360 0.648616 0.177433
H40   H     H_    0.750729 0.875961 0.620999 0.185063
H41   H     H_    0.722875 0.151670 0.312546 0.216006
H42   H     H_    0.747602 0.181577 0.256891 0.212478
H43   H     H_    0.605607 0.409837 0.286321 0.167404
H44   H     H_    0.803000 0.361556 0.280769 0.203318
H45   H     H_    0.815030 0.333166 0.370768 0.002105
H46   H     H_    0.320777 0.742390 0.663140 0.317480
H47   H     H_    0.868396 0.244813 0.755147 0.206650
H48   H     H_    0.664244 0.266590 0.757257 0.208858
H49   H     H_    0.414165 0.232555 0.729187 0.215045
H50   H     H_    0.366430 0.131231 0.735771 0.197605
H51   H     H_    0.215832 0.746657 0.257855 0.326423
H52   H     H_    0.710869 0.734299 0.390378 0.141453
H53   H     H_    0.729213 0.830237 0.370845 0.114371
H54   H     H_    0.474457 0.868795 0.419949 0.252277
H55   H     H_    0.265700 0.929556 0.360810 0.306167
H56   H     H_    0.602473 0.386810 0.374339 -0.007040
H57   H     H_    0.830958 0.793223 0.114883 0.319020
H58   H     H_    0.792983 0.689166 0.987415 0.305568
H59   H     H_    0.318390 0.075280 0.646005 0.291397
H60   H     H_    0.985687 0.523493 0.749953 0.309007
H61   H     H_    0.051289 0.790883 0.074022 0.326966
H62   H     H_    0.856655 0.574640 0.433194 0.203510
H63   H     H_    0.776337 0.472451 0.422766 0.186464
H64   H     H_    0.851423 0.087901 0.385867 0.309833
H65   H     H_    0.097391 0.014009 0.453550 0.229309
H66   H     H_    0.023570 0.970762 0.396937 0.205724
H67   H     H_    0.866112 0.117847 0.694377 0.099713
H68   H     H_    0.526744 0.274074 0.304119 0.142476
H69   H     H_    0.575105 0.243159 0.660826 -0.049485
N1    N     N_R   0.943960 0.512676 0.204529 -0.432494
N2    N     N_3   0.786037 0.533152 0.410528 -0.463651
N3    N     N_3   0.026580 0.967381 0.435175 -0.445316
N4    N     N_R   0.260549 0.494220 0.798055 -0.428164
N5    N     N_3   0.758011 0.172783 0.612978 -0.446162
N6    N     N_3   0.866822 0.874406 0.637808 -0.461198
N7    N     N_3   0.763002 0.201331 0.295282 -0.413098
N8    N     N_3   0.682407 0.349760 0.276091 -0.491879
N9    N     N_3   0.762426 0.214910 0.752299 -0.477536
N10   N     N_3   0.321318 0.199681 0.738810 -0.450761
N11   N     N_3   0.680147 0.770629 0.360596 -0.560418
O1    O     O_2   0.906480 0.548660 0.619050 -0.447627
O2    O     O_2   0.195410 0.818585 0.467042 -0.417877
O3    O     O_3   0.056164 0.799532 0.377867 -0.556941
O4    O     O_3   0.138490 0.548590 0.558870 -0.507695
O5    O     O_3   0.572560 0.389960 0.472890 -0.512555
O6    O     O_2   0.345660 0.723580 0.528500 -0.454899
O7    O     O_3   0.537537 0.754507 0.609584 -0.675531
O8    O     O_2   0.400122 0.545883 0.323936 -0.530534
O9    O     O_3   0.431932 0.717081 0.330164 -0.590832
O10   O     O_2   0.048212 0.366008 0.197610 -0.575516
O11   O     O_2   0.379016 0.351200 0.801026 -0.616478
O12   O     O_3   0.651654 0.258438 0.392430 -0.576354
O13   O     O_2   0.830791 0.656985 0.203252 -0.551488
O14   O     O_2   0.148973 0.640086 0.804323 -0.554084
O15   O     O_3   0.686300 0.382310 0.585700 -0.484335
O16   O     O_2   0.755557 0.473913 0.672905 -0.440531
O17   O     O_3   0.036616 0.692689 0.628229 -0.581795
O18   O     O_3   0.791921 0.300257 0.671010 -0.581921
O19   O     O_2   0.844040 0.276390 0.471470 -0.420252
O20   O     O_3   0.101510 0.335500 0.560330 -0.491821
O21   O     O_2   0.019082 0.177021 0.523269 -0.455278
O22   O     O_3   0.393274 0.156884 0.353648 -0.742974
O23   O     O_3   0.108822 0.192035 0.616350 -0.585833
O24   O     O_3   0.304476 0.112896 0.424759 -0.816684
O25   O     O_3   0.124619 0.136078 0.359057 -0.690155
O26   O     O_3   0.363719 0.681524 0.646282 -0.768127
O27   O     O_3   0.126287 0.786354 0.276529 -0.616496
O28   O     O_3   0.436791 0.812114 0.404404 -0.680115
O29   O     O_3   0.292480 0.901467 0.326363 -0.647925
O30   O     O_3   0.880024 0.751131 0.138003 -0.658567
O31   O     O_3   0.857466 0.714427 0.964477 -0.668160
O32   O     O_3   0.365509 0.128985 0.640094 -0.809485
O33   O     O_3   0.004083 0.547592 0.718977 -0.674941
O34   O     O_2   0.283210 0.451310 0.380920 -0.464819
O35   O     O_3   0.030313 0.746362 0.044803 -0.680956
O36   O     O_3   0.843978 0.124902 0.419205 -0.662225
O37   O     O_3   0.051220 0.451340 0.441120 -0.521427
O38   O     O_3   0.503410 0.617620 0.414290 -0.409864
O39   O     O_3   0.147033 0.308296 0.369649 -0.626547
O40   O     O_3   0.617150 0.609960 0.527100 -0.490445
O41   O     O_3   0.088210 0.664420 0.439670 -0.508640
P1    P     P_3+3 0.071950 0.575820 0.612140 1.086522
P2    P     P_3+3 0.664370 0.290050 0.457240 1.062029
P3    P     P_3+3 0.149101 0.218848 0.557777 0.993506
P4    P     P_3+3 0.117760 0.424110 0.387850 0.983433
P5    P     P_3+3 0.048036 0.779896 0.440089 1.011418
P6    P     P_3+3 0.670461 0.393495 0.650484 0.967681
P7    P     P_3+3 0.530992 0.722982 0.544548 0.964957
P8    P     P_3+3 0.512742 0.612742 0.348907 0.992640

loop_
_geom_bond_atom_site_label_1
_geom_bond_atom_site_label_2
_ccdc_geom_bond_type
H49   N10   S    
H59   O32   S    
C68   N1    Am   
Ba2   O5    S    
H64   O36   S    
C39   O30   S    
C5    C14   S    
C52   O17   S    
C53   C54   A    
H33   N5    S    
H35   N5    S    
C55   C60   A    
C52   C63   S    
O17   P1    S    
C62   H29   S    
O40   P7    S    
H50   N10   S    
C30   P6    S    
C16   H30   S    
C4    O32   S    
H47   N9    S    
H57   O30   S    
H52   N11   S    
C17   C19   A    
C22   C24   A    
H44   N8    S    
O7    P7    S    
C35   C38   A    
H60   O33   S    
C36   C37   A    
C68   O10   D    
C53   P7    S    
C27   N4    Am   
H38   O25   S    
Ba1   O20   S    
C54   C55   A    
C64   O12   S    
C6    P4    S    
Ba1   O5    S    
C32   C33   S    
C28   O39   S    
C66   O28   S    
C59   C61   A    
C65   H68   S    
Ba2   O37   S    
C11   C38   A    
H66   N3    S    
C17   C35   A    
C7    H15   S    
C22   C27   A    
C9    C13   A    
C25   C42   A    
H65   N3    S    
C52   H1    S    
C66   C67   S    
Ba2   O40   S    
C11   H16   S    
H55   O29   S    
C21   C22   A    
C1    H67   S    
H40   N6    S    
C34   H6    S    
C7    C8    S    
H54   O28   S    
C42   H22   S    
C56   H10   S    
C37   C43   A    
Ba1   O40   S    
C63   H23   S    
C64   C65   S    
H53   N11   S    
C14   N2    S    
C57   C58   A    
Ba2   O4    S    
C59   C60   A    
C15   C31   D    
O21   P3    D    
C19   C24   A    
C31   C32   D    
C44   C46   A    
Ba1   O37   S    
C4    C16   S    
C12   N5    S    
O9    P8    S    
C46   C49   A    
C29   H17   S    
C64   H45   S    
H46   O26   S    
C27   O11   D    
C46   C55   A    
C17   C20   A    
C2    O13   D    
Ba2   O41   S    
C13   C39   A    
O18   P6    S    
H41   N7    S    
C3    C5    S    
C18   C37   A    
O2    P5    D    
C6    C7    D    
O19   P2    D    
C8    N1    S    
C45   O3    S    
O38   P8    S    
C51   H27   S    
C41   O31   S    
C64   H56   S    
C44   C62   A    
C58   C59   A    
C9    C36   A    
Ba1   P2    S    
C41   C42   A    
Ba1   P1    S    
C35   C36   A    
O5    P2    S    
C34   H5    S    
O15   P6    S    
C2    N1    Am   
O39   P4    S    
C29   C30   S    
Ba1   O15   S    
C47   C50   A    
C53   C62   A    
C28   H32   S    
C65   N7    S    
C48   C49   A    
C24   C25   A    
C61   P3    S    
C32   O33   S    
C26   N4    Am   
Ba2   O34   S    
C10   C11   A    
O12   P2    S    
C3    H21   S    
C1    C12   S    
C40   O22   S    
C56   H9    S    
H61   O35   S    
O1    P1    D    
C4    O23   S    
C47   C48   A    
H39   N6    S    
C21   H18   S    
C31   P1    S    
C40   O24   S    
C29   C33   D    
C57   H26   S    
C45   H7    S    
C63   N6    S    
C16   N10   S    
C52   H12   S    
C18   C41   A    
C50   C51   A    
C26   O14   D    
C66   O9    S    
O20   P3    S    
H58   O31   S    
C49   N3    S    
H62   N2    S    
C66   N11   S    
O4    P1    S    
C34   H4    S    
Ba2   O6    S    
C47   C60   A    
O37   P4    S    
H36   O22   S    
O6    P7    D    
C50   P2    S    
O41   P5    S    
H51   O27   S    
C9    C10   A    
C44   P5    S    
Ba2   P4    S    
H37   O24   S    
O34   P4    D    
H63   N2    S    
C63   H34   S    
C54   C57   A    
C40   O25   S    
C38   H20   S    
H43   N8    S    
C2    C13   A    
H48   N9    S    
C1    H2    S    
O16   P6    D    
C3    C8    D    
C67   H14   S    
C67   O29   S    
C45   C56   S    
C23   O7    S    
C51   C61   A    
C23   O26   S    
C43   O35   S    
O3    P5    S    
Ba1   Ba2   S    
C28   H31   S    
Ba1   O19   S    
C20   H19   S    
H42   N7    S    
Ba1   O1    S    
C56   O27   S    
C23   H3    S    
C10   C68   A    
C5    P8    S    
Ba1   O4    S    
Ba2   O38   S    
C12   H69   S    
O23   P3    S    
C67   H11   S    
C23   C34   S    
C58   H25   S    
C1    N9    S    
C18   C19   A    
C6    C14   D    
C4    H13   S    
C65   N8    S    
C25   C26   A    
C15   C30   S    
C39   C43   A    
C20   C21   A    
C28   C40   S    
C15   H24   S    
C16   H28   S    
C45   H8    S    
O8    P8    D    
C12   O18   S    
C33   N4    S    
C48   O36   S    
