data_mof_unit_51721.cif
_audit_creation_date              2012-12-10T18:13:53-0500
_audit_creation_method            fapswitch 2.2
_symmetry_space_group_name_H-M    P1
_symmetry_Int_Tables_number       1
_space_group_crystal_system       triclinic
_cell_length_a                    10.727618
_cell_length_b                    9.455744
_cell_length_c                    23.507126
_cell_angle_alpha                 90.160047
_cell_angle_beta                  91.006054
_cell_angle_gamma                 90.01922
_cell_volume                      2384.1296084

loop_
_atom_site_label
_atom_site_type_symbol
_atom_type_description
_atom_site_fract_x
_atom_site_fract_y
_atom_site_fract_z
_atom_type_partial_charge
C1    C     C_R   0.259832 0.499748 0.499540 0.784180
C2    C     C_R   0.306668 0.609340 0.969355 -0.106120
C3    C     C_R   0.306818 0.609309 0.028356 -0.112332
C4    C     C_R   0.410330 0.558623 0.059288 0.008779
C5    C     C_R   0.515875 0.507454 0.030426 -0.059313
C6    C     C_R   0.620648 0.457330 0.061745 -0.174190
C7    C     C_R   0.726445 0.408712 0.031755 0.350890
C8    C     C_R   0.725663 0.407173 0.971720 0.356851
C9    C     C_R   0.410143 0.557964 0.118741 0.562156
C10   C     C_R   0.614421 0.458107 0.122067 0.618184
C11   C     C_R   0.578705 0.600826 0.241754 -0.075397
C12   C     C_R   0.498124 0.499866 0.391141 0.843968
C13   C     C_R   0.574347 0.598728 0.300957 -0.275972
C14   C     C_R   0.498689 0.500364 0.328736 -0.117798
C15   C     C_R   0.424827 0.405365 0.296256 0.337890
C16   C     C_R   0.429559 0.408468 0.236947 -0.107141
C17   C     C_R   0.506614 0.505484 0.209606 0.264486
C18   C     C_R   0.426780 0.410209 0.761675 -0.140032
C19   C     C_R   0.421694 0.408146 0.702281 0.366973
C20   C     C_R   0.497786 0.500989 0.671365 -0.191918
C21   C     C_R   0.574942 0.597290 0.700764 -0.264779
C22   C     C_R   0.578771 0.600214 0.760065 0.448400
C23   C     C_R   0.740037 0.499796 0.499717 0.787920
C24   C     C_R   0.505412 0.505150 0.790781 0.170986
C25   C     C_3   0.074398 0.567627 0.554752 -0.375129
C26   C     C_3   0.071308 0.345117 0.495551 -0.365783
C27   C     C_3   0.930599 0.568732 0.554584 -0.327916
C28   C     C_3   0.928656 0.345195 0.495924 -0.360318
C29   C     C_3   0.069936 0.582820 0.447475 -0.358123
C30   C     C_3   0.121923 0.498893 0.499295 0.123595
C31   C     C_3   0.878184 0.499018 0.499395 0.111834
C32   C     C_3   0.925982 0.582277 0.447376 -0.387566
C33   C     C_3   0.624919 0.084329 0.517911 0.339067
C34   C     C_3   0.624933 0.916385 0.517838 0.350803
C35   C     C_3   0.407749 0.083544 0.541199 -0.174300
C36   C     C_3   0.407272 0.916649 0.540995 -0.197788
C37   C     C_3   0.468001 0.082971 0.444323 -0.284197
C38   C     C_3   0.468553 0.916099 0.444230 -0.305801
C39   C     C_R   0.498026 0.500151 0.608901 0.916033
C40   C     C_R   0.611494 0.452325 0.879946 0.685912
C41   C     C_R   0.409421 0.557727 0.880391 0.592549
C42   C     C_R   0.409816 0.558145 0.939855 0.004016
C43   C     C_R   0.515386 0.506640 0.970189 -0.061425
C44   C     C_R   0.619181 0.454463 0.940319 -0.185361
Cu1   Cu    Cu3+1 0.499860 0.642410 0.500030 0.951780
Cu2   Cu    Cu3+1 0.499860 0.357590 0.500030 0.989089
H1    H     H_    0.224950 0.649219 0.946936 0.212459
H2    H     H_    0.633556 0.669349 0.677672 0.245143
H3    H     H_    0.109661 0.678013 0.558772 0.178227
H4    H     H_    0.103646 0.293065 0.455895 0.193103
H5    H     H_    0.110087 0.507831 0.592372 0.206699
H6    H     H_    0.107042 0.281773 0.532233 0.195620
H7    H     H_    0.896450 0.511277 0.592533 0.198566
H8    H     H_    0.897180 0.282962 0.533072 0.226912
H9    H     H_    0.897808 0.679884 0.557664 0.221553
H10   H     H_    0.892250 0.291978 0.456711 0.169431
H11   H     H_    0.103953 0.694018 0.449061 0.171814
H12   H     H_    0.103527 0.534922 0.407240 0.190960
H13   H     H_    0.891468 0.693239 0.448532 0.174289
H14   H     H_    0.889779 0.533283 0.407265 0.168155
H15   H     H_    0.225181 0.649101 0.049644 0.208782
H16   H     H_    0.694134 0.118450 0.486024 0.052200
H17   H     H_    0.694205 0.881946 0.485946 0.055915
H18   H     H_    0.427327 0.121303 0.585116 0.249351
H19   H     H_    0.425134 0.877788 0.584915 0.216453
H20   H     H_    0.312661 0.122043 0.529889 0.157401
H21   H     H_    0.312182 0.879034 0.528979 0.149493
H22   H     H_    0.631372 0.672810 0.325175 0.161381
H23   H     H_    0.372734 0.336006 0.211874 0.186844
H24   H     H_    0.368563 0.338802 0.785486 0.206216
N1    N     N_R   0.509010 0.505433 0.851881 -0.458833
N2    N     N_R   0.510704 0.507778 0.148645 -0.472378
N3    N     N_3   0.500250 0.143650 0.501250 -0.190195
N4    N     N_3   0.500250 0.856350 0.501250 -0.174987
O1    O     O_R   0.317570 0.620260 0.500030 -0.605124
O2    O     O_R   0.317570 0.379740 0.500030 -0.582475
O3    O     O_R   0.499840 0.620290 0.417900 -0.602619
O4    O     O_R   0.499840 0.379710 0.417900 -0.561254
O5    O     O_R   0.682190 0.620260 0.500010 -0.569360
O6    O     O_R   0.682190 0.379740 0.500010 -0.572740
O7    O     O_R   0.499920 0.620230 0.582140 -0.553735
O8    O     O_R   0.499920 0.379770 0.582140 -0.506258
O9    O     O_2   0.704001 0.396794 0.848961 -0.408003
O10   O     O_2   0.310265 0.609517 0.851067 -0.482583
O11   O     O_2   0.310212 0.607475 0.146680 -0.499937
O12   O     O_2   0.709439 0.408340 0.154433 -0.447988
Cl1   Cl    Cl    0.312778 0.294860 0.668628 -0.609171
Cl2   Cl    Cl    0.674609 0.725384 0.794970 -0.457260
Cl3   Cl    Cl    0.681693 0.158592 0.584318 -0.517417
Cl4   Cl    Cl    0.682198 0.843557 0.583953 -0.566796
H25   H     H_    0.374521 0.121463 0.430293 0.225829
H26   H     H_    0.375844 0.876087 0.429541 0.192747
H27   H     H_    0.535432 0.120637 0.412325 0.181953
H28   H     H_    0.537052 0.879043 0.412505 0.164292
Cl5   Cl    Cl    0.864284 0.350139 0.067410 -0.412233
Cl6   Cl    Cl    0.863007 0.348198 0.937837 -0.380058
H29   H     H_    0.637919 0.676596 0.220783 0.165767
Cl7   Cl    Cl    0.319552 0.287342 0.327715 -0.653793

loop_
_geom_bond_atom_site_label_1
_geom_bond_atom_site_label_2
_ccdc_geom_bond_type
C18   H24   S    
C40   N1    A    
C41   C42   A    
C19   C20   A    
C8    Cl6   S    
C9    N2    A    
Cu2   O2    S    
C28   H10   S    
C36   H21   S    
C7    C8    A    
Cu1   Cu2   S    
C29   C30   S    
C18   C24   A    
C29   C32   S    
C33   Cl3   S    
C26   H4    S    
C5    C6    A    
C27   H9    S    
C15   C16   A    
C38   H26   S    
C18   C19   A    
C34   H17   S    
C9    O11   S    
Cu2   O8    S    
C11   C17   A    
C31   C32   S    
C33   H16   S    
C12   O4    A    
C35   H18   S    
C22   Cl2   S    
C23   O6    A    
C35   N3    S    
C41   N1    A    
C21   H2    S    
C5    C43   A    
C13   C14   A    
C40   O9    S    
C3    H15   S    
C37   H25   S    
C27   C31   S    
C1    O1    A    
C39   O7    A    
Cu2   O4    S    
C20   C39   S    
C28   H8    S    
C36   H19   S    
C16   C17   A    
C35   H20   S    
C41   O10   S    
Cu1   N4    S    
C35   C36   S    
C23   C31   S    
C43   C44   A    
C25   H5    S    
C37   C38   S    
C26   H6    S    
C34   Cl4   S    
C12   O3    A    
C38   H28   S    
C33   C34   S    
C37   H27   S    
Cu1   O5    S    
C20   C21   A    
C36   N4    S    
C34   N4    S    
C33   N3    S    
C12   C14   S    
C26   C30   S    
C22   C24   A    
C42   C43   A    
C32   H14   S    
C15   Cl7   S    
C3    C4    A    
C38   N4    S    
C25   C30   S    
C37   N3    S    
C10   O12   S    
C1    O2    A    
C26   C28   S    
C28   C31   S    
Cu1   O7    S    
C16   H23   S    
C8    C44   A    
C39   O8    A    
C29   H11   S    
C4    C5    A    
C6    C10   A    
C27   H7    S    
C6    C7    A    
C2    H1    S    
C25   C27   S    
C7    Cl5   S    
C19   Cl1   S    
C11   H29   S    
Cu1   O1    S    
C2    C3    A    
Cu2   O6    S    
C11   C13   A    
C2    C42   A    
C1    C30   S    
C25   H3    S    
C40   C44   A    
C29   H12   S    
C17   N2    S    
C14   C15   A    
Cu1   O3    S    
C32   H13   S    
C23   O5    A    
C4    C9    A    
C21   C22   A    
Cu2   N3    S    
C24   N1    S    
C13   H22   S    
C10   N2    A    
