data_mof_unit_46871.cif
_audit_creation_date              2012-12-11T14:21:23-0500
_audit_creation_method            fapswitch 2.2
_symmetry_space_group_name_H-M    P1
_symmetry_Int_Tables_number       1
_space_group_crystal_system       triclinic
_cell_length_a                    21.957563
_cell_length_b                    7.205776
_cell_length_c                    14.923474
_cell_angle_alpha                 89.580952
_cell_angle_beta                  106.842226
_cell_angle_gamma                 89.854658
_cell_volume                      2259.84272632

loop_
_atom_site_label
_atom_site_type_symbol
_atom_type_description
_atom_site_fract_x
_atom_site_fract_y
_atom_site_fract_z
_atom_type_partial_charge
O1    O     O_R   0.584770 0.505770 0.002090 -0.540963
O2    O     O_R   0.415230 0.005770 0.997910 -0.541802
O3    O     O_R   0.467060 0.173340 0.861950 -0.538062
O4    O     O_R   0.532940 0.673340 0.138050 -0.538434
C1    C     C_R   0.455234 0.345127 0.826039 0.677338
C2    C     C_R   0.544668 0.843408 0.174058 0.677846
O5    O     O_R   0.587510 0.175890 0.993210 -0.540914
O6    O     O_R   0.412490 0.675890 0.006790 -0.540695
O7    O     O_R   0.536540 0.008150 0.130100 -0.537184
O8    O     O_R   0.463460 0.508150 0.869900 -0.536566
C3    C     C_R   0.612962 0.344774 0.997402 0.730435
C4    C     C_R   0.387046 0.845080 0.002688 0.731600
O9    O     O_3   0.483140 0.340040 0.044760 -0.378207
O10   O     O_3   0.516860 0.840040 0.955240 -0.377588
V1    V     V_3+5 0.503130 0.064190 0.991700 1.417309
V2    V     V_3+5 0.496870 0.564190 0.008300 1.418488
C5    C     C_2   0.214512 0.727566 0.005528 -0.118252
C6    C     C_2   0.786152 0.227819 0.996607 -0.143946
C7    C     C_2   0.180430 0.886505 0.996885 -0.309981
C8    C     C_2   0.819568 0.387046 0.003269 -0.305999
H1    H     H_    0.191763 0.596838 0.012578 0.150294
H2    H     H_    0.809494 0.097037 0.991288 0.152807
H3    H     H_    0.201712 0.018686 0.989006 0.129611
H4    H     H_    0.797753 0.519340 0.009521 0.134364
C9    C     C_2   0.282382 0.714774 0.005183 -0.139253
C10   C     C_2   0.718232 0.214495 0.996579 -0.140178
C11   C     C_2   0.319978 0.861711 0.003835 -0.304917
C12   C     C_2   0.680040 0.361195 0.996390 -0.303330
H5    H     H_    0.301920 0.575788 0.006726 0.137825
H6    H     H_    0.699208 0.075439 0.996192 0.139339
H7    H     H_    0.301762 0.001586 0.003371 0.130875
H8    H     H_    0.697849 0.501067 0.995945 0.132777
C13   C     C_R   0.925223 0.889510 0.724517 -0.107008
C14   C     C_R   0.073640 0.378947 0.275742 -0.112590
C15   C     C_R   0.572422 0.846000 0.275584 -0.026013
C16   C     C_R   0.426949 0.356181 0.724758 -0.021731
C17   C     C_R   0.935526 0.889759 0.568044 -0.163910
C18   C     C_R   0.066374 0.272588 0.425832 -0.169110
C19   C     C_R   0.963362 0.885876 0.664373 -0.258717
C20   C     C_R   0.038346 0.301948 0.330705 -0.258173
C21   C     C_R   0.858535 0.895439 0.688602 0.372167
C22   C     C_R   0.137966 0.425082 0.315713 0.366310
C23   C     C_R   0.829282 0.875022 0.590417 -0.019494
C24   C     C_R   0.169824 0.368542 0.409689 -0.022020
C25   C     C_R   0.869118 0.885982 0.530669 0.091816
C26   C     C_R   0.131552 0.304431 0.465645 0.090386
C27   C     C_R   0.762409 0.847952 0.549256 0.058661
C28   C     C_R   0.237554 0.371690 0.450122 0.057501
C29   C     C_R   0.735482 0.866807 0.450169 0.056122
C30   C     C_R   0.264261 0.343295 0.548744 0.056918
C31   C     C_R   0.777079 0.891002 0.394406 -0.184457
C32   C     C_R   0.223173 0.293540 0.602252 -0.186555
C33   C     C_R   0.842551 0.894340 0.433914 -0.175669
C34   C     C_R   0.158536 0.269672 0.560820 -0.177821
C35   C     C_R   0.722428 0.789795 0.602974 -0.163121
C36   C     C_R   0.279618 0.387758 0.394602 -0.165203
C37   C     C_R   0.657420 0.769319 0.563325 -0.231845
C38   C     C_R   0.345015 0.395891 0.434453 -0.230140
C39   C     C_R   0.629725 0.800988 0.468051 0.145039
C40   C     C_R   0.371404 0.384244 0.531119 0.144707
C41   C     C_R   0.668148 0.851080 0.409867 0.080371
C42   C     C_R   0.331546 0.357386 0.589878 0.081018
C43   C     C_R   0.563986 0.774942 0.429794 -0.161549
C44   C     C_R   0.437727 0.395475 0.569422 -0.160620
C45   C     C_R   0.535753 0.794099 0.333873 -0.171574
C46   C     C_R   0.465329 0.381252 0.665784 -0.174213
C47   C     C_R   0.637584 0.878429 0.313185 -0.214053
C48   C     C_R   0.360867 0.345831 0.687620 -0.211898
H9    H     H_    0.872740 0.905802 0.388087 0.118965
H10   H     H_    0.129281 0.223382 0.603970 0.120022
H11   H     H_    0.663053 0.920085 0.264606 0.098851
H12   H     H_    0.333892 0.332793 0.737235 0.094347
H13   H     H_    0.485430 0.766189 0.304840 0.107604
H14   H     H_    0.516542 0.390487 0.694424 0.104619
H15   H     H_    0.628710 0.724224 0.607485 0.126986
H16   H     H_    0.375313 0.409401 0.388890 0.127485
H17   H     H_    0.966043 0.894327 0.522516 0.124039
H18   H     H_    0.037452 0.218793 0.467864 0.126354
H19   H     H_    0.014754 0.885588 0.692147 0.125585
H20   H     H_    0.988747 0.266797 0.299964 0.129571
H21   H     H_    0.760859 0.898691 0.319146 0.119917
H22   H     H_    0.239841 0.262075 0.675984 0.120569
H23   H     H_    0.740644 0.748173 0.675294 0.186130
H24   H     H_    0.263655 0.383850 0.319335 0.187601
H25   H     H_    0.534682 0.734326 0.473855 0.114445
H26   H     H_    0.468286 0.415177 0.524668 0.113673
O11   O     O_R   0.036450 0.233070 0.130130 -0.545945
O12   O     O_R   0.963550 0.733070 0.869870 -0.539012
O13   O     O_R   0.912470 0.560570 0.006790 -0.541778
O14   O     O_R   0.087530 0.060570 0.993210 -0.545490
C49   C     C_R   0.886947 0.392081 0.002417 0.723333
C50   C     C_R   0.113069 0.891790 0.997695 0.726908
O15   O     O_R   0.032920 0.562940 0.138050 -0.535743
O16   O     O_R   0.967080 0.062940 0.861950 -0.545117
O17   O     O_R   0.084790 0.730500 0.002090 -0.532381
O18   O     O_R   0.915210 0.230500 0.997910 -0.536305
C51   C     C_R   0.045043 0.393462 0.174418 0.750229
C52   C     C_R   0.954901 0.895246 0.825618 0.754775
O19   O     O_3   0.016820 0.396170 0.955260 -0.382076
O20   O     O_3   0.983180 0.896170 0.044740 -0.382008
V3    V     V_3+5 0.996880 0.672090 0.008300 1.439680
V4    V     V_3+5 0.003120 0.172090 0.991700 1.418414
O21   O     O_3   0.823606 0.930161 0.750464 -0.574769
C53   C     C_3   0.807555 0.120536 0.745253 -0.260319
H27   H     H_    0.776666 0.160326 0.674454 0.145425
H28   H     H_    0.850797 0.209045 0.764796 0.148323
H29   H     H_    0.780341 0.148542 0.795795 0.168639
O22   O     O_3   0.168027 0.525026 0.261474 -0.573665
C54   C     C_3   0.169017 0.713651 0.286536 -0.234687
H30   H     H_    0.198261 0.735184 0.360172 0.142564
H31   H     H_    0.120049 0.769301 0.275903 0.145556
H32   H     H_    0.191009 0.794755 0.240649 0.160516

loop_
_geom_bond_atom_site_label_1
_geom_bond_atom_site_label_2
_ccdc_geom_bond_type
C43   C45   A    
C17   C25   A    
O18   V4    S    
C14   C22   A    
O2    C4    A    
C2    O7    A    
C53   H28   S    
O12   V3    S    
C38   H16   S    
C27   C29   A    
C2    C15   S    
O5    C3    A    
C13   C19   A    
C14   C20   A    
C54   H31   S    
C16   C46   A    
C37   C39   A    
C15   C45   A    
C38   C40   A    
C46   H14   S    
C1    C16   S    
C14   C51   S    
C45   H13   S    
O22   C54   S    
C40   C42   A    
C13   C52   S    
O14   V4    S    
C7    C50   S    
C49   O18   A    
C8    H4    S    
C24   C26   A    
C29   C31   A    
C6    C10   S    
C30   C32   A    
C20   H20   S    
O13   C49   A    
C31   H21   S    
C47   H11   S    
C48   H12   S    
C28   C30   A    
C33   H9    S    
O6    V2    S    
C43   H25   S    
C21   C23   A    
C22   C24   A    
C44   H26   S    
C53   H27   S    
C32   C34   A    
C36   H24   S    
C9    H5    S    
C8    C49   S    
C39   C41   A    
C29   C41   A    
C4    C11   S    
C11   H7    S    
C12   H8    S    
O4    C2    A    
C54   H32   S    
O15   V3    S    
C18   H18   S    
C17   H17   S    
C50   O17   A    
C5    H1    S    
C21   O21   S    
C31   C33   A    
C19   H19   S    
O4    V2    S    
C7    H3    S    
O11   V4    S    
C41   C47   A    
O14   C50   A    
C34   H10   S    
C15   C47   A    
O6    C4    A    
C26   C34   A    
O1    V2    S    
C32   H22   S    
O2    V1    S    
C23   C25   A    
C10   H6    S    
C35   C37   A    
C30   C42   A    
C35   H23   S    
O15   C51   A    
O3    V1    S    
C27   C35   A    
C28   C36   A    
O13   V3    S    
C6    H2    S    
C10   C12   D    
O3    C1    A    
C16   C48   A    
C9    C11   D    
C39   C43   A    
C42   C48   A    
C40   C44   A    
C13   C21   A    
C37   H15   S    
O7    V1    S    
C5    C9    S    
C1    O8    A    
C17   C19   A    
O8    V2    S    
C54   H30   S    
C18   C20   A    
C23   C27   A    
C3    C12   S    
O5    V1    S    
O20   V3    S    
C5    C7    D    
C36   C38   A    
C6    C8    D    
C18   C26   A    
C25   C33   A    
O17   V3    S    
O19   V4    S    
O16   V4    S    
O9    V2    S    
O21   C53   S    
O16   C52   A    
O10   V1    S    
O1    C3    A    
C22   O22   S    
C53   H29   S    
O12   C52   A    
C24   C28   A    
C44   C46   A    
O11   C51   A    
