data_mof_unit_48599.cif
_audit_creation_date              2012-12-11T17:24:13-0500
_audit_creation_method            fapswitch 2.2
_symmetry_space_group_name_H-M    P1
_symmetry_Int_Tables_number       1
_space_group_crystal_system       triclinic
_cell_length_a                    22.867522
_cell_length_b                    7.196867
_cell_length_c                    20.924956
_cell_angle_alpha                 90.201732
_cell_angle_beta                  93.585799
_cell_angle_gamma                 90.308622
_cell_volume                      3436.89704222

loop_
_atom_site_label
_atom_site_type_symbol
_atom_type_description
_atom_site_fract_x
_atom_site_fract_y
_atom_site_fract_z
_atom_type_partial_charge
O1    O     O_R   0.307200 0.614510 0.194080 -0.541542
O2    O     O_R   0.692800 0.385490 0.805920 -0.541544
O3    O     O_R   0.192800 0.114510 0.305920 -0.524472
O4    O     O_R   0.807200 0.885490 0.694080 -0.524472
O5    O     O_R   0.188140 0.283260 0.181690 -0.510730
O6    O     O_R   0.811860 0.716740 0.818310 -0.510732
O7    O     O_R   0.311860 0.783260 0.318310 -0.548171
O8    O     O_R   0.688140 0.216740 0.681690 -0.548171
C1    C     C_R   0.169478 0.452929 0.164711 0.740054
C2    C     C_R   0.830522 0.547070 0.835289 0.740067
C3    C     C_R   0.330095 0.954588 0.335860 0.725049
C4    C     C_R   0.669904 0.045412 0.664140 0.725048
O9    O     O_R   0.306460 0.284700 0.186400 -0.522630
O10   O     O_R   0.693540 0.715300 0.813600 -0.522628
O11   O     O_R   0.193540 0.784700 0.313600 -0.541281
O12   O     O_R   0.806460 0.215300 0.686400 -0.541281
O13   O     O_R   0.311970 0.115840 0.310660 -0.533772
O14   O     O_R   0.688030 0.884160 0.689340 -0.533773
O15   O     O_R   0.188030 0.615840 0.189340 -0.544063
O16   O     O_R   0.811970 0.384160 0.810660 -0.544064
C5    C     C_R   0.325250 0.453458 0.171583 0.728901
C6    C     C_R   0.674750 0.546542 0.828417 0.728913
C7    C     C_R   0.174739 0.953238 0.328405 0.736166
C8    C     C_R   0.825261 0.046762 0.671595 0.736165
O17   O     O_3   0.251670 0.448440 0.290760 -0.373259
O18   O     O_3   0.748330 0.551560 0.709240 -0.373259
O19   O     O_3   0.248330 0.948440 0.209240 -0.365438
O20   O     O_3   0.751670 0.051560 0.790760 -0.365440
V1    V     V_3+5 0.249690 0.173030 0.242440 1.524934
V2    V     V_3+5 0.750310 0.826970 0.757560 1.524930
V3    V     V_3+5 0.250310 0.673030 0.257560 1.444746
V4    V     V_3+5 0.749690 0.326970 0.742440 1.444744
H1    H     H_    0.044187 0.286894 0.457888 0.116996
H2    H     H_    0.955813 0.713105 0.542112 0.116996
H3    H     H_    0.456524 0.787191 0.042287 0.116064
H4    H     H_    0.543476 0.212809 0.957713 0.116063
C9    C     C_R   0.980514 0.174465 0.519067 -0.152280
C10   C     C_R   0.019485 0.825534 0.480933 -0.152280
C11   C     C_R   0.519924 0.674339 0.981053 -0.147972
C12   C     C_R   0.480076 0.325661 0.018947 -0.147972
H5    H     H_    0.965942 0.310534 0.533392 0.114622
H6    H     H_    0.034058 0.689466 0.466608 0.114622
H7    H     H_    0.534840 0.810306 0.966815 0.115274
H8    H     H_    0.465160 0.189694 0.033185 0.115274
C13   C     C_R   0.954984 0.013588 0.543350 0.133428
C14   C     C_R   0.045016 0.986412 0.456650 0.133428
C15   C     C_R   0.545050 0.513285 0.956679 0.133267
C16   C     C_R   0.454950 0.486715 0.043321 0.133267
C17   C     C_R   0.974835 0.839032 0.523956 -0.144775
C18   C     C_R   0.025165 0.160968 0.476044 -0.144775
C19   C     C_R   0.524766 0.338857 0.975948 -0.151475
C20   C     C_R   0.475234 0.661143 0.024052 -0.151476
C21   C     C_1   0.908867 0.027280 0.588224 -0.047833
C22   C     C_1   0.091133 0.972720 0.411776 -0.047833
C23   C     C_1   0.591180 0.526701 0.911812 -0.052122
C24   C     C_1   0.408820 0.473299 0.088188 -0.052122
C25   C     C_1   0.129412 0.962668 0.374037 -0.151742
C26   C     C_1   0.870587 0.037332 0.625963 -0.151742
C27   C     C_1   0.370547 0.463276 0.125937 -0.154972
C28   C     C_1   0.629453 0.536724 0.874063 -0.154967
C29   C     C_R   0.418822 0.824913 0.393877 -0.252766
C30   C     C_R   0.581178 0.175088 0.606123 -0.252765
C31   C     C_R   0.067381 0.536224 0.131106 -0.244663
C32   C     C_R   0.932619 0.463779 0.868894 -0.244668
C33   C     C_R   0.377385 0.967946 0.388180 -0.092624
C34   C     C_R   0.622615 0.032054 0.611820 -0.092624
C35   C     C_R   0.120802 0.461416 0.114196 -0.085122
C36   C     C_R   0.879197 0.538584 0.885804 -0.085121
C37   C     C_R   0.383588 0.124785 0.430023 -0.069151
C38   C     C_R   0.616412 0.875214 0.569978 -0.069151
C39   C     C_R   0.127196 0.404719 0.049723 -0.042367
C40   C     C_R   0.872803 0.595279 0.950278 -0.042369
C41   C     C_R   0.433527 0.139762 0.473938 0.015806
C42   C     C_R   0.566473 0.860237 0.526062 0.015807
C43   C     C_R   0.078298 0.417959 0.003981 0.023804
C44   C     C_R   0.921701 0.582042 0.996019 0.023801
C45   C     C_R   0.475172 0.994342 0.477890 0.063399
C46   C     C_R   0.524828 0.005658 0.522110 0.063399
C47   C     C_R   0.024526 0.492405 0.022564 0.059137
C48   C     C_R   0.975473 0.507597 0.977436 0.059138
C49   C     C_R   0.467177 0.836773 0.438071 0.095520
C50   C     C_R   0.532823 0.163226 0.561929 0.095520
C51   C     C_R   0.019628 0.552371 0.086141 0.107478
C52   C     C_R   0.980372 0.447632 0.913859 0.107479
C53   C     C_R   0.442644 0.294751 0.515042 -0.187305
C54   C     C_R   0.557356 0.705249 0.484959 -0.187305
C55   C     C_R   0.081171 0.355961 0.940125 -0.186163
C56   C     C_R   0.918829 0.644042 0.059875 -0.186165
C57   C     C_R   0.491664 0.306387 0.557951 -0.169562
C58   C     C_R   0.508336 0.693612 0.442049 -0.169562
C59   C     C_R   0.033135 0.371554 0.895917 -0.165755
C60   C     C_R   0.966865 0.628450 0.104083 -0.165753
H9    H     H_    0.414287 0.704994 0.362375 0.124755
H10   H     H_    0.585713 0.295006 0.637625 0.124754
H11   H     H_    0.063041 0.582175 0.180017 0.113467
H12   H     H_    0.936959 0.417830 0.819983 0.113467
H13   H     H_    0.412249 0.409178 0.514799 0.125493
H14   H     H_    0.587750 0.590822 0.485201 0.125493
H15   H     H_    0.120186 0.292392 0.923543 0.121789
H16   H     H_    0.879814 0.707613 0.076457 0.121787
H17   H     H_    0.497224 0.428116 0.588435 0.127573
H18   H     H_    0.502776 0.571884 0.411565 0.127573
H19   H     H_    0.037298 0.322949 0.847336 0.124682
H20   H     H_    0.962703 0.677056 0.152664 0.124682
C61   C     C_2   0.337193 0.268764 0.429965 0.407264
H21   H     H_    0.348620 0.415200 0.429269 0.029684
O21   O     O_2   0.285731 0.224191 0.431877 -0.523457
C62   C     C_2   0.662806 0.731234 0.570036 0.407267
H22   H     H_    0.651378 0.584798 0.570734 0.029682
O22   O     O_2   0.714268 0.775805 0.568123 -0.523456
C63   C     C_2   0.185360 0.346169 0.028611 0.326277
H23   H     H_    0.199527 0.390899 0.982589 0.051174
O23   O     O_2   0.217640 0.245539 0.061450 -0.519343
C64   C     C_2   0.814639 0.653821 0.971391 0.326276
H24   H     H_    0.800475 0.609101 0.017415 0.051177
O24   O     O_2   0.782354 0.754428 0.938549 -0.519349

loop_
_geom_bond_atom_site_label_1
_geom_bond_atom_site_label_2
_ccdc_geom_bond_type
O17   V3    S    
C39   C43   A    
O1    C5    A    
C55   C59   A    
O19   V1    S    
O13   V1    S    
O3    C7    A    
C63   H23   S    
C16   C24   S    
C40   C44   A    
O15   V3    S    
C64   H24   S    
C10   C17   A    
C45   C46   A    
O7    C3    A    
C51   C60   A    
C61   O21   D    
C50   C57   A    
C32   C36   A    
C15   C23   S    
C5    C27   S    
C16   C20   A    
C6    C28   S    
O4    C8    A    
C29   H9    S    
C31   H11   S    
O1    V3    S    
C40   C64   S    
C62   H22   S    
O2    V4    S    
O3    V1    S    
C12   C16   A    
C38   C42   A    
C58   H18   S    
C1    O15   A    
C32   C52   A    
C56   C60   A    
C2    O16   A    
C39   C63   S    
O2    C6    A    
C37   C41   A    
O14   V2    S    
C52   C59   A    
C13   C17   A    
C44   C56   A    
O5    V1    S    
C36   C40   A    
O11   C7    A    
C11   C20   A    
C30   C50   A    
C13   C21   S    
O12   C8    A    
C23   C28   T    
O10   V2    S    
C55   H15   S    
C11   H7    S    
C31   C35   A    
O7    V3    S    
C30   C34   A    
C48   C52   A    
O8    V4    S    
C32   H12   S    
C54   C58   A    
C53   C57   A    
O18   V4    S    
C15   C19   A    
H1    C18   S    
C4    C34   S    
C31   C51   A    
C1    C35   S    
O5    C1    A    
C46   C50   A    
C45   C49   A    
O8    C4    A    
C14   C22   S    
O9    C5    A    
C63   O23   D    
C42   C54   A    
C41   C53   A    
C56   H16   S    
H4    C19   S    
C49   C58   A    
C43   C55   A    
O6    V2    S    
C30   H10   S    
C9    C13   A    
C11   C15   A    
O16   V4    S    
O9    V1    S    
C7    C25   S    
C3    O13   A    
H2    C17   S    
C37   C61   S    
C57   H17   S    
C44   C48   A    
C59   H19   S    
O6    C2    A    
C64   O24   D    
C21   C26   T    
O11   V3    S    
C2    C36   S    
O12   V4    S    
C12   C19   A    
C61   H21   S    
C14   C18   A    
C24   C27   T    
O10   C6    A    
O20   V2    S    
C38   C62   S    
C47   C51   A    
C9    C18   A    
C34   C38   A    
C33   C37   A    
C62   O22   D    
C35   C39   A    
C9    H5    S    
C54   H14   S    
C10   C14   A    
C53   H13   S    
C60   H20   S    
C47   C48   A    
C10   H6    S    
C29   C33   A    
C12   H8    S    
C8    C26   S    
C42   C46   A    
C4    O14   A    
H3    C20   S    
C41   C45   A    
C29   C49   A    
C43   C47   A    
O4    V2    S    
C3    C33   S    
C22   C25   T    
