data_mof_unit_53462.cif
_audit_creation_date              2012-12-10T19:08:41-0500
_audit_creation_method            fapswitch 2.2
_symmetry_space_group_name_H-M    P1
_symmetry_Int_Tables_number       1
_space_group_crystal_system       triclinic
_cell_length_a                    13.041915
_cell_length_b                    13.637798
_cell_length_c                    27.315933
_cell_angle_alpha                 89.910262
_cell_angle_beta                  93.143816
_cell_angle_gamma                 85.530619
_cell_volume                      4836.34684193

loop_
_atom_site_label
_atom_site_type_symbol
_atom_type_description
_atom_site_fract_x
_atom_site_fract_y
_atom_site_fract_z
_atom_type_partial_charge
C1    C     C_R   0.480990 0.685088 0.499586 0.889711
C2    C     C_R   0.502749 0.657048 0.127923 -0.085195
C3    C     C_R   0.495283 0.515458 0.647064 -0.134244
C4    C     C_R   0.495304 0.524459 0.352992 -0.159648
C5    C     C_R   0.480578 0.681783 0.025516 0.010284
C6    C     C_R   0.347936 0.568883 0.969272 0.000446
C7    C     C_R   0.365772 0.548835 0.019875 0.053918
C8    C     C_R   0.491736 0.673084 0.974404 0.056900
C9    C     C_R   0.429513 0.608362 0.048413 0.026740
C10   C     C_R   0.422341 0.618814 0.946064 0.026730
C11   C     C_R   0.519581 0.758305 0.054573 0.092791
C12   C     C_R   0.519021 0.314905 0.500574 0.904671
C13   C     C_R   0.260891 0.540384 0.940895 0.118766
C14   C     C_R   0.537221 0.742144 0.105792 0.189942
C15   C     C_R   0.268050 0.530389 0.889601 0.191135
C16   C     C_R   0.499717 0.499836 0.594392 0.883924
C17   C     C_R   0.499457 0.504028 0.405669 0.885700
C18   C     C_R   0.577489 0.705550 0.952292 -0.297678
C19   C     C_R   0.330987 0.465179 0.041278 -0.286203
C20   C     C_1   0.534643 0.212050 0.499268 -0.211958
C21   C     C_1   0.465495 0.787834 0.496391 -0.217050
C22   C     C_2   0.545903 0.020827 0.495049 0.148889
C23   C     C_R   0.430685 0.609770 0.895127 -0.138010
C24   C     C_2   0.455341 0.978833 0.489998 0.149442
C25   C     C_1   0.456643 0.874923 0.493209 -0.028089
C26   C     C_1   0.543887 0.124857 0.497484 -0.028157
C27   C     C_2   0.031972 0.478525 0.483276 0.043361
C28   C     C_2   0.967875 0.523544 0.516139 0.043882
C29   C     C_1   0.854813 0.518431 0.510934 0.110447
C30   C     C_1   0.145117 0.482415 0.488867 0.108054
C31   C     C_R   0.523282 0.634003 0.822207 0.479658
C32   C     C_R   0.423406 0.494699 0.171704 0.502284
C33   C     C_R   0.376969 0.538661 0.817792 0.525599
C34   C     C_R   0.444695 0.592471 0.099293 -0.147906
C35   C     C_R   0.518902 0.637080 0.178559 0.503801
C36   C     C_R   0.546452 0.479631 0.732872 0.169341
C37   C     C_R   0.411882 0.604374 0.279604 0.170950
C38   C     C_R   0.558859 0.459773 0.682314 0.099776
C39   C     C_R   0.421516 0.596074 0.331418 0.098700
C40   C     C_R   0.424741 0.590764 0.661310 -0.275230
C41   C     C_R   0.565523 0.471378 0.324534 -0.255767
C42   C     C_R   0.413733 0.612926 0.710334 0.190620
C43   C     C_R   0.562272 0.484094 0.273639 0.193516
C44   C     C_R   0.473762 0.556749 0.746242 0.226754
C45   C     C_R   0.515021 0.647587 0.872826 -0.033318
C46   C     C_R   0.483348 0.548595 0.251337 0.195618
C47   C     C_3   0.013750 0.579997 0.559067 -0.404498
C48   C     C_3   0.934685 0.627180 0.593039 -0.844502
C49   C     C_3   0.986305 0.421728 0.440436 -0.402196
C50   C     C_3   0.064632 0.381581 0.404303 -0.847406
C51   C     C_3   0.338712 0.698441 0.723128 -0.386071
C52   C     C_3   0.227109 0.675399 0.711855 -0.845391
C53   C     C_3   0.640081 0.429781 0.241641 -0.366078
C54   C     C_3   0.727578 0.366981 0.268849 -0.898509
C55   C     C_3   0.764749 0.646276 0.882893 -0.716172
C56   C     C_R   0.404160 0.510312 0.121066 -0.044960
C57   C     C_3   0.200917 0.376284 0.123126 -0.707638
C58   C     C_3   0.361248 0.668378 0.363948 -0.367636
C59   C     C_3   0.251059 0.641426 0.370297 -0.795132
C60   C     C_3   0.636677 0.379048 0.665805 -0.399682
C61   C     C_3   0.742890 0.417429 0.661391 -0.824964
C62   C     C_3   0.325455 0.670575 0.253728 -0.386955
C63   C     C_3   0.232525 0.613407 0.238785 -0.842029
C64   C     C_3   0.607241 0.417904 0.772788 -0.408828
C65   C     C_3   0.551401 0.328113 0.786281 -0.852659
C66   C     C_3   0.697065 0.811790 0.130840 -0.721586
C67   C     C_R   0.590041 0.693792 0.902178 0.245467
C68   C     C_3   0.173614 0.392504 0.861807 -0.738871
C69   C     C_3   0.522664 0.861873 0.033021 -0.415184
C70   C     C_3   0.414917 0.903825 0.015324 -0.854075
C71   C     C_3   0.155623 0.539262 0.963241 -0.395526
C72   C     C_3   0.123569 0.638076 0.986479 -0.863937
C73   C     C_3   0.351067 0.036568 0.484290 -0.417364
C74   C     C_3   0.309697 0.062758 0.534183 -0.828746
C75   C     C_3   0.650026 0.963026 0.501702 -0.416467
C76   C     C_3   0.676415 0.937911 0.555614 -0.826659
C77   C     C_R   0.347482 0.446096 0.091345 0.238515
C78   C     C_R   0.357360 0.558910 0.867125 -0.114093
H1    H     H_    0.378844 0.634383 0.633616 0.166563
H2    H     H_    0.103436 0.442687 0.388170 0.256579
H3    H     H_    0.123064 0.328541 0.422966 0.261392
H4    H     H_    0.024361 0.342710 0.374138 0.247737
H5    H     H_    0.947645 0.358925 0.455060 0.208556
H6    H     H_    0.927096 0.470793 0.419656 0.210570
H7    H     H_    0.212753 0.661603 0.672106 0.253650
H8    H     H_    0.209152 0.609894 0.732958 0.291469
H9    H     H_    0.174573 0.738952 0.722360 0.241559
H10   H     H_    0.347662 0.718963 0.762319 0.206725
H11   H     H_    0.354780 0.764285 0.701648 0.201987
H12   H     H_    0.621908 0.419400 0.342795 0.173295
H13   H     H_    0.771663 0.412803 0.294746 0.265042
H14   H     H_    0.696725 0.305717 0.288852 0.261742
H15   H     H_    0.781170 0.334541 0.241952 0.254766
H16   H     H_    0.598856 0.381192 0.216028 0.228552
H17   H     H_    0.675755 0.484797 0.219318 0.215265
H18   H     H_    0.705967 0.787638 0.897582 0.212390
H19   H     H_    0.830986 0.673106 0.864371 0.237919
H20   H     H_    0.739570 0.580625 0.862922 0.247098
H21   H     H_    0.790324 0.625024 0.921201 0.208706
H22   H     H_    0.320398 0.299215 0.089806 0.211257
H23   H     H_    0.640884 0.731546 0.974525 0.140171
H24   H     H_    0.177406 0.308985 0.140962 0.235668
H25   H     H_    0.150581 0.391905 0.089402 0.205741
H26   H     H_    0.190473 0.438518 0.149015 0.251659
H27   H     H_    0.199918 0.665733 0.338160 0.246074
H28   H     H_    0.248467 0.560936 0.375472 0.268735
H29   H     H_    0.220472 0.679263 0.403031 0.240076
H30   H     H_    0.400730 0.672771 0.400681 0.200801
H31   H     H_    0.361370 0.744860 0.350152 0.178363
H32   H     H_    0.739284 0.478142 0.634168 0.277252
H33   H     H_    0.773010 0.445196 0.697070 0.246728
H34   H     H_    0.295799 0.410465 0.018795 0.137981
H35   H     H_    0.797600 0.357074 0.649211 0.242970
H36   H     H_    0.643061 0.315077 0.691122 0.208876
H37   H     H_    0.611199 0.348258 0.629968 0.197550
H38   H     H_    0.164382 0.665704 0.230029 0.237659
H39   H     H_    0.214178 0.563551 0.268699 0.270740
H40   H     H_    0.247167 0.569212 0.205642 0.268456
H41   H     H_    0.352226 0.706089 0.220755 0.207403
H42   H     H_    0.298917 0.733351 0.276491 0.203050
H43   H     H_    0.479332 0.350982 0.804276 0.287754
H44   H     H_    0.532253 0.284319 0.753289 0.256389
H45   H     H_    0.880029 0.680875 0.572438 0.260177
H46   H     H_    0.601512 0.280715 0.812324 0.243246
H47   H     H_    0.685426 0.393537 0.761639 0.211355
H48   H     H_    0.621136 0.461328 0.806404 0.208253
H49   H     H_    0.548526 0.880658 0.137213 0.220050
H50   H     H_    0.729609 0.863013 0.158012 0.239055
H51   H     H_    0.714252 0.835735 0.093494 0.203484
H52   H     H_    0.734636 0.736876 0.138223 0.253983
H53   H     H_    0.164217 0.532085 0.827902 0.263205
H54   H     H_    0.240481 0.353292 0.844879 0.273662
H55   H     H_    0.101871 0.375386 0.840882 0.232515
H56   H     H_    0.891530 0.569879 0.609805 0.259157
H57   H     H_    0.170068 0.365498 0.900015 0.218908
H58   H     H_    0.384119 0.860049 0.984410 0.266838
H59   H     H_    0.361851 0.903763 0.045781 0.256334
H60   H     H_    0.418178 0.980712 0.002402 0.244623
H61   H     H_    0.552534 0.914512 0.059905 0.205752
H62   H     H_    0.574564 0.864955 0.002664 0.202796
H63   H     H_    0.175191 0.652410 0.018898 0.267972
H64   H     H_    0.125596 0.698550 0.959333 0.259418
H65   H     H_    0.043849 0.637313 0.998756 0.242775
H66   H     H_    0.093731 0.525398 0.935256 0.231935
H67   H     H_    0.975043 0.666774 0.622920 0.248423
H68   H     H_    0.152991 0.479955 0.990559 0.193880
H69   H     H_    0.301247 0.994857 0.555634 0.257047
H70   H     H_    0.362537 0.109499 0.555074 0.262338
H71   H     H_    0.233068 0.104063 0.528982 0.247233
H72   H     H_    0.355395 0.104733 0.462415 0.210273
H73   H     H_    0.295349 0.992004 0.463765 0.206286
H74   H     H_    0.678703 0.006272 0.577580 0.257267
H75   H     H_    0.618440 0.891625 0.570104 0.263455
H76   H     H_    0.753188 0.896482 0.559473 0.245912
H77   H     H_    0.651931 0.894400 0.479787 0.211132
H78   H     H_    0.068425 0.529067 0.581381 0.212771
H79   H     H_    0.710766 0.007142 0.487949 0.207473
H80   H     H_    0.057770 0.639243 0.544541 0.207501
N1    N     N_R   0.458143 0.576415 0.796884 -0.343701
N2    N     N_R   0.476584 0.559397 0.199018 -0.351092
N3    N     N_1   0.234530 0.484780 0.492250 -0.102943
N4    N     N_1   0.765470 0.515220 0.507750 -0.103591
N5    N     N_2   0.681873 0.723332 0.882622 -0.248853
N6    N     N_2   0.307538 0.361117 0.110958 -0.250667
N7    N     N_2   0.587086 0.811978 0.135490 -0.250931
N8    N     N_2   0.182327 0.497674 0.861210 -0.305112
O1    O     O_R   0.402510 0.634760 0.497160 -0.614613
O2    O     O_2   0.388604 0.416539 0.194107 -0.543830
O3    O     O_2   0.574781 0.694998 0.207778 -0.546137
O4    O     O_2   0.317954 0.479803 0.790807 -0.591238
O5    O     O_R   0.597490 0.365240 0.502840 -0.608837
O6    O     O_R   0.572960 0.644530 0.502140 -0.599231
O7    O     O_R   0.427040 0.355470 0.497860 -0.600659
O8    O     O_R   0.414790 0.495100 0.568760 -0.610626
O9    O     O_R   0.585210 0.504900 0.431240 -0.613418
O10   O     O_R   0.585240 0.504870 0.573730 -0.604566
O11   O     O_R   0.414760 0.495130 0.426270 -0.598826
O12   O     O_2   0.596091 0.676403 0.798162 -0.542975
Zn1   Zn    Zn3+2 0.386190 0.493480 0.496680 0.957665
Zn2   Zn    Zn3+2 0.613810 0.506520 0.503320 0.960722

loop_
_geom_bond_atom_site_label_1
_geom_bond_atom_site_label_2
_ccdc_geom_bond_type
C2    C35   A    
C69   H61   S    
C72   H65   S    
O1    Zn1   S    
C52   H8    S    
C28   C47   S    
C34   C56   A    
C23   C45   A    
C73   H72   S    
C53   H17   S    
C58   H31   S    
C73   C74   S    
C60   H36   S    
C48   H45   S    
C37   C62   S    
C53   C54   S    
C1    C21   S    
C57   H24   S    
C28   C29   S    
C5    C9    A    
C59   H27   S    
C49   H6    S    
C74   H70   S    
C68   H55   S    
C5    C11   A    
C63   H39   S    
C11   C14   A    
C24   C73   S    
C15   C78   A    
C4    C41   A    
C76   H74   S    
C17   O11   A    
C76   H75   S    
C19   C77   A    
C65   H46   S    
C76   H76   S    
C68   H54   S    
C35   N2    A    
C54   H15   S    
C43   C53   S    
C3    C38   A    
O11   Zn1   S    
C45   C67   A    
C74   H71   S    
C65   H43   S    
N3    Zn1   S    
N4    Zn2   S    
C64   H47   S    
C42   C51   S    
C66   H51   S    
O6    Zn2   S    
C77   N6    S    
C40   C42   A    
C41   H12   S    
C73   H73   S    
C27   C30   S    
C70   H58   S    
C41   C43   A    
C55   H19   S    
C42   C44   A    
C22   C75   S    
C2    C14   A    
C61   H32   S    
C16   O8    A    
C12   O5    A    
C68   H57   S    
C72   H63   S    
C57   H25   S    
C59   H28   S    
C31   O12   S    
C51   C52   S    
C74   H69   S    
C33   O4    S    
C24   C25   S    
H53   N8    S    
H22   N6    S    
C63   H40   S    
C13   C71   S    
C18   C67   A    
C19   H34   S    
C39   C58   S    
C59   H29   S    
C56   C77   A    
C60   C61   S    
C18   H23   S    
C72   H64   S    
C75   C76   S    
O7    Zn1   S    
C54   H14   S    
C62   C63   S    
C67   N5    S    
C47   C48   S    
C4    C39   A    
O10   Zn2   S    
H49   N7    S    
C46   N2    S    
C48   H67   S    
C12   C20   S    
C40   H1    S    
C15   N8    S    
C65   H44   S    
C14   N7    S    
C62   H41   S    
O9    Zn2   S    
C38   C60   S    
C4    C17   S    
C3    C40   A    
C70   H60   S    
C7    C19   A    
C13   C15   A    
C22   C26   S    
C9    C34   A    
C35   O3    S    
C22   C24   D    
O5    Zn2   S    
C36   C44   A    
C63   H38   S    
C31   C45   A    
C61   H33   S    
C50   H4    S    
C48   H56   S    
C7    C9    A    
C57   H26   S    
C21   C25   T    
C52   H7    S    
C66   N7    S    
C53   H16   S    
C62   H42   S    
C29   N4    T    
C52   H9    S    
C50   H2    S    
C51   H10   S    
C6    C10   A    
C5    C8    A    
C17   O9    A    
C11   C69   S    
C75   H77   S    
C6    C7    A    
C10   C23   A    
C1    O6    A    
C64   H48   S    
H18   N5    S    
C64   C65   S    
C49   H5    S    
C32   O2    S    
C58   C59   S    
C55   N5    S    
C54   H13   S    
C37   C39   A    
C51   H11   S    
C6    C13   A    
C61   H35   S    
C75   H79   S    
C57   N6    S    
C20   C26   T    
C69   H62   S    
C55   H20   S    
C36   C38   A    
C66   H50   S    
C58   H30   S    
C23   C78   A    
C69   C70   S    
C33   C78   A    
C43   C46   A    
C8    C18   A    
C16   O10   A    
C27   C49   S    
C71   C72   S    
C71   H68   S    
C70   H59   S    
C8    C10   A    
C49   C50   S    
C47   H78   S    
C2    C34   A    
C55   H21   S    
C27   C28   D    
C44   N1    S    
C1    O1    A    
C71   H66   S    
C60   H37   S    
C30   N3    T    
C66   H52   S    
C37   C46   A    
C36   C64   S    
O8    Zn1   S    
C32   C56   A    
C31   N1    A    
C3    C16   S    
C33   N1    A    
C50   H3    S    
C12   O7    A    
C32   N2    A    
C47   H80   S    
C68   N8    S    
