data_mof_unit_43503.cif
_audit_creation_date              2012-10-26T20:17:14-0400
_audit_creation_method            fapswitch 2.2
_symmetry_space_group_name_H-M    P1
_symmetry_Int_Tables_number       1
_space_group_crystal_system       triclinic
_cell_length_a                    10.662238
_cell_length_b                    11.074747
_cell_length_c                    9.900926
_cell_angle_alpha                 112.246706
_cell_angle_beta                  99.012885
_cell_angle_gamma                 90.531218
_cell_volume                      1065.71835543

loop_
_atom_site_label
_atom_site_type_symbol
_atom_type_description
_atom_site_fract_x
_atom_site_fract_y
_atom_site_fract_z
_atom_type_partial_charge
C1    C     C_R   0.490471 0.253586 0.439110 0.597350
C2    C     C_3   0.123263 0.496103 0.498218 0.027920
C3    C     C_3   0.981535 0.534227 0.637925 0.108480
C4    C     C_3   0.018466 0.465777 0.362078 0.108509
C5    C     C_2   0.483832 0.112624 0.401544 0.134061
C6    C     C_2   0.515851 0.887361 0.598528 0.134018
C7    C     C_2   0.505606 0.069252 0.512291 -0.120889
C8    C     C_2   0.492870 0.930811 0.487917 -0.121414
C9    C     C_2   0.505271 0.513719 0.082232 0.026527
C10   C     C_2   0.494697 0.486311 0.917776 0.026459
C11   C     C_2   0.092593 0.310231 0.611543 0.242535
C12   C     C_R   0.509423 0.746406 0.560895 0.597295
C13   C     C_2   0.907408 0.689775 0.388466 0.242463
C14   C     C_3   0.072197 0.605905 0.900910 -0.281701
C15   C     C_3   0.927806 0.394088 0.099091 -0.281680
C16   C     C_3   0.678972 0.001017 0.811282 -0.298482
C17   C     C_3   0.322382 0.998938 0.186974 -0.298801
C18   C     C_2   0.647951 0.659064 0.954007 0.350612
C19   C     C_2   0.352118 0.340883 0.045959 0.350549
C20   C     C_R   0.259575 0.497440 0.499310 0.582557
C21   C     C_R   0.740425 0.502561 0.500690 0.582673
C22   C     C_3   0.046116 0.411733 0.553773 0.011819
C23   C     C_3   0.953885 0.588270 0.446230 0.011760
C24   C     C_3   0.940691 0.379825 0.415562 -0.173841
C25   C     C_3   0.059310 0.620178 0.584441 -0.173917
C26   C     C_3   0.876737 0.503900 0.501785 0.027867
Cu1   Cu    Cu3+1 0.522260 0.521810 0.644920 0.970160
Cu2   Cu    Cu3+1 0.477740 0.478190 0.355080 0.970263
H1    H     H_    0.890826 0.282440 0.345852 0.107730
H2    H     H_    0.044854 0.622921 0.010023 0.171848
H3    H     H_    0.124358 0.696192 0.908477 0.123330
H4    H     H_    0.135841 0.524640 0.875231 0.218881
H5    H     H_    0.104442 0.354573 0.185273 0.275821
H6    H     H_    0.955147 0.377080 0.989980 0.171832
H7    H     H_    0.864154 0.475344 0.124773 0.218935
H8    H     H_    0.875655 0.303795 0.091520 0.123348
H9    H     H_    0.492171 0.054022 0.782066 0.250173
H10   H     H_    0.724687 0.056415 0.756638 0.143801
H11   H     H_    0.726104 0.908652 0.795135 0.164175
H12   H     H_    0.109175 0.717563 0.654152 0.107572
H13   H     H_    0.691966 0.060844 0.931995 0.139399
H14   H     H_    0.508817 0.945775 0.218939 0.250523
H15   H     H_    0.275556 0.943685 0.240948 0.143445
H16   H     H_    0.310543 0.938998 0.066390 0.139675
H17   H     H_    0.275486 0.091300 0.202258 0.163886
H18   H     H_    0.650557 0.748596 0.933886 0.118157
H19   H     H_    0.349655 0.251291 0.065965 0.117669
H20   H     H_    0.465355 0.860626 0.375038 0.140446
H21   H     H_    0.532189 0.139499 0.625252 0.140764
H22   H     H_    0.430380 0.405909 0.838770 0.204774
H23   H     H_    0.569549 0.594153 0.161244 0.204884
H24   H     H_    0.028279 0.264193 0.655596 0.119785
H25   H     H_    0.971736 0.735846 0.344460 0.119795
H26   H     H_    0.895565 0.645434 0.814733 0.275766
N1    N     N_2   0.444270 0.445410 0.137360 -0.266267
N2    N     N_2   0.555730 0.554590 0.862640 -0.266342
N3    N     N_2   0.958893 0.573740 0.788820 -0.498779
N4    N     N_2   0.041110 0.426263 0.211184 -0.498767
N5    N     N_2   0.544533 0.973177 0.751022 -0.523730
N6    N     N_2   0.456492 0.026710 0.249022 -0.523655
O1    O     O_R   0.511880 0.332340 0.577400 -0.516504
O2    O     O_2   0.798318 0.721595 0.391151 -0.497752
O3    O     O_2   0.731339 0.645694 0.045832 -0.554022
O4    O     O_2   0.268644 0.354257 0.954220 -0.554065
O5    O     O_R   0.488120 0.667660 0.422600 -0.516401
O6    O     O_R   0.474280 0.295500 0.332650 -0.508767
O7    O     O_R   0.525720 0.704500 0.667350 -0.508750
O8    O     O_R   0.335640 0.518390 0.622350 -0.482722
O9    O     O_R   0.664360 0.481610 0.377650 -0.482575
O10   O     O_R   0.298050 0.481550 0.377590 -0.506311
O11   O     O_R   0.701950 0.518450 0.622410 -0.506278
O12   O     O_2   0.201669 0.278379 0.608810 -0.497882

loop_
_geom_bond_atom_site_label_1
_geom_bond_atom_site_label_2
_ccdc_geom_bond_type
C2    C22   S    
C1    O1    A    
Cu2   O6    S    
C21   C26   S    
C8    H20   S    
C5    N6    S    
H5    N4    S    
C9    N1    D    
C21   O11   A    
C10   N2    D    
C9    C10   S    
C19   O4    D    
C15   H6    S    
C2    C4    S    
Cu2   O9    S    
C9    H23   S    
C18   N2    S    
C14   H3    S    
Cu1   N2    S    
C17   H15   S    
C1    O6    A    
C17   H16   S    
C7    C8    S    
H14   N6    S    
C20   O10   A    
H9    N5    S    
C16   N5    S    
C14   H2    S    
C1    C5    S    
C18   H18   S    
C22   C24   S    
C15   H7    S    
C15   N4    S    
Cu2   N1    S    
C24   C26   S    
Cu2   O5    S    
C2    C25   S    
C13   H25   S    
C23   C25   S    
C25   H12   S    
C6    C12   S    
C4    C24   S    
C12   O7    A    
C19   H19   S    
C18   O3    D    
Cu1   O7    S    
C16   H11   S    
C2    C20   S    
C10   H22   S    
C3    N3    S    
C15   H8    S    
C3    C25   S    
C21   O9    A    
Cu1   O11   S    
C7    H21   S    
C11   C22   S    
C13   C23   S    
C12   O5    A    
C23   C26   S    
C19   N1    S    
Cu1   Cu2   S    
C5    C7    D    
C14   N3    S    
C24   H1    S    
C3    C22   S    
C6    C8    D    
C11   H24   S    
C17   N6    S    
Cu1   O8    S    
C4    N4    S    
C4    C23   S    
C11   O12   D    
C14   H4    S    
C6    N5    S    
C20   O8    A    
C3    C26   S    
Cu2   O10   S    
C13   O2    D    
C17   H17   S    
C16   H10   S    
C16   H13   S    
H26   N3    S    
Cu1   O1    S    
