data_mof_unit_23572.cif
_audit_creation_date              2012-12-11T15:14:49-0500
_audit_creation_method            fapswitch 2.2
_symmetry_space_group_name_H-M    P1
_symmetry_Int_Tables_number       1
_space_group_crystal_system       triclinic
_cell_length_a                    22.1955
_cell_length_b                    7.248696
_cell_length_c                    19.469151
_cell_angle_alpha                 89.999877
_cell_angle_beta                  98.641209
_cell_angle_gamma                 90.0
_cell_volume                      3096.80441385

loop_
_atom_site_label
_atom_site_type_symbol
_atom_type_description
_atom_site_fract_x
_atom_site_fract_y
_atom_site_fract_z
_atom_type_partial_charge
O1    O     O_R   0.448470 0.506130 0.415700 -0.534869
O2    O     O_R   0.551530 0.006130 0.584300 -0.534869
O3    O     O_R   0.436320 0.174490 0.555800 -0.534826
O4    O     O_R   0.563680 0.674490 0.444200 -0.534825
C1    C     C_R   0.422891 0.343624 0.577118 0.709530
C2    C     C_R   0.577109 0.843624 0.422882 0.709529
O5    O     O_R   0.441350 0.176340 0.414480 -0.536837
O6    O     O_R   0.558650 0.676340 0.585520 -0.536837
O7    O     O_R   0.556600 0.007100 0.441970 -0.529286
O8    O     O_R   0.443400 0.507100 0.558030 -0.529286
C3    C     C_R   0.425335 0.345310 0.390847 0.701266
C4    C     C_R   0.574665 0.845310 0.609153 0.701266
O9    O     O_3   0.537810 0.339550 0.509190 -0.375357
O10   O     O_3   0.462190 0.839550 0.490810 -0.375357
V1    V     V_3+5 0.492990 0.064280 0.498300 1.450766
V2    V     V_3+5 0.507010 0.564280 0.501700 1.450767
C5    C     C_R   0.880010 0.900795 0.695207 0.143519
C6    C     C_R   0.119990 0.400784 0.304793 0.143519
C7    C     C_R   0.889780 0.938814 0.820462 -0.065560
C8    C     C_R   0.110219 0.438812 0.179537 -0.065560
C9    C     C_R   0.594497 0.832761 0.736819 -0.045199
C10   C     C_R   0.405503 0.332767 0.263181 -0.045199
C11   C     C_R   0.631731 0.837917 0.800647 -0.160266
C12   C     C_R   0.368270 0.337924 0.199353 -0.160266
C13   C     C_R   0.694017 0.863450 0.805096 -0.152615
C14   C     C_R   0.305983 0.363455 0.194904 -0.152615
C15   C     C_R   0.722406 0.886752 0.745330 0.068726
C16   C     C_R   0.277594 0.386753 0.254670 0.068726
C17   C     C_R   0.684880 0.880340 0.678128 0.037278
C18   C     C_R   0.315120 0.380339 0.321872 0.037278
C19   C     C_R   0.787519 0.908428 0.751219 0.036755
C20   C     C_R   0.212481 0.408426 0.248781 0.036755
C21   C     C_R   0.815188 0.915799 0.690248 0.003498
C22   C     C_R   0.184811 0.415792 0.309752 0.003498
C23   C     C_R   0.777649 0.942170 0.625987 -0.047245
C24   C     C_R   0.222350 0.442160 0.374013 -0.047245
C25   C     C_R   0.714596 0.905023 0.618304 0.071116
C26   C     C_R   0.285403 0.405017 0.381696 0.071116
C27   C     C_R   0.826299 0.925239 0.816063 -0.247285
C28   C     C_R   0.173701 0.425241 0.183937 -0.247286
C29   C     C_R   0.917273 0.924579 0.760105 0.141369
C30   C     C_R   0.082727 0.424570 0.239894 0.141369
C31   C     C_R   0.619419 0.853316 0.674680 -0.113261
C32   C     C_R   0.380581 0.353317 0.325320 -0.113261
H1    H     H_    0.808844 0.932364 0.864673 0.104607
H2    H     H_    0.191156 0.432372 0.135327 0.104608
H3    H     H_    0.718776 0.860014 0.856977 0.113678
H4    H     H_    0.281224 0.360019 0.143022 0.113678
H5    H     H_    0.612319 0.820579 0.848143 0.125175
H6    H     H_    0.387682 0.320589 0.151856 0.125175
C33   C     C_3   0.772096 0.782240 0.302706 0.077697
C34   C     C_3   0.227904 0.282241 0.697294 0.077697
C35   C     C_3   0.801194 0.967086 0.285874 -0.048352
C36   C     C_3   0.198806 0.467089 0.714126 -0.048352
C37   C     C_1   0.875760 0.943062 0.121542 -0.178059
C38   C     C_1   0.124240 0.443063 0.878458 -0.178058
C39   C     C_1   0.623013 0.851100 0.377291 -0.148100
C40   C     C_1   0.376987 0.351099 0.622709 -0.148100
C41   C     C_3   0.762663 0.732723 0.224209 0.180418
C42   C     C_3   0.237337 0.232723 0.775791 0.180418
C43   C     C_3   0.791734 0.918330 0.207889 0.021883
C44   C     C_3   0.208265 0.418331 0.792110 0.021883
C45   C     C_3   0.699401 0.826830 0.214945 0.142125
C46   C     C_3   0.300598 0.326828 0.785055 0.142126
C47   C     C_3   0.708681 0.875236 0.293109 0.101286
C48   C     C_3   0.291320 0.375235 0.706892 0.101286
C49   C     C_3   0.728291 0.013127 0.197950 -0.184043
C50   C     C_3   0.271709 0.513126 0.802050 -0.184043
C51   C     C_3   0.737922 0.059379 0.276759 0.105748
C52   C     C_3   0.262078 0.559379 0.723241 0.105748
C53   C     C_1   0.837907 0.934873 0.160459 -0.017068
C54   C     C_1   0.162092 0.434874 0.839541 -0.017068
C55   C     C_1   0.661625 0.859385 0.339401 0.000887
C56   C     C_1   0.338375 0.359384 0.660599 0.000888
H7    H     H_    0.710076 0.108547 0.155247 0.133034
H8    H     H_    0.289925 0.608544 0.844753 0.133034
O11   O     O_R   0.056650 0.288730 0.942060 -0.534021
O12   O     O_R   0.943350 0.788730 0.057940 -0.534021
O13   O     O_R   0.058660 0.616870 0.085540 -0.538172
O14   O     O_R   0.941340 0.116870 0.914460 -0.538172
C57   C     C_R   0.072360 0.448493 0.110593 0.697741
C58   C     C_R   0.927639 0.948493 0.889406 0.697741
O15   O     O_R   0.063700 0.618520 0.944220 -0.534899
O16   O     O_R   0.936300 0.118520 0.055780 -0.534899
O17   O     O_R   0.948460 0.787610 0.915680 -0.531577
O18   O     O_R   0.051540 0.287610 0.084320 -0.531577
C59   C     C_R   0.078675 0.450453 0.924540 0.712372
C60   C     C_R   0.921325 0.950453 0.075460 0.712371
O19   O     O_3   0.962230 0.453430 0.990860 -0.375346
O20   O     O_3   0.037770 0.953430 0.009140 -0.375346
V3    V     V_3+5 0.007010 0.728750 0.001700 1.425379
V4    V     V_3+5 0.992990 0.228750 0.998300 1.425378
C61   C     C_3   0.986188 0.931788 0.764253 -0.750553
H9    H     H_    0.009686 0.986909 0.814295 0.196419
H10   H     H_    0.004284 0.791356 0.757335 0.213878
H11   H     H_    0.998780 0.024432 0.723265 0.218493
C62   C     C_3   0.013812 0.431775 0.235747 -0.750550
H12   H     H_    0.990313 0.486899 0.185705 0.196417
H13   H     H_    0.995717 0.291341 0.242663 0.213877
H14   H     H_    0.001219 0.524414 0.276735 0.218493
C63   C     C_3   0.797599 0.664785 0.365205 -0.757919
H15   H     H_    0.836836 0.582386 0.353183 0.226259
H16   H     H_    0.812983 0.755549 0.410361 0.225634
H17   H     H_    0.761607 0.573082 0.379629 0.218645
C64   C     C_3   0.202401 0.164787 0.634794 -0.757919
H18   H     H_    0.163163 0.082390 0.646817 0.226259
H19   H     H_    0.187017 0.255553 0.589639 0.225636
H20   H     H_    0.238393 0.073083 0.620371 0.218644
C65   C     C_3   0.723992 0.240629 0.309737 -0.772496
H21   H     H_    0.759673 0.340294 0.301627 0.224608
H22   H     H_    0.678532 0.292106 0.285938 0.229343
H23   H     H_    0.724892 0.221590 0.366452 0.226480
C66   C     C_3   0.276009 0.740630 0.690264 -0.772496
H24   H     H_    0.240328 0.840295 0.698374 0.224607
H25   H     H_    0.321469 0.792106 0.714063 0.229343
H26   H     H_    0.275111 0.721592 0.633549 0.226479
C67   C     C_3   0.641266 0.746596 0.174784 -0.766848
H27   H     H_    0.647366 0.723613 0.119902 0.211410
H28   H     H_    0.630711 0.613258 0.198360 0.219641
H29   H     H_    0.602955 0.843957 0.176614 0.220572
C68   C     C_3   0.358733 0.246591 0.825216 -0.766849
H30   H     H_    0.352633 0.223607 0.880098 0.211411
H31   H     H_    0.369288 0.113253 0.801639 0.219640
H32   H     H_    0.397044 0.343951 0.823386 0.220572
C69   C     C_3   0.776324 0.551970 0.189651 -0.781453
H33   H     H_    0.820231 0.494307 0.215588 0.216930
H34   H     H_    0.738945 0.452214 0.192014 0.217530
H35   H     H_    0.779360 0.576895 0.134041 0.211918
C70   C     C_3   0.223674 0.051969 0.810349 -0.781453
H36   H     H_    0.179768 0.994306 0.784409 0.216930
H37   H     H_    0.261054 0.952214 0.807986 0.217530
H38   H     H_    0.220636 0.076894 0.865957 0.211918
C71   C     C_1   0.801986 0.036088 0.569985 0.314357
N1    N     N_1   0.821038 0.111213 0.525361 -0.345400
C72   C     C_1   0.198013 0.536073 0.430016 0.314356
N2    N     N_1   0.178960 0.611194 0.474640 -0.345400
C73   C     C_3   0.909753 0.838443 0.633712 -0.713823
H39   H     H_    0.877091 0.767239 0.593652 0.207644
H40   H     H_    0.930505 0.958122 0.610463 0.226951
H41   H     H_    0.945571 0.733946 0.650013 0.222269
C74   C     C_3   0.090247 0.338425 0.366287 -0.713823
H42   H     H_    0.122909 0.267220 0.406347 0.207644
H43   H     H_    0.069494 0.458100 0.389537 0.226951
H44   H     H_    0.054429 0.233926 0.349985 0.222270
C75   C     C_1   0.529784 0.805689 0.736538 0.285948
N3    N     N_1   0.478074 0.784046 0.736238 -0.367939
C76   C     C_1   0.470217 0.305698 0.263462 0.285948
N4    N     N_1   0.521926 0.284057 0.263762 -0.367939
C77   C     C_3   0.681506 0.886423 0.545306 -0.761662
H45   H     H_    0.711801 0.884365 0.504940 0.202318
H46   H     H_    0.658342 0.750975 0.539534 0.200476
H47   H     H_    0.650373 0.005147 0.533684 0.215787
C78   C     C_3   0.318494 0.386417 0.454694 -0.761662
H48   H     H_    0.288199 0.384358 0.495061 0.202318
H49   H     H_    0.341658 0.250970 0.460466 0.200477
H50   H     H_    0.349627 0.505143 0.466316 0.215786
C79   C     C_1   0.857092 0.047923 0.324058 0.336280
N5    N     N_1   0.901100 0.111796 0.354088 -0.345308
C80   C     C_1   0.142909 0.547927 0.675942 0.336280
N6    N     N_1   0.098901 0.611802 0.645912 -0.345307

loop_
_geom_bond_atom_site_label_1
_geom_bond_atom_site_label_2
_ccdc_geom_bond_type
O15   C59   A    
C45   C47   S    
O11   V4    S    
O4    V2    S    
C61   H9    S    
C15   C17   A    
C67   H27   S    
C76   N4    T    
O1    C3    A    
C35   C51   S    
C23   C71   S    
C2    O7    A    
C75   N3    T    
O17   V3    S    
C34   C48   S    
C72   N2    T    
C48   C52   S    
O5    C3    A    
C73   H40   S    
C79   N5    T    
C1    C40   S    
C41   C69   S    
C46   C50   S    
C5    C73   S    
C23   C25   A    
C12   C14   A    
C66   H24   S    
C4    C31   S    
C77   H46   S    
C45   C67   S    
C11   H5    S    
C46   C68   S    
C48   C56   S    
C47   C55   S    
C18   C26   A    
C42   C44   S    
C33   C47   S    
C39   C55   T    
C37   C60   S    
C68   H32   S    
O19   V4    S    
C34   C42   S    
C65   H22   S    
C36   C80   S    
C9    C31   A    
C51   C65   S    
C29   C61   S    
C19   C27   A    
C38   C54   T    
C69   H35   S    
C19   C21   A    
C78   H49   S    
C7    C58   S    
C13   H3    S    
O13   V3    S    
C57   O18   A    
C14   H4    S    
C27   H1    S    
C66   H26   S    
C43   C53   S    
O6    V2    S    
O5    V1    S    
O2    C4    A    
C61   H10   S    
C8    C57   S    
C17   C31   A    
C2    C39   S    
C18   C32   A    
C5    C21   A    
C62   H13   S    
C34   C36   S    
C62   H12   S    
C52   C66   S    
C12   H6    S    
C64   H20   S    
C45   C49   S    
C41   C43   S    
C15   C19   A    
C63   H15   S    
C16   C20   A    
O14   C58   A    
C65   H21   S    
C77   H47   S    
O13   C57   A    
C38   C59   S    
C36   C44   S    
C6    C30   A    
C66   H25   S    
C33   C35   S    
C74   H43   S    
C20   C22   A    
O14   V4    S    
C28   H2    S    
C64   H19   S    
C43   C49   S    
C80   N6    T    
C36   C52   S    
C8    C28   A    
O6    C4    A    
C9    C75   S    
C44   C54   S    
C3    C32   S    
O1    V2    S    
C78   H50   S    
O2    V1    S    
C6    C22   A    
C68   H30   S    
C7    C27   A    
O4    C2    A    
C35   C79   S    
C34   C64   S    
C61   H11   S    
C65   H23   S    
C9    C11   A    
C71   N1    T    
C10   C12   A    
C30   C62   S    
C33   C41   S    
C35   C43   S    
C24   C26   A    
C24   C72   S    
C62   H14   S    
O3    V1    S    
C40   C56   T    
C70   H36   S    
C73   H39   S    
O12   C60   A    
C10   C32   A    
C14   C16   A    
C6    C74   S    
O16   C60   A    
C25   C77   S    
O3    C1    A    
C42   C70   S    
C8    C30   A    
C74   H44   S    
O12   V3    S    
C50   H8    S    
C58   O17   A    
O15   V3    S    
C64   H18   S    
C41   C45   S    
C63   H16   S    
C44   C50   S    
C42   C46   S    
C70   H38   S    
C67   H28   S    
O7    V1    S    
C1    O8    A    
O18   V4    S    
C74   H42   S    
O20   V3    S    
C69   H33   S    
C47   C51   S    
C73   H41   S    
C16   C18   A    
C21   C23   A    
C67   H29   S    
C22   C24   A    
C20   C28   A    
C5    C29   A    
C68   H31   S    
C11   C13   A    
C49   H7    S    
C10   C76   S    
O11   C59   A    
C50   C52   S    
O9    V2    S    
C17   C25   A    
C69   H34   S    
O10   V1    S    
O8    V2    S    
C63   H17   S    
O16   V4    S    
C26   C78   S    
C49   C51   S    
C78   H48   S    
C77   H45   S    
C37   C53   T    
C33   C63   S    
C7    C29   A    
C46   C48   S    
C70   H37   S    
C13   C15   A    
