data_mof_unit_16376.cif
_audit_creation_date              2012-12-11T20:46:39-0500
_audit_creation_method            fapswitch 2.2
_symmetry_space_group_name_H-M    P1
_symmetry_Int_Tables_number       1
_space_group_crystal_system       triclinic
_cell_length_a                    8.27387
_cell_length_b                    18.829231
_cell_length_c                    18.767802
_cell_angle_alpha                 100.699903
_cell_angle_beta                  93.337245
_cell_angle_gamma                 91.89538
_cell_volume                      2865.26728085

loop_
_atom_site_label
_atom_site_type_symbol
_atom_type_description
_atom_site_fract_x
_atom_site_fract_y
_atom_site_fract_z
_atom_type_partial_charge
Ba1   Ba    Ba6+2 0.153490 0.533960 0.468530 1.769635
Ba2   Ba    Ba6+2 0.656680 0.466030 0.531410 1.690222
C1    C     C_3   0.463439 0.805315 0.261390 -0.373810
C2    C     C_3   0.440011 0.734728 0.289390 0.323798
C3    C     C_3   0.550543 0.695621 0.710168 0.193511
C4    C     C_3   0.614936 0.733446 0.787338 -0.241166
C5    C     C_3   0.932041 0.267773 0.704307 0.282780
C6    C     C_3   0.025963 0.250699 0.772116 -0.220420
C7    C     C_3   0.428811 0.309045 0.716871 0.353685
C8    C     C_3   0.457297 0.285453 0.789660 -0.320340
C9    C     C_R   0.995281 0.955235 0.542984 0.001762
C10   C     C_R   0.081962 0.907380 0.579282 -0.072446
C11   C     C_R   0.213979 0.052087 0.569245 -0.082485
C12   C     C_3   0.906781 0.718167 0.244499 0.499360
C13   C     C_R   0.056535 0.026722 0.540830 0.053762
C14   C     C_R   0.270615 0.122251 0.568706 -0.082570
C15   C     C_R   0.173599 0.170961 0.539730 -0.033522
C16   C     C_R   0.019055 0.146377 0.506581 0.002731
C17   C     C_R   0.960090 0.073956 0.507069 0.062205
C18   C     C_R   0.227072 0.243501 0.542649 -0.007073
C19   C     C_R   0.125307 0.291494 0.515344 -0.291826
C20   C     C_R   0.977073 0.267897 0.477687 0.028067
C21   C     C_R   0.924433 0.193813 0.472121 -0.045476
C22   C     C_R   0.840246 0.930913 0.509374 0.030456
C23   C     C_3   0.966439 0.735920 0.173252 -0.162938
C24   C     C_R   0.783205 0.857714 0.506689 0.028854
C25   C     C_R   0.880537 0.808965 0.537802 -0.033657
C26   C     C_R   0.025049 0.836511 0.577324 -0.013503
C27   C     C_R   0.780963 0.165152 0.432729 0.048237
C28   C     C_R   0.721395 0.095426 0.434415 -0.066184
C29   C     C_R   0.805194 0.049457 0.473762 -0.000434
C30   C     C_R   0.742199 0.978853 0.477650 0.049451
C31   C     C_R   0.581933 0.954864 0.452340 -0.076358
C32   C     C_R   0.628520 0.833404 0.472959 -0.007594
C33   C     C_R   0.526594 0.883962 0.450360 -0.094254
C34   C     C_3   0.740695 0.334592 0.298239 0.280293
C35   C     C_R   0.580050 0.759375 0.463299 0.011613
C36   C     C_R   0.684577 0.710833 0.487981 -0.240837
C37   C     C_R   0.830088 0.734453 0.528142 0.032193
C38   C     C_2   0.580622 0.538844 0.303416 -0.155127
C39   C     C_3   0.681783 0.577572 0.256174 -0.060933
C40   C     C_2   0.648317 0.549142 0.175714 -0.119620
C41   C     C_2   0.520276 0.502749 0.150418 -0.051972
C42   C     C_2   0.426254 0.471090 0.203662 -0.090130
C43   C     C_1   0.466944 0.488464 0.274367 0.045293
C44   C     C_R   0.354355 0.476785 0.929907 0.468545
C45   C     C_3   0.709580 0.284616 0.224299 -0.406712
C46   C     C_R   0.464900 0.489500 0.071770 0.485669
C47   C     C_R   0.391990 0.502700 0.805621 -0.128000
C48   C     C_R   0.339835 0.499374 0.732884 0.049383
C49   C     C_R   0.090186 0.437302 0.751738 0.003561
C50   C     C_R   0.140266 0.441502 0.825447 -0.154602
C51   C     C_R   0.294940 0.472366 0.852625 -0.072037
C52   C     C_R   0.193298 0.463785 0.705521 -0.271022
C53   C     C_3   0.014086 0.620383 0.688022 0.283082
C54   C     C_3   0.047321 0.638394 0.770190 -0.373207
C55   C     C_3   0.294923 0.310980 0.362960 0.194371
C56   C     C_3   0.263241 0.228674 0.335791 -0.209113
H1    H     H_    0.695491 0.227678 0.231353 0.144932
H2    H     H_    0.598065 0.299656 0.195751 0.073163
H3    H     H_    0.812867 0.288233 0.189686 0.171797
H4    H     H_    0.124768 0.600244 0.662484 0.041541
H5    H     H_    0.916530 0.577354 0.675059 0.073541
H6    H     H_    0.139222 0.683905 0.785240 0.158082
H7    H     H_    0.092760 0.590906 0.790856 0.071633
H8    H     H_    0.933926 0.653758 0.796706 0.094858
H9    H     H_    0.183828 0.334741 0.385137 0.020313
H10   H     H_    0.392479 0.319340 0.407247 0.053355
H11   H     H_    0.346598 0.821676 0.238702 0.115892
H12   H     H_    0.249641 0.203057 0.384058 0.043648
H13   H     H_    0.558509 0.721841 0.313884 -0.126385
H14   H     H_    0.551505 0.799105 0.218386 0.128193
H15   H     H_    0.651481 0.667813 0.681758 -0.035961
H16   H     H_    0.658264 0.691955 0.818282 0.057737
H17   H     H_    0.514104 0.760706 0.816721 0.156146
H18   H     H_    0.510990 0.849190 0.305923 0.152074
H19   H     H_    0.891023 0.778251 0.155757 0.079725
H20   H     H_    0.021223 0.285789 0.668423 -0.114309
H21   H     H_    0.101401 0.203253 0.756458 0.062395
H22   H     H_    0.110453 0.296994 0.795667 0.067687
H23   H     H_    0.296413 0.312440 0.705749 -0.078152
H24   H     H_    0.489362 0.363214 0.720652 0.085662
H25   H     H_    0.403448 0.324063 0.832927 0.076114
H26   H     H_    0.588874 0.284137 0.803877 0.160619
H27   H     H_    0.400857 0.230659 0.787108 0.120218
H28   H     H_    0.167022 0.347224 0.519247 0.063793
H29   H     H_    0.392280 0.137383 0.591630 0.121485
H30   H     H_    0.097966 0.803588 0.606709 0.136415
H31   H     H_    0.711786 0.196455 0.400348 0.134538
H32   H     H_    0.403373 0.869145 0.429186 0.097564
H33   H     H_    0.646973 0.654185 0.479893 0.046842
H34   H     H_    0.298781 0.018636 0.591649 0.085347
H35   H     H_    0.194733 0.923114 0.610716 0.104564
H36   H     H_    0.610156 0.078033 0.402538 0.135232
H37   H     H_    0.778399 0.698679 0.233636 -0.405398
H38   H     H_    0.494746 0.990084 0.434269 0.077339
H39   H     H_    0.716654 0.574075 0.138708 0.118196
H40   H     H_    0.321491 0.434947 0.184060 0.112504
H41   H     H_    0.505640 0.531586 0.825871 0.112942
H42   H     H_    0.058884 0.421457 0.861063 0.135209
H43   H     H_    0.596838 0.556671 0.361810 0.067108
H44   H     H_    0.153083 0.462838 0.649442 0.055320
H45   H     H_    0.093872 0.757730 0.181939 0.018388
H46   H     H_    0.628346 0.336470 0.327054 0.015429
N1    N     N_R   0.502533 0.507975 0.953957 -0.237424
N2    N     N_R   0.556308 0.514376 0.023176 -0.234478
N3    N     N_R   0.317238 0.457346 0.047716 -0.202058
N4    N     N_R   0.263166 0.450990 0.978226 -0.207627
O1    O     O_2   0.117290 0.676350 0.548250 -0.416378
O2    O     O_3   0.341204 0.344411 0.305993 -0.647952
O3    O     O_3   0.010754 0.668203 0.268923 -0.529054
O4    O     O_2   0.693010 0.323600 0.451730 -0.492120
O5    O     O_3   0.941240 0.413050 0.457220 -0.430954
O6    O     O_3   0.453310 0.371360 0.582690 -0.480687
O7    O     O_3   0.867392 0.307978 0.336518 -0.619210
O8    O     O_3   0.371310 0.539060 0.587050 -0.479666
O9    O     O_3   0.867330 0.408540 0.621000 -0.476914
O10   O     O_2   0.759227 0.457685 0.750279 -0.484602
O11   O     O_3   0.816370 0.319853 0.725368 -0.602070
O12   O     O_3   0.869060 0.586940 0.542720 -0.491414
O13   O     O_3   0.438990 0.460930 0.412890 -0.496649
O14   O     O_2   0.623700 0.539890 0.674570 -0.472536
O15   O     O_3   0.418753 0.648788 0.717514 -0.664389
O16   O     O_2   0.557737 0.243600 0.526173 -0.501002
O17   O     O_3   0.494716 0.258882 0.662593 -0.594013
O18   O     O_3   0.356990 0.628630 0.417250 -0.460279
O19   O     O_2   0.246539 0.755371 0.472058 -0.408988
O20   O     O_3   0.967601 0.683067 0.663529 -0.658709
O21   O     O_3   0.314753 0.742728 0.337919 -0.537726
O22   O     O_2   0.186600 0.460070 0.325400 -0.396244
O23   O     O_3   0.942970 0.591450 0.378940 -0.416512
O24   O     O_2   0.000846 0.528100 0.246565 -0.397339
P1    P     P_3+3 0.945300 0.665790 0.568510 0.988787
P2    P     P_3+3 0.360080 0.438780 0.334620 1.013854
P3    P     P_3+3 0.905144 0.591335 0.286086 1.126748
P4    P     P_3+3 0.865000 0.334200 0.431430 1.032208
P5    P     P_3+3 0.884411 0.405933 0.713893 0.973320
P6    P     P_3+3 0.377811 0.722192 0.422431 1.073182
P7    P     P_3+3 0.440277 0.557191 0.678963 0.940459
P8    P     P_3+3 0.432603 0.278571 0.577967 0.945141
C57   C     C_2   0.391237 0.675269 0.225969 0.548391
H47   H     H_    0.437107 0.676120 0.172952 -0.028472
O25   O     O_2   0.305039 0.623805 0.233826 -0.512460
C58   C     C_2   0.111712 0.210991 0.286751 0.894952
O26   O     O_2   0.093302 0.237338 0.232108 -0.584863
O27   O     O_R   0.995700 0.161336 0.302113 -0.754829
H48   H     H_    0.902146 0.151058 0.263891 0.323011
C59   C     C_2   0.399670 0.195033 0.294576 0.476853
H49   H     H_    0.428215 0.211741 0.244563 0.046183
O28   O     O_2   0.471335 0.145771 0.313933 -0.609698
C60   C     C_2   0.485123 0.748475 0.665048 0.824802
O29   O     O_2   0.471495 0.812484 0.691354 -0.556271
O30   O     O_R   0.430048 0.723262 0.592904 -0.730411
H50   H     H_    0.449151 0.669941 0.576043 0.268149
C61   C     C_2   0.752179 0.787751 0.786669 0.489038
H51   H     H_    0.867841 0.770260 0.767806 0.035032
O31   O     O_2   0.734611 0.852194 0.807723 -0.500841
C62   C     C_2   0.844664 0.201510 0.659205 0.495889
H52   H     H_    0.777805 0.206431 0.609355 0.052877
O32   O     O_2   0.848650 0.142277 0.676691 -0.609623
C63   C     C_2   0.915602 0.236163 0.829274 0.566648
H53   H     H_    0.832253 0.189212 0.818592 0.054084
O33   O     O_2   0.919017 0.276973 0.888094 -0.558426
C64   C     C_2   0.912202 0.786479 0.301528 0.818445
O34   O     O_2   0.837003 0.838598 0.290190 -0.643867
O35   O     O_R   0.004172 0.790597 0.367098 -0.710136
H54   H     H_    0.007192 0.840614 0.398484 0.302509
C65   C     C_2   0.955987 0.670807 0.112876 0.865210
O36   O     O_2   0.045583 0.620911 0.115326 -0.554427
O37   O     O_R   0.844943 0.668153 0.053364 -0.748877
H55   H     H_    0.849517 0.621833 0.016106 0.326148
C66   C     C_2   0.790830 0.407661 0.286848 0.465235
H56   H     H_    0.786035 0.420836 0.232975 -0.056958
O38   O     O_2   0.835348 0.453820 0.339124 -0.550486

loop_
_geom_bond_atom_site_label_1
_geom_bond_atom_site_label_2
_ccdc_geom_bond_type
C53   C54   S    
C53   H4    S    
C8    H27   S    
C61   O31   D    
C32   C35   A    
C39   C40   S    
C8    H25   S    
C17   C29   A    
C27   H31   S    
C63   H53   S    
C5    C6    S    
C5    C62   S    
C42   C43   D    
C13   C17   A    
Ba2   O4    S    
C43   P2    S    
C48   C52   A    
C10   C26   A    
C23   H19   S    
C21   C27   A    
C64   O34   D    
C1    H11   S    
C59   O28   D    
O14   P7    D    
C32   C33   A    
O23   P3    S    
C6    C63   S    
C57   O25   D    
C28   C29   A    
Ba2   O5    S    
C56   C59   S    
C46   N3    A    
C7    O17   S    
O7    P4    S    
C54   H7    S    
C44   N1    A    
O15   P7    S    
C9    C22   A    
C15   C18   A    
C34   C45   S    
O12   P1    S    
Ba1   O1    S    
C38   H43   S    
C42   H40   S    
C24   C32   A    
C46   N2    A    
O21   P6    S    
C55   O2    S    
C25   C37   A    
C14   C15   A    
O5    P4    S    
C44   N4    A    
C26   H30   S    
C14   H29   S    
C60   O29   D    
C54   H6    S    
Ba1   O8    S    
O6    P8    S    
O13   P2    S    
O10   P5    D    
O18   P6    S    
C7    C8    S    
C4    C61   S    
C7    H24   S    
O8    P7    S    
C65   O37   S    
C45   H2    S    
C23   C65   S    
C52   H44   S    
C19   C20   A    
C62   O32   D    
O22   P2    D    
Ba1   O5    S    
C55   H9    S    
Ba1   P1    S    
C63   O33   D    
Ba2   O9    S    
C66   O38   D    
C4    H16   S    
Ba2   O14   S    
O17   P8    S    
C12   O3    S    
O9    P5    S    
C34   C66   S    
O4    P4    D    
O1    P1    D    
C16   C21   A    
O11   P5    S    
C5    O11   S    
C4    H17   S    
C36   C37   A    
Ba1   O18   S    
C58   O27   S    
Ba1   O22   S    
C40   H39   S    
C2    C57   S    
Ba2   O12   S    
C48   P7    S    
C16   C17   A    
C45   H1    S    
C36   H33   S    
C50   H42   S    
C12   C64   S    
Ba2   P4    S    
C49   C50   A    
C53   H5    S    
Ba1   O12   S    
C62   H52   S    
C41   C42   S    
C22   C30   A    
C35   C36   A    
C47   H41   S    
C23   H45   S    
C29   C30   A    
N3    N4    A    
C41   C46   S    
C15   C16   A    
C24   C25   A    
C18   C19   A    
C1    H18   S    
C5    H20   S    
C49   P5    S    
C65   O36   D    
O19   P6    D    
C9    C13   A    
C35   P6    S    
C11   C13   A    
C11   H34   S    
O35   H54   S    
C10   H35   S    
O2    P2    S    
C40   C41   D    
C55   H10   S    
Ba1   P2    S    
C31   H38   S    
C12   H37   S    
C39   P3    S    
C50   C51   A    
O27   H48   S    
C37   P1    S    
Ba2   O13   S    
C19   H28   S    
C38   C39   S    
O16   P8    D    
C56   H12   S    
C22   C24   A    
C58   O26   D    
Ba1   O23   S    
C45   H3    S    
C9    C10   A    
C2    O21   S    
N1    N2    A    
C3    O15   S    
C3    C60   S    
C34   H46   S    
C49   C52   A    
C38   C43   D    
C30   C31   A    
C18   P8    S    
C64   O35   S    
C1    H14   S    
C28   H36   S    
C6    H21   S    
O20   P1    S    
Ba2   O6    S    
O3    P3    S    
C55   C56   S    
C3    C4    S    
O24   P3    D    
C54   H8    S    
Ba1   Ba2   S    
C44   C51   S    
C8    H26   S    
C31   C33   A    
Ba2   O8    S    
C59   H49   S    
C60   O30   S    
C12   C23   S    
C3    H15   S    
Ba1   O13   S    
C47   C51   A    
C27   C28   A    
C66   H56   S    
C33   H32   S    
C56   C58   S    
C53   O20   S    
C47   C48   A    
O37   H55   S    
C11   C14   A    
C20   P4    S    
C61   H51   S    
C6    H22   S    
C20   C21   A    
O30   H50   S    
C57   H47   S    
C34   O7    S    
C2    H13   S    
C1    C2    S    
C7    H23   S    
C25   C26   A    
