data_mof_unit_40817.cif
_audit_creation_date              2012-12-11T15:22:33-0500
_audit_creation_method            fapswitch 2.2
_symmetry_space_group_name_H-M    P1
_symmetry_Int_Tables_number       1
_space_group_crystal_system       triclinic
_cell_length_a                    22.708074
_cell_length_b                    7.223456
_cell_length_c                    20.945613
_cell_angle_alpha                 89.828417
_cell_angle_beta                  93.309242
_cell_angle_gamma                 89.906727
_cell_volume                      3429.9751304

loop_
_atom_site_label
_atom_site_type_symbol
_atom_type_description
_atom_site_fract_x
_atom_site_fract_y
_atom_site_fract_z
_atom_type_partial_charge
O1    O     O_R   0.438030 0.494310 0.439340 -0.516938
O2    O     O_R   0.561970 0.994310 0.560660 -0.508943
O3    O     O_R   0.556900 0.822900 0.435960 -0.538486
O4    O     O_R   0.443100 0.322900 0.564040 -0.538173
C1    C     C_R   0.575617 0.655544 0.420818 0.718685
C2    C     C_R   0.423733 0.155616 0.578408 0.737159
O5    O     O_R   0.438170 0.823950 0.431660 -0.544076
O6    O     O_R   0.561830 0.323950 0.568340 -0.539640
O7    O     O_R   0.442390 0.995390 0.556340 -0.538792
O8    O     O_R   0.557610 0.495390 0.443660 -0.535427
C3    C     C_R   0.418551 0.655572 0.415604 0.731432
C4    C     C_R   0.582372 0.154789 0.583446 0.713120
O9    O     O_3   0.501520 0.661170 0.540910 -0.375172
O10   O     O_3   0.498480 0.161170 0.459090 -0.378631
V1    V     V_3+5 0.499720 0.935580 0.492410 1.429286
V2    V     V_3+5 0.500280 0.435580 0.507590 1.433814
C5    C     C_R   0.824927 0.233044 0.870457 0.428566
C6    C     C_R   0.184608 0.671718 0.118487 0.377584
C7    C     C_R   0.865647 0.083568 0.870369 -0.205696
C8    C     C_R   0.131747 0.581763 0.132746 -0.176771
C9    C     C_R   0.856317 0.940710 0.825647 -0.245992
C10   C     C_R   0.127375 0.498567 0.192913 -0.253157
C11   C     C_R   0.809393 0.948170 0.779075 0.002349
C12   C     C_R   0.174084 0.509895 0.240155 0.018044
C13   C     C_R   0.772430 0.105820 0.775334 -0.063480
C14   C     C_R   0.225934 0.607537 0.226842 -0.038186
C15   C     C_R   0.780683 0.249607 0.820541 0.058989
C16   C     C_R   0.231002 0.690099 0.166088 0.036777
C17   C     C_R   0.799231 0.801282 0.735791 0.399926
C18   C     C_R   0.169649 0.427557 0.300844 0.411220
C19   C     C_R   0.752020 0.812321 0.689649 -0.268859
C20   C     C_R   0.217182 0.437800 0.346735 -0.257842
C21   C     C_R   0.716350 0.971364 0.683705 -0.052724
C22   C     C_R   0.268833 0.535379 0.334309 -0.055173
C23   C     C_R   0.726335 0.118234 0.727075 0.017604
C24   C     C_R   0.273123 0.621163 0.274080 0.018759
C25   C     C_R   0.689725 0.276363 0.722933 0.109828
C26   C     C_R   0.324690 0.720127 0.260859 0.131946
C27   C     C_R   0.698904 0.419511 0.767324 -0.187447
C28   C     C_R   0.328885 0.802964 0.200687 -0.188445
C29   C     C_R   0.743528 0.405832 0.815817 -0.078782
C30   C     C_R   0.282826 0.787307 0.153761 -0.162052
C31   C     C_R   0.670563 0.984591 0.635357 0.393505
C32   C     C_R   0.316173 0.549701 0.381064 0.404898
C33   C     C_R   0.632991 0.142234 0.631819 -0.183722
C34   C     C_R   0.368122 0.645963 0.367270 -0.152266
C35   C     C_R   0.643788 0.287798 0.675346 -0.277086
C36   C     C_R   0.371507 0.733147 0.307630 -0.297155
H1    H     H_    0.886381 0.823946 0.826694 0.194766
H2    H     H_    0.086989 0.427083 0.202922 0.171480
H3    H     H_    0.742757 0.693757 0.659300 0.180118
H4    H     H_    0.213215 0.368679 0.392242 0.166491
H5    H     H_    0.615544 0.409096 0.673142 0.163024
H6    H     H_    0.411197 0.808109 0.297264 0.130645
H7    H     H_    0.749218 0.519508 0.849186 0.158585
H8    H     H_    0.287932 0.852280 0.107746 0.155415
C37   C     C_3   0.227834 0.311154 0.782723 -0.362349
C38   C     C_3   0.775216 0.806306 0.221018 -0.369296
C39   C     C_3   0.260001 0.975679 0.809950 0.258730
C40   C     C_3   0.737629 0.483504 0.184830 0.270073
C41   C     C_3   0.311750 0.997672 0.763647 0.300232
C42   C     C_3   0.685198 0.502453 0.230591 0.287734
H9    H     H_    0.240949 0.375455 0.829227 0.163516
H10   H     H_    0.765215 0.883975 0.176023 0.170989
H11   H     H_    0.242397 0.833627 0.800983 0.131065
H12   H     H_    0.752853 0.337274 0.190245 0.129842
H13   H     H_    0.349658 0.067997 0.789171 -0.007340
H14   H     H_    0.647993 0.577152 0.204881 0.000233
C43   C     C_1   0.377126 0.147529 0.622992 -0.203623
C44   C     C_1   0.621096 0.646720 0.374904 -0.204434
C45   C     C_3   0.206919 0.108373 0.791000 0.108406
C46   C     C_3   0.792573 0.601904 0.208542 0.106538
C47   C     C_3   0.278665 0.321003 0.736037 -0.518425
C48   C     C_3   0.722639 0.816275 0.265235 -0.508850
C49   C     C_3   0.290893 0.127305 0.706964 0.110065
C50   C     C_3   0.706554 0.620794 0.290181 0.108062
C51   C     C_3   0.231206 0.056431 0.674200 0.377442
C52   C     C_3   0.764034 0.534615 0.323196 0.380044
C53   C     C_3   0.182243 0.047292 0.723895 -0.480846
C54   C     C_3   0.813937 0.521647 0.274780 -0.481868
C55   C     C_1   0.337958 0.140507 0.660164 -0.010249
C56   C     C_1   0.659459 0.636844 0.336844 -0.008999
C57   C     C_1   0.159869 0.095987 0.837691 0.010177
C58   C     C_1   0.840530 0.591380 0.162909 0.011511
C59   C     C_1   0.121482 0.085267 0.875661 -0.192409
C60   C     C_1   0.879057 0.583329 0.125030 -0.204948
H15   H     H_    0.144614 0.137722 0.707343 0.131880
H16   H     H_    0.853422 0.598654 0.294189 0.132042
H17   H     H_    0.266996 0.422328 0.697270 0.209964
H18   H     H_    0.734023 0.909880 0.306021 0.211850
O11   O     O_R   0.942420 0.735670 0.056390 -0.534580
O12   O     O_R   0.057580 0.235670 0.943610 -0.538299
O13   O     O_R   0.061840 0.404850 0.068350 -0.545826
O14   O     O_R   0.938160 0.904850 0.931650 -0.541863
C61   C     C_R   0.081408 0.573202 0.084376 0.725670
C62   C     C_R   0.917425 0.073683 0.917022 0.705901
O15   O     O_R   0.943100 0.406010 0.064050 -0.541167
O16   O     O_R   0.056900 0.906010 0.935950 -0.532825
O17   O     O_R   0.938020 0.234710 0.939330 -0.514750
O18   O     O_R   0.061980 0.734710 0.060670 -0.515444
C63   C     C_R   0.924422 0.574486 0.079034 0.708292
C64   C     C_R   0.075850 0.074740 0.921303 0.722736
O19   O     O_3   0.998500 0.567790 0.959120 -0.372465
O20   O     O_3   0.001500 0.067790 0.040880 -0.378473
V3    V     V_3+5 0.000280 0.293330 0.007580 1.440146
V4    V     V_3+5 0.999720 0.793330 0.992420 1.460467
O21   O     O_3   0.827825 0.365005 0.918571 -0.561885
C65   C     C_3   0.806325 0.290260 0.975524 0.120460
H19   H     H_    0.815895 0.391903 0.014342 0.165506
H20   H     H_    0.829254 0.159990 0.990828 0.094634
C66   C     C_3   0.739576 0.258329 0.970491 -0.788255
H21   H     H_    0.728521 0.138684 0.938905 0.203450
H22   H     H_    0.723972 0.227570 0.018645 0.226482
H23   H     H_    0.716198 0.382999 0.951148 0.222950
O22   O     O_3   0.191805 0.737367 0.057337 -0.555774
C67   C     C_3   0.209247 0.587515 0.019372 0.028793
H24   H     H_    0.171242 0.494471 0.007459 0.126017
H25   H     H_    0.245776 0.505272 0.043612 0.117943
C68   C     C_3   0.231291 0.661885 0.957441 -0.629418
H26   H     H_    0.272247 0.742053 0.968135 0.243049
H27   H     H_    0.241447 0.545811 0.925404 0.158226
H28   H     H_    0.197169 0.751617 0.932987 0.247298
O23   O     O_3   0.275955 0.972943 0.876781 -0.568277
C69   C     C_3   0.316032 0.110638 0.899407 0.094609
H29   H     H_    0.317471 0.234602 0.868655 0.106399
H30   H     H_    0.361104 0.050115 0.903734 0.117389
C70   C     C_3   0.299443 0.172110 0.965418 -0.723413
H31   H     H_    0.304692 0.055419 0.999891 0.219006
H32   H     H_    0.328390 0.287715 0.982452 0.170214
H33   H     H_    0.252819 0.219359 0.963320 0.226596
O24   O     O_3   0.722331 0.497133 0.117899 -0.567376
C71   C     C_3   0.692092 0.660310 0.097420 0.104204
H34   H     H_    0.683758 0.760901 0.135369 0.099870
H35   H     H_    0.648224 0.619591 0.075836 0.126905
C72   C     C_3   0.725844 0.757439 0.046224 -0.729198
H36   H     H_    0.731433 0.663829 0.005220 0.229260
H37   H     H_    0.700978 0.881808 0.028816 0.176728
H38   H     H_    0.770050 0.801053 0.065847 0.217969
O25   O     O_3   0.327665 0.821266 0.739523 -0.532668
C73   C     C_3   0.388834 0.784584 0.749901 0.105421
H39   H     H_    0.397039 0.719334 0.797711 0.113457
H40   H     H_    0.416826 0.910640 0.746972 0.095951
C74   C     C_3   0.408735 0.653362 0.698649 -0.677165
H41   H     H_    0.406207 0.724700 0.651594 0.226814
H42   H     H_    0.455134 0.610288 0.709998 0.161844
H43   H     H_    0.380564 0.528479 0.695546 0.217984
O26   O     O_3   0.667815 0.322963 0.250701 -0.531752
C75   C     C_3   0.605646 0.303432 0.248899 0.115619
H44   H     H_    0.589505 0.257395 0.200431 0.108216
H45   H     H_    0.582333 0.433813 0.260526 0.094200
C76   C     C_3   0.589256 0.159318 0.297986 -0.650687
H46   H     H_    0.607578 0.199288 0.346309 0.237470
H47   H     H_    0.540509 0.149605 0.298900 0.157853
H48   H     H_    0.606763 0.021601 0.285676 0.197538
H49   H     H_    0.164164 0.904551 0.726763 0.168113
H50   H     H_    0.828273 0.375257 0.269520 0.169174
H51   H     H_    0.217809 0.159820 0.636220 0.033556
H52   H     H_    0.778965 0.631900 0.362313 0.020159
H53   H     H_    0.190291 0.397078 0.762927 0.166400
H54   H     H_    0.813588 0.879705 0.244714 0.166667
O27   O     O_3   0.238840 0.879267 0.646901 -0.528208
C77   C     C_3   0.193077 0.839790 0.599933 0.104055
H55   H     H_    0.209971 0.861646 0.551800 0.116933
H56   H     H_    0.152906 0.927672 0.603190 0.096176
C78   C     C_3   0.174054 0.638898 0.606567 -0.754976
H57   H     H_    0.155864 0.616310 0.654053 0.214358
H58   H     H_    0.139551 0.605308 0.568666 0.171118
H59   H     H_    0.212031 0.544385 0.601888 0.221446
O28   O     O_3   0.751905 0.355799 0.347475 -0.519242
C79   C     C_3   0.788488 0.316952 0.402807 0.115521
H60   H     H_    0.772469 0.394554 0.444136 0.117213
H61   H     H_    0.835416 0.353987 0.396339 0.099762
C80   C     C_3   0.785905 0.111150 0.417694 -0.744872
H62   H     H_    0.807231 0.031341 0.380110 0.209274
H63   H     H_    0.809711 0.082207 0.464463 0.168436
H64   H     H_    0.739310 0.066356 0.419828 0.222620
O29   O     O_3   0.830843 0.638009 0.744090 -0.549760
C81   C     C_3   0.866068 0.610008 0.691655 0.093587
H65   H     H_    0.896269 0.729545 0.685718 0.107229
H66   H     H_    0.838496 0.588835 0.646622 0.108541
C82   C     C_3   0.903257 0.436822 0.703957 -0.709285
H67   H     H_    0.874197 0.314682 0.709024 0.224495
H68   H     H_    0.931692 0.413185 0.663363 0.164173
H69   H     H_    0.931670 0.453149 0.748553 0.222039
O30   O     O_3   0.120044 0.327059 0.314222 -0.551697
C83   C     C_3   0.084152 0.437292 0.351796 0.086266
H70   H     H_    0.073775 0.573031 0.328172 0.117595
H71   H     H_    0.106111 0.461702 0.399955 0.111342
C84   C     C_3   0.026259 0.337137 0.360389 -0.722087
H72   H     H_    0.034833 0.201986 0.384626 0.222090
H73   H     H_    0.997646 0.422384 0.389995 0.166635
H74   H     H_    0.002952 0.312906 0.313064 0.219819
O31   O     O_3   0.662679 0.841206 0.592027 -0.546351
C85   C     C_3   0.695831 0.877628 0.538236 0.104032
H75   H     H_    0.735904 0.964078 0.549204 0.094676
H76   H     H_    0.667337 0.950038 0.501123 0.129192
C86   C     C_3   0.716464 0.695237 0.511075 -0.739952
H77   H     H_    0.678738 0.599030 0.503111 0.231250
H78   H     H_    0.736791 0.720890 0.464967 0.171412
H79   H     H_    0.749780 0.629475 0.544802 0.195990
O32   O     O_3   0.311560 0.472269 0.441023 -0.555338
C87   C     C_3   0.291343 0.608700 0.483006 0.037344
H80   H     H_    0.243481 0.587488 0.488485 0.132498
H81   H     H_    0.297693 0.754633 0.466799 0.106049
C88   C     C_3   0.324276 0.587490 0.547802 -0.675291
H82   H     H_    0.372322 0.602193 0.542600 0.230566
H83   H     H_    0.310500 0.696803 0.580732 0.231302
H84   H     H_    0.314864 0.450104 0.568555 0.211815
H85   H     H_    0.671241 0.542021 0.764844 0.123594
H86   H     H_    0.368127 0.879082 0.189667 0.116662
H87   H     H_    0.319020 0.373876 0.762404 0.176647
H88   H     H_    0.684010 0.879079 0.238392 0.179598

loop_
_geom_bond_atom_site_label_1
_geom_bond_atom_site_label_2
_ccdc_geom_bond_type
C74   H43   S    
C85   H76   S    
C78   H57   S    
C72   H38   S    
O32   C87   S    
C66   H21   S    
O1    C3    A    
C75   C76   S    
O2    C4    A    
C2    O7    A    
C53   H15   S    
O27   C77   S    
O23   C69   S    
C27   C29   A    
C80   H62   S    
C41   C49   S    
C86   H79   S    
C36   H6    S    
C87   H81   S    
C11   C17   A    
C23   C25   A    
C58   C60   T    
C5    O21   S    
C21   C23   A    
C52   C54   S    
C82   H69   S    
C85   C86   S    
C79   H60   S    
C40   C46   S    
O22   C67   S    
C62   O17   A    
C28   H86   S    
C65   H19   S    
C27   H85   S    
C40   C42   S    
O28   C79   S    
C76   H48   S    
C37   C47   S    
C84   H73   S    
C15   C29   A    
C29   H7    S    
C30   H8    S    
C52   H52   S    
C20   H4    S    
O26   C75   S    
C67   H25   S    
C71   H34   S    
C87   C88   S    
O21   C65   S    
C73   C74   S    
C54   H50   S    
C25   C35   A    
C2    C43   S    
C26   C36   A    
O12   C64   A    
C10   H2    S    
O13   V3    S    
C33   C35   A    
C85   H75   S    
C37   H53   S    
C76   H46   S    
C40   H12   S    
O6    V2    S    
C17   O29   S    
C54   H16   S    
C38   H10   S    
C47   C49   S    
O11   V4    S    
C42   C50   S    
C86   H77   S    
O11   C63   A    
C40   O24   S    
C45   C53   S    
O20   V3    S    
C32   C34   A    
C37   H9    S    
C45   C57   S    
C80   H63   S    
C39   O23   S    
O17   V3    S    
O25   C73   S    
C34   C36   A    
C39   C41   S    
C87   H80   S    
C5    C15   A    
C18   O30   S    
C81   H65   S    
C72   H36   S    
C6    C16   A    
C73   H39   S    
O4    C2    A    
C82   H68   S    
C50   C56   S    
C4    C33   S    
C61   O18   A    
C41   O25   S    
O5    V1    S    
C82   H67   S    
C53   H49   S    
C52   O28   S    
C46   C54   S    
C48   H88   S    
C20   C22   A    
O19   V4    S    
O4    V2    S    
C84   H74   S    
O5    C3    A    
C70   H32   S    
C1    C44   S    
C18   C20   A    
C19   H3    S    
C77   C78   S    
C49   C51   S    
C41   H13   S    
O6    C4    A    
C19   C21   A    
C51   C53   S    
C22   C32   A    
C66   H22   S    
O1    V2    S    
C37   C45   S    
O14   C62   A    
O2    V1    S    
C31   C33   A    
C46   C58   S    
C68   H27   S    
C48   C50   S    
C13   C23   A    
C69   C70   S    
C9    H1    S    
C75   H45   S    
C14   C24   A    
C57   C59   T    
C8    C61   S    
C8    C10   A    
O29   C81   S    
C78   H59   S    
C42   O26   S    
C9    C11   A    
C32   O32   S    
C72   H37   S    
C10   C12   A    
C83   H71   S    
C70   H31   S    
O3    V1    S    
C38   C48   S    
C69   H30   S    
C77   H55   S    
C88   H83   S    
C88   H84   S    
C74   H42   S    
C88   H82   S    
O14   V4    S    
C7    C9    A    
C14   C16   A    
C47   H87   S    
C49   C55   S    
C12   C14   A    
C50   C52   S    
C28   C30   A    
O3    C1    A    
C6    O22   S    
C81   H66   S    
C68   H26   S    
C67   C68   S    
C80   H64   S    
C73   H40   S    
C13   C15   A    
O18   V4    S    
O16   V4    S    
C65   C66   S    
C42   H14   S    
C31   O31   S    
C48   H18   S    
C83   C84   S    
C86   H78   S    
C74   H41   S    
O7    V1    S    
C70   H33   S    
O15   V3    S    
C1    O8    A    
C17   C19   A    
C77   H56   S    
O8    V2    S    
C39   H11   S    
C24   C26   A    
C26   C28   A    
C60   C63   S    
C38   C46   S    
O30   C83   S    
O13   C61   A    
C79   H61   S    
C71   C72   S    
C71   H35   S    
C35   H5    S    
C16   C30   A    
C68   H28   S    
C51   O27   S    
C65   H20   S    
C67   H24   S    
C66   H23   S    
C6    C8    A    
C75   H44   S    
C76   H47   S    
C84   H72   S    
C44   C56   T    
C12   C18   A    
C81   C82   S    
C43   C55   T    
O16   C64   A    
C47   H17   S    
C7    C62   S    
C5    C7    A    
O12   V3    S    
C25   C27   A    
C11   C13   A    
C22   C24   A    
C78   H58   S    
O31   C85   S    
O9    V2    S    
C51   H51   S    
O10   V1    S    
C3    C34   S    
C38   H54   S    
C83   H70   S    
C21   C31   A    
O15   C63   A    
C59   C64   S    
O24   C71   S    
C39   C45   S    
C69   H29   S    
C79   C80   S    
