data_mof_unit_12256.cif
_audit_creation_date              2012-12-10T19:44:24-0500
_audit_creation_method            fapswitch 2.2
_symmetry_space_group_name_H-M    P1
_symmetry_Int_Tables_number       1
_space_group_crystal_system       triclinic
_cell_length_a                    10.903919
_cell_length_b                    12.377602
_cell_length_c                    13.438964
_cell_angle_alpha                 116.528047
_cell_angle_beta                  76.868773
_cell_angle_gamma                 102.157819
_cell_volume                      1567.93962404

loop_
_atom_site_label
_atom_site_type_symbol
_atom_type_description
_atom_site_fract_x
_atom_site_fract_y
_atom_site_fract_z
_atom_type_partial_charge
C1    C     C_R   0.517207 0.854372 0.286898 0.795202
C2    C     C_R   0.632710 0.916790 0.840187 -0.227744
C3    C     C_R   0.036882 0.992081 0.589175 0.096296
C4    C     C_R   0.128419 0.002602 0.500882 -0.129929
C5    C     C_R   0.091492 0.017072 0.413606 -0.029792
C6    C     C_R   0.962730 0.997087 0.403680 0.136329
C7    C     C_R   0.870992 0.992352 0.494621 -0.118802
C8    C     C_R   0.907958 0.985529 0.585575 -0.077432
C9    C     C_R   0.188460 0.210894 0.394661 0.129376
C10   C     C_R   0.282420 0.274462 0.344056 -0.156663
C11   C     C_R   0.370275 0.213670 0.252698 0.135823
C12   C     C_R   0.737394 0.997779 0.497421 0.818535
C13   C     C_R   0.361098 0.086529 0.206886 -0.164142
C14   C     C_R   0.266217 0.019682 0.254150 0.173148
C15   C     C_R   0.181529 0.082160 0.351154 0.136985
C16   C     C_R   0.296458 0.283233 0.016715 0.148744
C17   C     C_R   0.435400 0.233378 0.834220 -0.111570
C18   C     C_R   0.638717 0.800588 0.091645 0.131723
C19   C     C_R   0.686360 0.709103 0.989024 0.193088
C20   C     C_R   0.626139 0.590202 0.956424 -0.225462
C21   C     C_R   0.513048 0.561034 0.019546 0.058211
C22   C     C_R   0.470868 0.649865 0.126942 0.033564
C23   C     C_R   0.473258 0.146262 0.713577 0.839809
C24   C     C_R   0.445112 0.442153 0.979478 0.050028
C25   C     C_R   0.348507 0.406815 0.052392 0.079721
C26   C     C_R   0.304960 0.496422 0.157483 -0.193483
C27   C     C_R   0.361579 0.616369 0.191854 -0.179271
C28   C     C_R   0.460896 0.361343 0.864930 0.049415
C29   C     C_R   0.358518 0.195509 0.917381 0.139074
C30   C     C_R   0.538288 0.769451 0.165822 -0.143884
C31   C     C_R   0.725725 0.369301 0.356137 0.042487
C32   C     C_R   0.317951 0.746690 0.634246 0.338804
C33   C     C_R   0.284866 0.649035 0.666874 0.101670
C34   C     C_R   0.262376 0.001440 0.501646 0.841607
C35   C     C_R   0.360137 0.555721 0.620024 -0.250591
C36   C     C_R   0.464017 0.553511 0.536853 -0.038069
C37   C     C_R   0.497709 0.657035 0.509680 0.228208
C38   C     C_R   0.535854 0.451788 0.480209 -0.020789
C39   C     C_R   0.647651 0.461988 0.406026 0.097756
C40   C     C_R   0.678810 0.563072 0.380223 -0.279936
C41   C     C_R   0.602900 0.655215 0.427317 -0.143920
C42   C     C_R   0.500447 0.339513 0.492660 -0.037200
C43   C     C_R   0.686642 0.261824 0.371373 0.351576
C44   C     C_R   0.681684 0.038156 0.860061 0.210138
C45   C     C_R   0.769366 0.064023 0.776147 0.191778
C46   C     C_R   0.812314 0.966182 0.675694 0.091122
C47   C     C_R   0.765727 0.845703 0.659581 -0.160975
C48   C     C_R   0.674439 0.821376 0.740331 -0.169300
Cu1   Cu    Cu3+1 0.529370 0.098270 0.475420 0.945717
Cu2   Cu    Cu3+1 0.470630 0.901730 0.524580 0.955326
H1    H     H_    0.562953 0.895809 0.902683 0.137043
H2    H     H_    0.428730 0.039662 0.135126 0.126737
H3    H     H_    0.226427 0.475460 0.214303 0.153335
H4    H     H_    0.668727 0.519830 0.880971 0.166062
H5    H     H_    0.318023 0.681381 0.270516 0.161576
H6    H     H_    0.761017 0.571041 0.320145 0.149612
H7    H     H_    0.413218 0.323296 0.543146 0.142572
H8    H     H_    0.334552 0.484758 0.649118 0.146656
H9    H     H_    0.630520 0.723018 0.395642 0.201825
H10   H     H_    0.799156 0.770462 0.583152 0.143990
H11   H     H_    0.637365 0.728225 0.726289 0.159356
H12   H     H_    0.288882 0.372653 0.377216 0.170231
N1    N     N_R   0.573890 0.246290 0.438210 -0.215346
N2    N     N_R   0.426890 0.754320 0.561170 -0.217746
O1    O     O_R   0.536940 0.972510 0.318130 -0.567393
O2    O     O_R   0.487330 0.806530 0.359650 -0.618598
O3    O     O_R   0.705160 0.082990 0.479250 -0.567832
O4    O     O_R   0.655550 0.917010 0.520760 -0.601020
O5    O     O_R   0.512670 0.193470 0.640350 -0.584421
O6    O     O_R   0.463060 0.027490 0.681870 -0.551039
O7    O     O_R   0.344450 0.082990 0.479240 -0.593414
O8    O     O_R   0.294840 0.917010 0.520750 -0.545111
N3    N     N_3   0.468730 0.282911 0.207385 -0.584358
H13   H     H_    0.457329 0.258315 0.124860 0.244809
H14   H     H_    0.555507 0.258182 0.204945 0.218179
C49   C     C_3   0.258199 0.883082 0.201632 -0.872580
H15   H     H_    0.262248 0.851242 0.265597 0.212961
H16   H     H_    0.168444 0.841335 0.166901 0.224978
H17   H     H_    0.336921 0.850297 0.131207 0.230315
C50   C     C_3   0.334535 0.065549 0.902874 -0.822758
H18   H     H_    0.412368 0.011758 0.849473 0.267950
H19   H     H_    0.326833 0.062007 0.985181 0.219237
H20   H     H_    0.243491 0.025220 0.871324 0.233733
C51   C     C_3   0.176156 0.246560 0.083462 -0.875544
H21   H     H_    0.100654 0.299934 0.093298 0.231051
H22   H     H_    0.137150 0.149652 0.042222 0.238935
H23   H     H_    0.193272 0.264913 0.167811 0.245616
C52   C     C_3   0.466122 0.414549 0.781391 -0.820358
H24   H     H_    0.388637 0.365177 0.730417 0.225562
H25   H     H_    0.447094 0.510905 0.823236 0.225279
H26   H     H_    0.560076 0.410509 0.727246 0.247795
N4    N     N_3   0.693851 0.924555 0.121712 -0.622303
H27   H     H_    0.677659 0.952599 0.063665 0.215218
H28   H     H_    0.791805 0.930147 0.116629 0.221855
C53   C     C_3   0.805687 0.735849 0.916733 -0.909798
H29   H     H_    0.797545 0.811837 0.897310 0.243975
H30   H     H_    0.888056 0.761383 0.961947 0.234166
H31   H     H_    0.825163 0.655746 0.835633 0.232607
N5    N     N_3   0.642365 0.135666 0.965073 -0.605857
H32   H     H_    0.575566 0.100031 0.015100 0.192954
H33   H     H_    0.721003 0.174632 0.007340 0.211198
N6    N     N_3   0.771069 0.171257 0.317589 -0.555367
H34   H     H_    0.720022 0.089047 0.309069 0.284971
H35   H     H_    0.800107 0.159201 0.233972 0.206625
N7    N     N_3   0.846215 0.381200 0.288430 -0.615264
H36   H     H_    0.901923 0.459868 0.335609 0.221286
H37   H     H_    0.831202 0.387261 0.217069 0.212395
N8    N     N_3   0.229291 0.830328 0.667509 -0.504255
H38   H     H_    0.155620 0.782822 0.620238 0.205793
H39   H     H_    0.189121 0.852228 0.751013 0.191260
C54   C     C_3   0.167293 0.641660 0.749761 -0.920294
H40   H     H_    0.175169 0.719585 0.832940 0.235934
H41   H     H_    0.081795 0.643039 0.718740 0.232868
H42   H     H_    0.153428 0.556810 0.762326 0.242664
C55   C     C_3   0.814568 0.195164 0.795756 -0.881301
H43   H     H_    0.878343 0.204843 0.722428 0.226776
H44   H     H_    0.731611 0.243448 0.813714 0.246842
H45   H     H_    0.867027 0.240586 0.868735 0.227744
N9    N     N_3   0.076498 0.003391 0.688604 -0.578801
H46   H     H_    0.024585 0.934641 0.711483 0.215602
H47   H     H_    0.054045 0.086614 0.753922 0.222783
C56   C     C_3   0.926968 0.973976 0.293239 -0.856684
H48   H     H_    0.975683 0.898914 0.224051 0.215685
H49   H     H_    0.824781 0.942354 0.289828 0.220967
H50   H     H_    0.956178 0.056336 0.276475 0.260408
C57   C     C_3   0.100302 0.285260 0.495932 -0.855160
H51   H     H_    0.047557 0.334660 0.471113 0.246037
H52   H     H_    0.029931 0.230911 0.534423 0.242075
H53   H     H_    0.156508 0.352630 0.561858 0.224213

loop_
_geom_bond_atom_site_label_1
_geom_bond_atom_site_label_2
_ccdc_geom_bond_type
C57   H51   S    
Cu1   N1    S    
C31   N7    S    
N3    H13   S    
C23   O5    A    
C53   H29   S    
C49   H17   S    
C53   H31   S    
C43   N1    A    
C7    C8    A    
C45   C46   A    
N7    H37   S    
C26   C27   A    
C17   C23   S    
Cu1   O1    S    
C35   H8    S    
C5    C6    A    
Cu2   N2    S    
C36   C37   A    
C49   H16   S    
C38   C42   A    
C38   C39   A    
C44   N5    S    
C27   H5    S    
C55   H43   S    
C16   C51   S    
C17   C29   A    
N8    H38   S    
C18   C19   A    
Cu2   O8    S    
C1    C30   S    
C47   H10   S    
C51   H21   S    
C31   C43   A    
C47   C48   A    
C2    C44   A    
C55   H44   S    
C28   C52   S    
C1    O1    A    
C51   H23   S    
C18   C30   A    
Cu1   O3    S    
C9    C10   A    
C52   H24   S    
C10   C11   A    
Cu1   O5    S    
C21   C22   A    
C37   C41   A    
N3    H14   S    
C23   O6    A    
C10   H12   S    
C50   H20   S    
C42   H7    S    
N9    H47   S    
C7    C12   S    
C12   O3    A    
C4    C34   S    
C49   H15   S    
C32   N2    A    
C20   H4    S    
C3    C8    A    
C11   N3    S    
C39   C40   A    
C50   H18   S    
C57   H53   S    
C2    C48   A    
C25   C26   A    
C35   C36   A    
C14   C49   S    
C13   H2    S    
C12   O4    A    
C45   C55   S    
N5    H32   S    
C52   H26   S    
C55   H45   S    
N4    H28   S    
C1    O2    A    
C54   H41   S    
C40   H6    S    
C24   C25   A    
N6    H35   S    
Cu2   O2    S    
C41   H9    S    
C3    N9    S    
C33   C54   S    
C50   H19   S    
C40   C41   A    
N5    H33   S    
C52   H25   S    
C22   C27   A    
Cu1   O7    S    
C6    C56   S    
C56   H49   S    
C3    C4    A    
C26   H3    S    
C34   O8    A    
C37   N2    A    
C19   C53   S    
C44   C45   A    
C16   C25   A    
C46   C47   A    
C57   H52   S    
C22   C30   A    
C54   H40   S    
C17   C28   A    
C24   C28   A    
C51   H22   S    
C4    C5    A    
N9    H46   S    
C53   H30   S    
C6    C7    A    
N7    H36   S    
C9    C57   S    
C18   N4    S    
C32   C33   A    
C19   C20   A    
C36   C38   A    
C16   C29   A    
C43   N6    S    
C11   C13   A    
C48   H11   S    
Cu2   O6    S    
C29   C50   S    
C56   H50   S    
C42   N1    A    
N4    H27   S    
C33   C35   A    
N8    H39   S    
C54   H42   S    
C9    C15   A    
N6    H34   S    
C8    C46   S    
C5    C15   S    
C2    H1    S    
C20   C21   A    
Cu1   Cu2   S    
C32   N8    S    
C21   C24   A    
C31   C39   A    
C14   C15   A    
C56   H48   S    
C13   C14   A    
Cu2   O4    S    
C34   O7    A    
