data_mof_unit_66275.cif
_audit_creation_date              2012-12-10T16:39:48-0500
_audit_creation_method            fapswitch 2.2
_symmetry_space_group_name_H-M    P1
_symmetry_Int_Tables_number       1
_space_group_crystal_system       triclinic
_cell_length_a                    10.914998
_cell_length_b                    10.888664
_cell_length_c                    16.045899
_cell_angle_alpha                 90.851838
_cell_angle_beta                  97.422849
_cell_angle_gamma                 98.468884
_cell_volume                      1869.33203428

loop_
_atom_site_label
_atom_site_type_symbol
_atom_type_description
_atom_site_fract_x
_atom_site_fract_y
_atom_site_fract_z
_atom_type_partial_charge
C1    C     C_R   0.837619 0.522899 0.517067 0.512366
C2    C     C_R   0.527361 0.835434 0.517758 0.495377
C3    C     C_R   0.473629 0.163466 0.482289 0.500083
C4    C     C_R   0.484183 0.515942 0.276092 0.501259
C5    C     C_R   0.515898 0.484169 0.723820 0.499974
C6    C     C_1   0.477569 0.522954 0.186702 -0.001026
C7    C     C_2   0.466435 0.534597 0.021190 0.021150
C8    C     C_2   0.533813 0.465997 0.978720 0.020650
C9    C     C_3   0.616837 0.381384 0.023176 -0.387068
C10   C     C_3   0.383388 0.619173 0.976706 -0.385377
C11   C     C_3   0.037527 0.632045 0.595570 -0.349968
C12   C     C_1   0.527968 0.471954 0.888406 -0.036202
C13   C     C_R   0.670770 0.027807 0.566076 0.065687
C14   C     C_R   0.702619 0.021536 0.653318 -0.085095
C15   C     C_R   0.820310 0.077082 0.692096 -0.111910
C16   C     C_R   0.907141 0.138079 0.643965 -0.093702
C17   C     C_R   0.876772 0.142968 0.556885 -0.093946
C18   C     C_R   0.759296 0.087460 0.517838 -0.050742
C19   C     C_1   0.472216 0.528574 0.111508 -0.032751
C20   C     C_1   0.522562 0.477440 0.813209 -0.005077
C21   C     C_2   0.026041 0.468860 0.477489 -0.107845
C22   C     C_2   0.971178 0.537989 0.528092 -0.001042
C23   C     C_2   0.461227 0.028563 0.480412 -0.128122
C24   C     C_2   0.545763 0.968290 0.525024 -0.017616
C25   C     C_R   0.161050 0.476250 0.482302 0.506844
H1    H     H_    0.968439 0.404419 0.430679 0.080292
H2    H     H_    0.093900 0.585904 0.644834 0.152909
H3    H     H_    0.097257 0.707543 0.567473 0.157049
H4    H     H_    0.636005 0.974644 0.691209 0.106700
H5    H     H_    0.844193 0.072877 0.759478 0.106765
H6    H     H_    0.998076 0.181189 0.674106 0.108761
H7    H     H_    0.944293 0.189660 0.519655 0.104697
H8    H     H_    0.736805 0.091550 0.450290 0.099263
H9    H     H_    0.378826 0.976328 0.443577 0.095188
H10   H     H_    0.664155 0.333270 0.977875 0.132564
H11   H     H_    0.689800 0.436283 0.069286 0.135581
H12   H     H_    0.560209 0.309729 0.056544 0.134728
H13   H     H_    0.336114 0.667353 0.021996 0.131136
H14   H     H_    0.439989 0.690775 0.943278 0.135800
H15   H     H_    0.310396 0.564233 0.930635 0.135213
H16   H     H_    0.969470 0.676224 0.627198 0.110393
O1    O     O_3   0.500000 0.500000 0.500000 -0.439025
O2    O     O_R   0.566290 0.591070 0.323460 -0.538196
O3    O     O_R   0.580640 0.419420 0.684420 -0.534981
O4    O     O_R   0.407770 0.434760 0.307690 -0.536215
O5    O     O_R   0.445300 0.554750 0.684430 -0.544011
O6    O     O_R   0.452040 0.769470 0.559450 -0.544789
O7    O     O_R   0.554760 0.223750 0.537250 -0.530330
O8    O     O_R   0.782610 0.596300 0.470630 -0.537133
O9    O     O_R   0.210590 0.410470 0.432660 -0.537444
O10   O     O_R   0.777820 0.443700 0.559450 -0.537419
O11   O     O_R   0.228980 0.549520 0.537250 -0.548856
O12   O     O_R   0.592170 0.786730 0.470640 -0.538865
O13   O     O_R   0.401030 0.220040 0.432660 -0.537967
Zn1   Zn    Zn3+2 0.408180 0.591840 0.569080 0.921293
Zn2   Zn    Zn3+2 0.608390 0.616500 0.442190 0.939691
Zn3   Zn    Zn3+2 0.381900 0.393170 0.419650 0.939658
Zn4   Zn    Zn3+2 0.601540 0.398480 0.569080 0.941654

loop_
_geom_bond_atom_site_label_1
_geom_bond_atom_site_label_2
_ccdc_geom_bond_type
O5    Zn1   S    
C7    C10   S    
C23   C24   D    
O7    Zn4   S    
C4    O2    A    
C13   C14   A    
O1    Zn1   S    
C9    H11   S    
O8    Zn2   S    
C5    O5    A    
C3    O7    A    
C11   C22   S    
C3    C23   S    
O11   Zn1   S    
C11   H2    S    
C10   H13   S    
C23   H9    S    
O4    Zn3   S    
O1    Zn4   S    
C9    H12   S    
C17   C18   A    
C25   O11   A    
C7    C8    D    
O10   Zn4   S    
C21   C22   D    
O13   Zn3   S    
C16   H6    S    
C6    C19   T    
C1    O10   A    
C12   C20   T    
C16   C17   A    
C13   C18   A    
C11   H3    S    
O1    Zn3   S    
O6    Zn1   S    
C18   H8    S    
C21   H1    S    
C11   H16   S    
C7    C19   S    
C4    O4    A    
C2    C24   S    
C2    O6    A    
C3    O13   A    
C9    H10   S    
C14   H4    S    
C15   C16   A    
O2    Zn2   S    
C1    C22   S    
C15   H5    S    
C4    C6    S    
O12   Zn2   S    
C5    C20   S    
C17   H7    S    
C21   C25   S    
C25   O9    A    
C10   H14   S    
C10   H15   S    
O1    Zn2   S    
C14   C15   A    
O9    Zn3   S    
C1    O8    A    
C5    O3    A    
C8    C12   S    
C13   C24   S    
O3    Zn4   S    
C8    C9    S    
C2    O12   A    
