data_mof_unit_29804.cif
_audit_creation_date              2012-12-10T20:48:11-0500
_audit_creation_method            fapswitch 2.2
_symmetry_space_group_name_H-M    P1
_symmetry_Int_Tables_number       1
_space_group_crystal_system       triclinic
_cell_length_a                    8.170392
_cell_length_b                    8.93153
_cell_length_c                    13.723149
_cell_angle_alpha                 89.999804
_cell_angle_beta                  85.519537
_cell_angle_gamma                 90.000142
_cell_volume                      998.374110186

loop_
_atom_site_label
_atom_site_type_symbol
_atom_type_description
_atom_site_fract_x
_atom_site_fract_y
_atom_site_fract_z
_atom_type_partial_charge
C1    C     C_R   0.500000 0.781764 0.500000 0.927410
C2    C     C_1   0.550056 0.538397 0.127506 0.056438
C3    C     C_1   0.500000 0.934748 0.500000 -0.156610
C4    C     C_1   0.500000 0.065244 0.500000 -0.158425
C5    C     C_R   0.500000 0.218233 0.500000 0.923237
C6    C     C_R   0.474441 0.500607 0.685402 0.885351
C7    C     C_R   0.525560 0.500596 0.314598 0.885384
C8    C     C_1   0.538610 0.518600 0.213114 -0.080077
C9    C     C_1   0.461407 0.518704 0.786879 -0.080106
C10   C     C_2   0.566242 0.560796 0.025498 0.210999
C11   C     C_2   0.433946 0.561075 0.974479 0.210957
C12   C     C_1   0.450024 0.538592 0.872478 0.056095
H1    H     H_    0.183008 0.780318 0.935078 0.353323
H2    H     H_    0.817919 0.779743 0.064558 0.353677
N1    N     N_1   0.926360 0.500000 0.499980 -0.006984
N2    N     N_1   0.073640 0.500000 0.500020 -0.006985
O1    O     O_R   0.363150 0.714660 0.500010 -0.610283
O2    O     O_2   0.231462 0.686073 0.116670 -0.291262
O3    O     O_3   0.133473 0.679126 0.940369 -0.426537
O4    O     O_2   0.846605 0.441941 0.949545 -0.187971
O5    O     O_2   0.769258 0.684993 0.883228 -0.291026
O6    O     O_3   0.866859 0.678288 0.059632 -0.426169
O7    O     O_R   0.636850 0.285340 0.499990 -0.613119
O8    O     O_R   0.636850 0.714660 0.499990 -0.610295
O9    O     O_R   0.363150 0.285340 0.500010 -0.613120
O10   O     O_R   0.343420 0.500000 0.640350 -0.603179
O11   O     O_R   0.656580 0.500000 0.359650 -0.603172
O12   O     O_R   0.617170 0.500000 0.640340 -0.595409
O13   O     O_R   0.382830 0.500000 0.359660 -0.595418
O14   O     O_2   0.153388 0.443003 0.050708 -0.187423
S1    S     S_3+6 0.233721 0.590978 0.026151 0.094859
S2    S     S_3+6 0.766593 0.590132 0.973866 0.094970
Zn1   Zn    Zn3+2 0.317220 0.500000 0.500010 1.045436
Zn2   Zn    Zn3+2 0.682780 0.500000 0.499990 1.045435

loop_
_geom_bond_atom_site_label_1
_geom_bond_atom_site_label_2
_ccdc_geom_bond_type
C11   C12   S    
C7    O13   A    
C10   S2    S    
N2    Zn1   S    
O6    S2    S    
N1    Zn2   S    
C1    O1    A    
C5    O7    A    
O7    Zn2   S    
O3    S1    S    
H2    O6    S    
C6    C9    S    
O12   Zn2   S    
C7    C8    S    
C6    O10   A    
O1    Zn1   S    
C5    O9    A    
O5    S2    D    
O11   Zn2   S    
O14   S1    D    
C9    C12   T    
C6    O12   A    
C10   C11   D    
H1    O3    S    
C11   S1    S    
N1    N2    T    
C2    C10   S    
O13   Zn1   S    
C7    O11   A    
C1    O8    A    
O4    S2    D    
O2    S1    D    
O10   Zn1   S    
C2    C8    T    
C3    C4    T    
O9    Zn1   S    
C4    C5    S    
C1    C3    S    
O8    Zn2   S    
