data_mof_unit_34613.cif
_audit_creation_date              2012-12-11T16:29:24-0500
_audit_creation_method            fapswitch 2.2
_symmetry_space_group_name_H-M    P1
_symmetry_Int_Tables_number       1
_space_group_crystal_system       triclinic
_cell_length_a                    6.947722
_cell_length_b                    17.234293
_cell_length_c                    18.839035
_cell_angle_alpha                 106.313074
_cell_angle_beta                  89.444408
_cell_angle_gamma                 90.131762
_cell_volume                      2164.85217291

loop_
_atom_site_label
_atom_site_type_symbol
_atom_type_description
_atom_site_fract_x
_atom_site_fract_y
_atom_site_fract_z
_atom_type_partial_charge
O1    O     O_R   0.494360 0.415680 0.413760 -0.533749
O2    O     O_R   0.818810 0.432910 0.557230 -0.525414
O3    O     O_R   0.994290 0.584320 0.586240 -0.540093
C1    C     C_R   0.649883 0.415765 0.580488 0.716561
O4    O     O_R   0.823740 0.406440 0.412520 -0.535616
O5    O     O_R   0.999250 0.557660 0.440500 -0.523300
C2    C     C_R   0.655466 0.383554 0.384934 0.702741
O6    O     O_R   0.489400 0.442340 0.559500 -0.523370
O7    O     O_3   0.662500 0.549650 0.509350 -0.364468
V1    V     V_3+5 0.935340 0.490790 0.498270 1.411691
O8    O     O_R   0.329270 0.567090 0.442770 -0.527156
C3    C     C_R   0.161502 0.583063 0.418540 0.761117
O9    O     O_R   0.324340 0.593560 0.587480 -0.533843
C4    C     C_R   0.152701 0.620454 0.611707 0.745251
V2    V     V_3+5 0.435970 0.509210 0.501730 1.414412
O10   O     O_3   0.158940 0.450350 0.490650 -0.360745
H1    H     H_    0.084629 0.893419 0.566428 0.134651
C5    C     C_R   0.134612 0.586391 0.750810 -0.199355
C6    C     C_R   0.136161 0.565461 0.816563 -0.237407
C7    C     C_R   0.151941 0.624723 0.883690 0.305660
C8    C     C_R   0.166522 0.706861 0.884953 0.221055
C9    C     C_R   0.143352 0.730351 0.818417 -0.019411
C10   C     C_R   0.137979 0.668206 0.749939 0.030473
C11   C     C_R   0.130015 0.812926 0.817735 -0.132953
C12   C     C_R   0.128675 0.832110 0.749234 -0.004708
C13   C     C_R   0.111867 0.770030 0.681246 -0.014579
C14   C     C_R   0.133246 0.687630 0.681574 -0.150140
C15   C     C_R   0.143862 0.913487 0.747719 -0.232607
C16   C     C_R   0.136124 0.934418 0.681611 0.292260
C17   C     C_R   0.098784 0.874712 0.616245 -0.140732
C18   C     C_R   0.070117 0.793450 0.615769 0.216716
H2    H     H_    0.126598 0.537054 0.700595 0.131352
H3    H     H_    0.129583 0.502233 0.815145 0.136540
C19   C     C_1   0.111574 0.864670 0.133327 -0.240097
C20   C     C_1   0.119330 0.821300 0.176192 -0.000829
C21   C     C_1   0.129153 0.769976 0.227102 -0.002564
C22   C     C_1   0.137585 0.726911 0.270221 -0.004268
C23   C     C_1   0.147368 0.676195 0.321649 -0.024697
C24   C     C_1   0.154650 0.633857 0.365428 -0.219025
C25   C     C_1   0.641407 0.363463 0.632198 -0.220504
C26   C     C_1   0.637201 0.320599 0.675534 -0.004907
C27   C     C_1   0.633748 0.270198 0.727270 -0.006633
C28   C     C_1   0.631130 0.227922 0.771119 -0.009342
C29   C     C_1   0.627655 0.177933 0.823202 -0.014390
C30   C     C_1   0.623515 0.135612 0.867001 -0.222901
C31   C     C_R   0.741022 0.405636 0.241433 -0.222357
C32   C     C_R   0.777106 0.419735 0.172859 0.349381
C33   C     C_R   0.765410 0.355483 0.108444 -0.127228
C34   C     C_R   0.714795 0.278365 0.112068 -0.205881
C35   C     C_R   0.674557 0.263122 0.180624 0.068741
C36   C     C_R   0.688191 0.328070 0.246642 0.030730
C37   C     C_R   0.618726 0.184981 0.184031 -0.153934
C38   C     C_R   0.575446 0.172161 0.253663 0.064516
C39   C     C_R   0.589180 0.237115 0.319669 0.034951
C40   C     C_R   0.645911 0.315083 0.316217 -0.146313
C41   C     C_R   0.519725 0.095058 0.259047 -0.218392
C42   C     C_R   0.479115 0.082099 0.327414 -0.128043
C43   C     C_R   0.494445 0.145234 0.392572 0.348469
C44   C     C_R   0.547454 0.222297 0.388365 -0.208565
H4    H     H_    0.796192 0.365064 0.055084 0.125145
H5    H     H_    0.706206 0.231039 0.060415 0.112173
H6    H     H_    0.506624 0.043859 0.210507 0.118614
H7    H     H_    0.434044 0.022558 0.329386 0.126806
H8    H     H_    0.557853 0.270143 0.439607 0.093185
O11   O     O_R   0.775690 0.057750 0.940570 -0.521733
O12   O     O_R   0.441200 0.093570 0.087490 -0.534416
O13   O     O_R   0.265840 0.942320 0.059480 -0.520278
C45   C     C_R   0.609396 0.116448 0.115228 0.701243
O14   O     O_R   0.446270 0.067110 0.942790 -0.527026
O15   O     O_R   0.270950 0.915660 0.913750 -0.526154
C46   C     C_R   0.615151 0.083985 0.919297 0.716942
O16   O     O_R   0.770580 0.084400 0.086300 -0.531816
O17   O     O_3   0.602640 0.950400 0.990690 -0.367548
V3    V     V_3+5 0.329740 0.009200 0.001730 1.414746
O18   O     O_R   0.940900 0.906360 0.912450 -0.541969
C47   C     C_R   0.112136 0.880534 0.887290 0.776749
O19   O     O_R   0.935830 0.932820 0.057160 -0.528483
C48   C     C_R   0.103728 0.916877 0.081419 0.741630
V4    V     V_3+5 0.829130 0.990680 0.998180 1.398738
O20   O     O_3   0.106100 0.049590 0.009310 -0.358801
H9    H     H_    0.751584 0.456485 0.290407 0.100575
N1    N     N_2   0.828551 0.498520 0.169018 -0.525876
H10   H     H_    0.875374 0.536854 0.218314 0.256508
C49   C     C_3   0.689131 0.536508 0.132943 -0.558068
H11   H     H_    0.740500 0.597702 0.133386 0.198883
H12   H     H_    0.548581 0.542805 0.162739 0.204348
H13   H     H_    0.669879 0.500634 0.074485 0.200572
N2    N     N_2   0.167216 0.601340 0.950100 -0.522708
H14   H     H_    0.241542 0.547997 0.943671 0.255813
C50   C     C_3   0.986305 0.601968 0.988883 -0.571782
H15   H     H_    0.013343 0.589101 0.042439 0.222404
H16   H     H_    0.888462 0.554829 0.955535 0.194610
H17   H     H_    0.915409 0.662000 0.000380 0.193190
N3    N     N_2   0.230062 0.763103 0.951116 -0.538096
H18   H     H_    0.161347 0.756809 0.997788 0.263960
C51   C     C_3   0.437379 0.764859 0.958966 -0.453369
H19   H     H_    0.477631 0.809772 0.011463 0.196609
H20   H     H_    0.507142 0.782045 0.912240 0.197194
H21   H     H_    0.492039 0.704789 0.960512 0.179553
H22   H     H_    0.164734 0.962022 0.797830 0.112998
N4    N     N_2   0.160475 0.016451 0.681284 -0.518758
H23   H     H_    0.229333 0.052289 0.727201 0.257344
C52   C     C_3   0.989729 0.054646 0.663103 -0.532537
H24   H     H_    0.023615 0.117847 0.663739 0.203070
H25   H     H_    0.873677 0.055660 0.704380 0.198489
H26   H     H_    0.938321 0.022258 0.606959 0.196646
N5    N     N_2   0.972873 0.738650 0.555168 -0.521217
H27   H     H_    0.864631 0.707579 0.573084 0.274871
C53   C     C_3   0.908073 0.766598 0.493658 -0.564136
H28   H     H_    0.834681 0.716436 0.452731 0.205665
H29   H     H_    0.032437 0.786287 0.465592 0.206066
H30   H     H_    0.803048 0.816828 0.513093 0.190976
N6    N     N_2   0.450189 0.132183 0.462361 -0.520181
H31   H     H_    0.427447 0.184336 0.504726 0.255176
C54   C     C_3   0.574654 0.075601 0.483855 -0.547439
H32   H     H_    0.526387 0.068953 0.538228 0.209670
H33   H     H_    0.725371 0.098137 0.488962 0.195639
H34   H     H_    0.568804 0.015102 0.442917 0.198838

loop_
_geom_bond_atom_site_label_1
_geom_bond_atom_site_label_2
_ccdc_geom_bond_type
O12   C45   A    
N4    H23   S    
O11   V4    S    
C30   C46   S    
O17   V3    S    
C20   C21   S    
C49   H13   S    
C2    C40   S    
C1    O6    A    
C42   C43   A    
C38   C39   A    
C37   C38   A    
C12   C15   A    
C44   H8    S    
C22   C23   S    
C9    C11   A    
C15   C16   A    
C49   H12   S    
C5    C6    A    
O16   V4    S    
C53   H29   S    
O5    C3    A    
C23   C24   T    
C8    N3    S    
C54   H32   S    
O12   V3    S    
C51   H21   S    
C41   C42   A    
C19   C20   T    
C26   C27   S    
C32   N1    S    
O14   C46   A    
C31   C32   A    
O8    V2    S    
C1    C25   S    
C54   H33   S    
C51   H20   S    
O15   V3    S    
C43   N6    S    
C35   C37   A    
N5    H27   S    
C42   H7    S    
O1    V2    S    
C10   C14   A    
C4    C14   S    
O7    V1    S    
C37   C45   S    
C15   H22   S    
C13   C18   A    
N4    C52   S    
V3    O20   S    
O9    C4    A    
H1    C17   S    
N5    C53   S    
O13   C48   A    
C33   H4    S    
C39   C44   A    
O19   V4    S    
C34   H5    S    
C5    C10   A    
C11   C12   A    
C6    H3    S    
C53   H30   S    
O4    C2    A    
C11   C47   S    
C12   C13   A    
O19   C48   A    
C31   C36   A    
O2    C1    A    
O18   C47   A    
C16   C17   A    
C31   H9    S    
C50   H16   S    
C32   C33   A    
C45   O16   A    
C54   H34   S    
C51   H19   S    
C7    C8    A    
C35   C36   A    
O17   V4    S    
C16   N4    S    
O14   V3    S    
C52   H25   S    
O13   V3    S    
C49   H11   S    
N3    C51   S    
O3    C4    A    
C25   C26   T    
N2    C50   S    
N1    H10   S    
O6    V2    S    
N1    C49   S    
O9    V2    S    
C28   C29   S    
C13   C14   A    
C41   H6    S    
C5    H2    S    
C27   C28   T    
O2    V1    S    
C29   C30   T    
C50   H17   S    
N6    H31   S    
C38   C41   A    
C39   C40   A    
C33   C34   A    
O1    C2    A    
C18   N5    S    
O5    V1    S    
O8    C3    A    
C6    C7    A    
C43   C44   A    
O4    V1    S    
O3    V1    S    
O11   C46   A    
C53   H28   S    
C19   C48   S    
O15   C47   A    
C50   H15   S    
C17   C18   A    
C3    C24   S    
C7    N2    S    
C52   H26   S    
C36   C40   A    
O7    V2    S    
N3    H18   S    
V4    O20   S    
N2    H14   S    
C21   C22   T    
C34   C35   A    
C52   H24   S    
C9    C10   A    
V1    O10   S    
C8    C9    A    
O18   V4    S    
V2    O10   S    
N6    C54   S    
