data_mof_unit_56606.cif
_audit_creation_date              2012-12-11T15:39:32-0500
_audit_creation_method            fapswitch 2.2
_symmetry_space_group_name_H-M    P1
_symmetry_Int_Tables_number       1
_space_group_crystal_system       triclinic
_cell_length_a                    14.31502
_cell_length_b                    14.796192
_cell_length_c                    33.220545
_cell_angle_alpha                 97.707865
_cell_angle_beta                  90.292159
_cell_angle_gamma                 118.859964
_cell_volume                      6086.98551646

loop_
_atom_site_label
_atom_site_type_symbol
_atom_type_description
_atom_site_fract_x
_atom_site_fract_y
_atom_site_fract_z
_atom_type_partial_charge
C1    C     C_R   0.618580 0.908978 0.437255 0.599746
C2    C     C_R   0.712283 0.437396 0.949339 0.540539
C3    C     C_R   0.587500 0.813249 0.771992 -0.155938
C4    C     C_R   0.608212 0.840370 0.733196 0.273674
C5    C     C_R   0.634476 0.779858 0.703935 -0.031898
C6    C     C_R   0.644764 0.696411 0.714657 -0.152803
C7    C     C_R   0.634598 0.675948 0.754944 0.285609
C8    C     C_R   0.605763 0.735546 0.783833 -0.030797
C9    C     C_R   0.554183 0.736828 0.633507 -0.104366
C10   C     C_R   0.549288 0.767272 0.596067 -0.117272
C11   C     C_R   0.725057 0.918925 0.613107 -0.108111
C12   C     C_3   0.066001 0.635969 0.386242 0.047862
C13   C     C_R   0.709760 0.740673 0.950297 0.586896
C14   C     C_3   0.040915 0.665962 0.429146 -0.282704
C15   C     C_3   0.923791 0.595814 0.436072 -0.466328
C16   C     C_3   0.123086 0.546772 0.878894 0.022652
C17   C     C_3   0.063989 0.450370 0.846104 -0.288480
C18   C     C_3   0.134760 0.403274 0.832205 -0.441560
C19   C     C_3   0.773686 0.992410 0.930225 0.023902
C20   C     C_3   0.763495 0.058541 0.900356 -0.286141
C21   C     C_3   0.740195 0.142291 0.922013 -0.476647
C22   C     C_3   0.701896 0.017388 0.734289 0.016659
C23   C     C_3   0.705797 0.076111 0.776509 -0.265905
C24   C     C_R   0.814025 0.389469 0.154843 0.256301
C25   C     C_3   0.813600 0.175246 0.787218 -0.489483
C26   C     C_R   0.817583 0.424142 0.117444 -0.104529
C27   C     C_R   0.658199 0.250629 0.229842 -0.079205
C28   C     C_R   0.648258 0.236634 0.270700 0.259699
C29   C     C_R   0.702733 0.324745 0.301491 -0.001430
C30   C     C_R   0.770663 0.423121 0.291024 -0.141268
C31   C     C_R   0.780712 0.435634 0.250250 -0.072358
C32   C     C_R   0.723455 0.349828 0.219687 0.000620
C33   C     C_R   0.724111 0.366738 0.177326 0.011374
C34   C     C_R   0.586805 0.301455 0.358430 -0.054622
C35   C     C_R   0.593800 0.205004 0.456390 0.538363
C36   C     C_R   0.560554 0.274236 0.396927 -0.097385
C37   C     C_R   0.734574 0.287892 0.409045 -0.108095
C38   C     C_R   0.760705 0.315169 0.370486 -0.088677
C39   C     C_R   0.684614 0.316617 0.344434 0.054168
C40   C     C_R   0.632165 0.261918 0.421691 0.018329
C41   C     C_R   0.246041 0.879740 0.393150 -0.011343
C42   C     C_R   0.258993 0.969235 0.378159 -0.159137
C43   C     C_R   0.237866 0.965952 0.336979 -0.127040
C44   C     C_R   0.730450 0.887224 0.650438 -0.089796
C45   C     C_R   0.206424 0.874286 0.309615 0.002893
C46   C     C_R   0.187806 0.781701 0.324058 0.226883
C47   C     C_R   0.295251 0.892769 0.434423 0.558622
C48   C     C_R   0.201010 0.783492 0.366527 0.259369
C49   C     C_R   0.204409 0.811342 0.161503 -0.082616
C50   C     C_R   0.173251 0.788978 0.119901 -0.115440
C51   C     C_R   0.092793 0.900981 0.129743 -0.123336
C52   C     C_R   0.123540 0.922756 0.171477 -0.117378
C53   C     C_R   0.175903 0.874871 0.187557 0.028658
C54   C     C_1   0.188816 0.879855 0.230832 0.037936
C55   C     C_R   0.642509 0.799149 0.661559 0.058454
C56   C     C_1   0.196763 0.878455 0.266818 0.089726
C57   C     C_R   0.113001 0.829905 0.103902 0.018180
C58   C     C_R   0.643046 0.876119 0.395731 0.000516
C59   C     C_R   0.613844 0.904764 0.551524 0.550489
C60   C     C_R   0.563681 0.786989 0.369425 0.209469
C61   C     C_R   0.567210 0.782919 0.327037 -0.094100
C62   C     C_R   0.652121 0.861601 0.310557 -0.035535
C63   C     C_R   0.739152 0.938963 0.336078 -0.063918
C64   C     C_R   0.737850 0.945043 0.378416 0.225428
C65   C     C_R   0.767994 0.925383 0.173595 -0.089691
C66   C     C_R   0.632233 0.861538 0.586373 0.024741
C67   C     C_R   0.787527 0.909774 0.132728 -0.116333
C68   C     C_R   0.613528 0.753987 0.120158 -0.121398
C69   C     C_R   0.594154 0.769881 0.160926 -0.108722
C70   C     C_R   0.672793 0.853459 0.187991 0.042847
C71   C     C_R   0.589477 0.199210 0.570923 0.536779
C72   C     C_1   0.661435 0.857782 0.231034 0.036670
C73   C     C_1   0.655158 0.859158 0.267215 0.050500
C74   C     C_R   0.712184 0.821386 0.106018 0.017733
C75   C     C_R   0.620801 0.247778 0.614033 0.016910
C76   C     C_R   0.558389 0.284779 0.635509 -0.106820
C77   C     C_R   0.052497 0.781436 0.063695 0.537569
C78   C     C_R   0.569849 0.305598 0.677989 -0.064852
C79   C     C_R   0.644340 0.290584 0.699325 0.059950
C80   C     C_R   0.712293 0.261474 0.678213 -0.117127
C81   C     C_R   0.700801 0.240266 0.635731 -0.124577
C82   C     C_R   0.763918 0.367079 0.842717 -0.135538
C83   C     C_R   0.287538 0.886150 0.548238 0.560712
C84   C     C_R   0.778153 0.393379 0.884900 -0.139244
C85   C     C_R   0.587327 0.327466 0.887799 -0.097569
C86   C     C_R   0.573031 0.299264 0.845389 -0.084370
C87   C     C_R   0.662029 0.322275 0.822852 0.031092
C88   C     C_R   0.743335 0.485166 0.065753 0.542671
C89   C     C_1   0.651822 0.308353 0.779303 0.015566
C90   C     C_1   0.647728 0.300173 0.742809 0.033937
C91   C     C_R   0.690786 0.378740 0.907737 0.006379
C92   C     C_R   0.078093 0.761429 0.910429 0.041203
C93   C     C_R   0.109445 0.861758 0.901232 -0.159050
C94   C     C_R   0.141465 0.885958 0.863022 -0.132586
C95   C     C_R   0.732548 0.435315 0.102177 -0.027522
C96   C     C_R   0.143437 0.810550 0.833554 -0.009665
C97   C     C_R   0.120515 0.713102 0.843258 -0.101574
C98   C     C_R   0.089858 0.687804 0.882141 0.267400
C99   C     C_R   0.742613 0.789289 0.066407 0.539106
C100  C     C_R   0.232482 0.811077 0.769991 -0.115715
C101  C     C_R   0.237075 0.816269 0.728607 -0.101535
C102  C     C_R   0.165192 0.836980 0.707939 0.033817
C103  C     C_R   0.092090 0.857545 0.729646 -0.101098
C104  C     C_R   0.088326 0.853435 0.771258 -0.088958
C105  C     C_R   0.157274 0.828349 0.791327 0.030294
C106  C     C_R   0.165197 0.916227 0.646112 -0.089189
C107  C     C_R   0.640648 0.405513 0.123588 -0.137253
C108  C     C_R   0.189583 0.927038 0.605647 0.260318
C109  C     C_R   0.209974 0.771871 0.600043 -0.165435
C110  C     C_R   0.022168 0.732441 0.947495 0.566757
C111  C     C_R   0.182407 0.760260 0.639563 -0.132442
C112  C     C_R   0.168052 0.836647 0.663783 -0.016192
C113  C     C_R   0.223231 0.860001 0.583766 0.009721
C114  C     C_R   0.662224 0.747366 0.911442 0.004213
C115  C     C_R   0.566290 0.663597 0.890294 0.222144
C116  C     C_R   0.547312 0.658777 0.848252 -0.058431
C117  C     C_R   0.619557 0.737844 0.827808 -0.018406
C118  C     C_R   0.705370 0.826222 0.849688 -0.088030
C119  C     C_R   0.636657 0.371605 0.160906 -0.163951
C120  C     C_R   0.724287 0.834301 0.891307 0.233410
Cr1   Cr    Cr6+3 0.424820 0.846020 0.489780 1.096306
Cr2   Cr    Cr6+3 0.657880 0.078580 0.505700 1.094197
Cr3   Cr    Cr6+3 0.417280 0.075360 0.504550 1.091906
Cr4   Cr    Cr6+3 0.903360 0.812540 0.006510 1.040825
Cr5   Cr    Cr6+3 0.914630 0.587050 0.006280 1.042061
Cr6   Cr    Cr6+3 0.673560 0.582680 0.008540 1.088561
H1    H     H_    0.573658 0.412629 0.112411 0.149505
H2    H     H_    0.251423 0.036918 0.326143 0.162022
H3    H     H_    0.864392 0.962694 0.122835 0.139796
H4    H     H_    0.829516 0.990251 0.194395 0.143622
H5    H     H_    0.808699 0.994784 0.322833 0.183598
H6    H     H_    0.520271 0.713772 0.171777 0.132656
H7    H     H_    0.553754 0.685433 0.100298 0.134969
H8    H     H_    0.504165 0.717808 0.306817 0.168683
H9    H     H_    0.858831 0.432635 0.899212 0.184694
H10   H     H_    0.837295 0.328628 0.360045 0.143755
H11   H     H_    0.833103 0.386217 0.825373 0.118331
H12   H     H_    0.481348 0.255331 0.405927 0.136829
H13   H     H_    0.771145 0.251031 0.694594 0.096412
H14   H     H_    0.749932 0.211729 0.620136 0.135467
H15   H     H_    0.496789 0.292213 0.619646 0.161262
H16   H     H_    0.493631 0.264380 0.830104 0.135489
H17   H     H_    0.518574 0.314578 0.904650 0.165959
H18   H     H_    0.517902 0.329486 0.694192 0.161613
H19   H     H_    0.103642 0.920094 0.922910 0.145685
H20   H     H_    0.179391 0.695042 0.652097 0.124930
H21   H     H_    0.296260 0.803096 0.712630 0.130228
H22   H     H_    0.286369 0.792129 0.785275 0.108733
H23   H     H_    0.791930 0.280861 0.427887 0.168610
H24   H     H_    0.159868 0.961807 0.855793 0.126724
H25   H     H_    0.035940 0.873439 0.714266 0.114203
H26   H     H_    0.028825 0.865572 0.787467 0.134329
H27   H     H_    0.149224 0.972876 0.664369 0.147095
H28   H     H_    0.119490 0.654635 0.819608 0.108512
H29   H     H_    0.229342 0.715569 0.583547 0.147257
H30   H     H_    0.614179 0.185028 0.205822 0.148920
H31   H     H_    0.800808 0.934320 0.671389 0.103090
H32   H     H_    0.564410 0.858078 0.794123 0.117331
H33   H     H_    0.476571 0.593809 0.831405 0.180858
H34   H     H_    0.189954 0.734040 0.100744 0.141984
H35   H     H_    0.664092 0.649839 0.691820 0.162698
H36   H     H_    0.486070 0.668273 0.641648 0.113875
H37   H     H_    0.477085 0.720361 0.575942 0.132797
H38   H     H_    0.758834 0.889981 0.834222 0.129715
H39   H     H_    0.567220 0.353984 0.178023 0.133259
H40   H     H_    0.790720 0.990980 0.606221 0.150117
H41   H     H_    0.812819 0.490741 0.314458 0.136334
H42   H     H_    0.829846 0.512813 0.242412 0.180328
H43   H     H_    0.528360 0.304359 0.338567 0.145443
H44   H     H_    0.908355 0.311294 0.228412 0.374322
H45   H     H_    0.245057 0.774017 0.173662 0.166679
H46   H     H_    0.253552 0.613066 0.313674 0.382487
H47   H     H_    0.042743 0.551759 0.381728 0.192324
H48   H     H_    0.015760 0.644771 0.362905 0.137814
H49   H     H_    0.092637 0.658760 0.452150 0.197178
H50   H     H_    0.057802 0.748369 0.433374 0.169397
H51   H     H_    0.870435 0.601321 0.413273 0.165980
H52   H     H_    0.907480 0.620777 0.467035 0.176444
H53   H     H_    0.905956 0.513348 0.433629 0.147785
H54   H     H_    0.027972 0.105332 0.397376 0.374690
H55   H     H_    0.451326 0.603547 0.441857 0.360618
H56   H     H_    0.291114 0.043876 0.397884 0.158997
H57   H     H_    0.144255 0.522055 0.906088 0.189443
H58   H     H_    0.200585 0.604383 0.868547 0.138582
H59   H     H_    0.992328 0.390363 0.858539 0.157207
H60   H     H_    0.036812 0.471760 0.819338 0.159218
H61   H     H_    0.207413 0.461642 0.819684 0.177649
H62   H     H_    0.089630 0.334885 0.808000 0.138267
H63   H     H_    0.158685 0.376581 0.858118 0.197680
H64   H     H_    0.477360 0.008991 0.226138 0.343703
H65   H     H_    0.283250 0.182566 0.575472 0.359714
H66   H     H_    0.406003 0.562409 0.975092 0.358545
H67   H     H_    0.100897 0.971876 0.191456 0.122678
H68   H     H_    0.834177 0.045714 0.955534 0.167304
H69   H     H_    0.696814 0.949648 0.944429 0.123371
H70   H     H_    0.838998 0.096767 0.885137 0.175500
H71   H     H_    0.697172 0.007591 0.876632 0.142683
H72   H     H_    0.665113 0.105882 0.937569 0.155410
H73   H     H_    0.730465 0.186299 0.899288 0.155262
H74   H     H_    0.807349 0.197802 0.944762 0.155873
H75   H     H_    0.712868 0.068982 0.711289 0.152746
H76   H     H_    0.771210 0.002381 0.733189 0.110635
H77   H     H_    0.640606 0.096597 0.777297 0.178112
H78   H     H_    0.045600 0.932861 0.118414 0.132414
H79   H     H_    0.694877 0.026254 0.800076 0.144497
H80   H     H_    0.880114 0.156832 0.784427 0.146759
H81   H     H_    0.817606 0.210539 0.819252 0.146370
H82   H     H_    0.823911 0.232496 0.766820 0.145347
H83   H     H_    0.750116 0.567526 0.819113 0.372408
H84   H     H_    0.888467 0.445771 0.100918 0.168161
O1    O     O_R   0.318160 0.824460 0.443680 -0.431730
O2    O     O_R   0.668160 0.499860 0.053480 -0.515901
O3    O     O_R   0.689170 0.693840 0.050110 -0.497703
O4    O     O_R   0.525040 0.857250 0.449830 -0.437946
O5    O     O_R   0.803860 0.812940 0.962540 -0.471758
O6    O     O_R   0.982950 0.787950 0.964120 -0.508732
O7    O     O_R   0.007050 0.649970 0.960540 -0.462152
O8    O     O_R   0.807910 0.482370 0.965590 -0.507615
O9    O     O_R   0.643310 0.460980 0.963840 -0.467753
O10   O     O_R   0.666140 0.657800 0.967020 -0.424230
O11   O     O_3   0.830520 0.660760 0.007110 -0.261264
O12   O     O_R   0.645130 0.163230 0.552140 -0.510632
O13   O     O_R   0.684760 0.998800 0.456360 -0.434024
O14   O     O_R   0.647540 0.166310 0.470260 -0.489579
O15   O     O_R   0.500960 0.181750 0.467450 -0.521110
O16   O     O_R   0.331100 0.981120 0.457080 -0.506071
O17   O     O_R   0.315560 0.821140 0.532010 -0.543831
O18   O     O_R   0.522630 0.854180 0.531710 -0.504456
O19   O     O_R   0.682160 0.995480 0.544690 -0.503027
O20   O     O_2   0.982392 0.361327 0.137945 -0.258399
O21   O     O_2   0.000031 0.479478 0.199918 -0.210761
O22   O     O_3   0.883227 0.278902 0.199615 -0.503774
O23   O     O_R   0.498360 0.178430 0.555780 -0.481732
O24   O     O_2   0.032253 0.614264 0.277678 -0.276304
O25   O     O_2   0.209404 0.688055 0.251766 -0.266977
O26   O     O_3   0.174514 0.580265 0.310618 -0.436382
O27   O     O_3   0.177260 0.692947 0.381844 -0.486163
O28   O     O_2   0.861448 0.137224 0.419851 -0.278290
O29   O     O_2   0.871116 0.992711 0.444869 -0.242309
O30   O     O_3   0.963380 0.054944 0.379267 -0.535674
O31   O     O_2   0.366996 0.683524 0.394116 -0.222805
O32   O     O_2   0.438049 0.578789 0.357074 -0.285941
O33   O     O_3   0.513141 0.662158 0.431984 -0.517416
O34   O     O_R   0.328690 0.978040 0.538950 -0.418849
O35   O     O_3   0.053777 0.587200 0.890707 -0.573622
O36   O     O_2   0.621292 0.089645 0.316076 -0.242548
O37   O     O_2   0.462243 0.098672 0.295521 -0.328421
O38   O     O_3   0.542511 0.018681 0.241006 -0.511252
O39   O     O_2   0.139223 0.987025 0.539734 -0.268362
O40   O     O_2   0.095554 0.046163 0.605823 -0.295711
O41   O     O_3   0.294781 0.133999 0.589942 -0.519470
O42   O     O_2   0.358256 0.526037 0.891567 -0.345314
O43   O     O_2   0.487946 0.480585 0.917323 -0.270565
O44   O     O_3   0.458852 0.621741 0.962430 -0.530348
O45   O     O_3   0.499990 0.999990 0.500010 -0.280666
O46   O     O_3   0.810440 0.925345 0.911016 -0.544019
O47   O     O_3   0.601312 0.925619 0.723992 -0.558977
O48   O     O_2   0.560058 0.488065 0.777348 -0.308490
O49   O     O_2   0.711428 0.543312 0.734594 -0.302818
O50   O     O_3   0.748342 0.628430 0.810665 -0.518139
O51   O     O_R   0.828710 0.851830 0.052170 -0.521342
O52   O     O_R   0.005980 0.823990 0.047210 -0.505673
O53   O     O_R   0.031900 0.688850 0.050170 -0.511077
O54   O     O_R   0.830940 0.518420 0.048680 -0.502992
S1    S     S_3+6 0.924323 0.379082 0.173055 0.037041
S2    S     S_3+6 0.149990 0.664662 0.289526 0.050759
S3    S     S_3+6 0.859810 0.034946 0.407503 0.034469
S4    S     S_3+6 0.465932 0.674363 0.387721 0.024339
S5    S     S_3+6 0.566642 0.109014 0.282151 0.003533
S6    S     S_3+6 0.176008 0.023844 0.584260 0.019370
S7    S     S_3+6 0.464582 0.568437 0.915121 -0.002253
S8    S     S_3+6 0.662640 0.579381 0.768660 -0.014522

loop_
_geom_bond_atom_site_label_1
_geom_bond_atom_site_label_2
_ccdc_geom_bond_type
C81   H14   S    
C96   C105  S    
C84   H9    S    
C19   H69   S    
C93   C94   A    
C47   O1    A    
C24   S1    S    
C117  C118  A    
C41   C42   A    
C83   C113  S    
C102  C112  S    
C111  C112  A    
C103  H25   S    
C21   H72   S    
O36   S5    D    
C85   H17   S    
C97   C98   A    
C85   C91   A    
C16   H57   S    
C92   C98   A    
C7    C8    A    
C18   H63   S    
Cr3   O16   S    
C106  C112  A    
C16   O35   S    
C42   H56   S    
C118  H38   S    
C100  C105  A    
C4    O47   S    
Cr1   O18   S    
H55   O33   S    
C5    C6    A    
C92   C93   A    
C7    S8    S    
C36   H12   S    
C13   O5    A    
C76   C78   A    
C30   H41   S    
C82   H11   S    
C15   H53   S    
C109  C111  A    
C59   C66   S    
C85   C86   A    
C30   C31   A    
O37   S5    D    
C115  S7    S    
O24   S2    D    
H54   O30   S    
C68   C74   A    
C82   C87   A    
O44   S7    S    
C26   C95   A    
C116  C117  A    
C110  O7    A    
C25   H80   S    
C104  C105  A    
C79   C90   S    
C14   H50   S    
C103  C104  A    
C102  C103  A    
O22   S1    S    
Cr3   O23   S    
Cr6   O9    S    
C101  H21   S    
O38   S5    S    
C19   C20   S    
C45   C56   S    
C17   H59   S    
C68   C69   A    
C65   C67   A    
H44   O22   S    
C61   H8    S    
C11   H40   S    
H65   O41   S    
C62   C73   S    
C93   H19   S    
C9    C55   A    
C84   C91   A    
C63   H5    S    
C25   H82   S    
O48   S8    D    
C9    C10   A    
C119  H39   S    
Cr3   O45   S    
C13   C114  S    
C11   C66   A    
C109  C113  A    
C88   O54   A    
Cr5   O8    S    
C61   C62   A    
O25   S2    D    
Cr1   O1    S    
C88   C95   S    
C71   O12   A    
Cr2   O14   S    
C18   H61   S    
C23   H79   S    
O26   S2    S    
C44   H31   S    
O30   S3    S    
C29   C39   S    
C69   C70   A    
C1    C58   S    
C21   H73   S    
C15   H51   S    
O41   S6    S    
C107  C119  A    
Cr3   O34   S    
Cr6   O10   S    
C8    C117  S    
Cr1   O45   S    
C54   C56   T    
C10   C66   A    
C22   O47   S    
C58   C64   A    
C46   C48   A    
Cr6   O11   S    
C77   O52   A    
C22   H76   S    
C51   C52   A    
C101  C102  A    
C57   C77   S    
C36   C40   A    
O33   S4    S    
C98   O35   S    
C3    C8    A    
C111  H20   S    
C37   H23   S    
Cr2   O45   S    
C38   H10   S    
C86   C87   A    
C16   C17   S    
H83   O50   S    
C83   O17   A    
C99   O3    A    
C50   H34   S    
C53   C54   S    
C83   O34   A    
C34   C39   A    
C32   C33   S    
C23   H77   S    
C60   C61   A    
C14   H49   S    
C108  C113  A    
O50   S8    S    
C110  O6    A    
C75   C76   A    
C120  O46   S    
C48   O27   S    
C37   C38   A    
Cr6   O3    S    
C78   H18   S    
C3    H32   S    
C79   C80   A    
C31   C32   A    
C6    H35   S    
Cr4   O52   S    
C17   H60   S    
C46   S2    S    
C106  H27   S    
C96   C97   A    
Cr5   O53   S    
C62   C63   A    
C17   C18   S    
C41   C47   S    
O31   S4    D    
O29   S3    D    
O32   S4    D    
C26   H84   S    
C67   C74   A    
C97   H28   S    
C20   C21   S    
C94   C96   A    
C59   O18   A    
C43   C45   A    
C6    C7    A    
C34   H43   S    
C95   C107  A    
C9    H36   S    
C116  H33   S    
C51   C57   A    
C68   H7    S    
C100  H22   S    
C12   O27   S    
C12   C14   S    
C33   C119  A    
C82   C84   A    
Cr2   O13   S    
O21   S1    D    
C88   O2    A    
C2    O9    A    
C80   C81   A    
C94   H24   S    
C42   C43   A    
O40   S6    D    
C21   H74   S    
C3    C4    A    
C59   O19   A    
C11   C44   A    
C51   H78   S    
C27   C28   A    
C52   C53   A    
C86   H16   S    
C12   H48   S    
Cr4   O6    S    
H46   O26   S    
C27   H30   S    
Cr2   O19   S    
C28   C29   A    
C28   S5    S    
C77   O53   A    
C22   H75   S    
C27   C32   A    
C35   O15   A    
C50   C57   A    
H64   O38   S    
O39   S6    D    
C5    C55   S    
C22   C23   S    
C75   C81   A    
C52   H67   S    
C67   H3    S    
C24   C26   A    
C72   C73   T    
C64   S3    S    
O28   S3    D    
C43   H2    S    
C16   H58   S    
O42   S7    D    
C114  C115  A    
C74   C99   S    
Cr3   O15   S    
Cr5   O11   S    
C37   C40   A    
C80   H13   S    
H66   O44   S    
C24   C33   A    
Cr1   O17   S    
C65   H4    S    
C1    O13   A    
Cr1   O4    S    
C104  H26   S    
C108  S6    S    
C35   C40   S    
C60   S4    S    
C107  H1    S    
Cr6   O2    S    
C35   O14   A    
C76   H15   S    
C71   C75   S    
C10   H37   S    
C78   C79   A    
C44   C55   A    
C92   C110  S    
C115  C116  A    
C38   C39   A    
C47   O16   A    
C106  C108  A    
Cr4   O51   S    
O43   S7    D    
C69   H6    S    
C49   C53   A    
Cr5   O54   S    
C18   H62   S    
C100  C101  A    
C41   C48   A    
C20   H70   S    
C34   C36   A    
C23   C25   S    
C13   O10   A    
C2    C91   S    
C109  H29   S    
C118  C120  A    
C20   H71   S    
C49   H45   S    
C29   C30   A    
C63   C64   A    
C45   C46   A    
C19   O46   S    
C4    C5    A    
C31   H42   S    
C99   O51   A    
C19   H68   S    
C49   C50   A    
Cr2   O12   S    
C15   H52   S    
C1    O4    A    
C2    O8    A    
C87   C89   S    
C14   C15   S    
C12   H47   S    
C70   C72   S    
C89   C90   T    
C25   H81   S    
C58   C60   A    
Cr4   O5    S    
C114  C120  A    
O49   S8    D    
C65   C70   A    
C71   O23   A    
Cr4   O11   S    
O20   S1    D    
Cr5   O7    S    
