data_mof_unit_53591.cif
_audit_creation_date              2012-12-11T14:01:28-0500
_audit_creation_method            fapswitch 2.2
_symmetry_space_group_name_H-M    P1
_symmetry_Int_Tables_number       1
_space_group_crystal_system       triclinic
_cell_length_a                    18.90235
_cell_length_b                    10.98682
_cell_length_c                    18.771743
_cell_angle_alpha                 89.968159
_cell_angle_beta                  90.244224
_cell_angle_gamma                 89.948551
_cell_volume                      3898.41636162

loop_
_atom_site_label
_atom_site_type_symbol
_atom_type_description
_atom_site_fract_x
_atom_site_fract_y
_atom_site_fract_z
_atom_type_partial_charge
C1    C     C_R   0.271367 0.045378 0.851815 0.564785
C2    C     C_R   0.728634 0.045453 0.148191 0.552407
C3    C     C_R   0.771367 0.545379 0.851818 0.552504
C4    C     C_R   0.228633 0.545449 0.148192 0.563888
C5    C     C_R   0.486799 0.055805 0.072692 -0.079591
C6    C     C_R   0.513838 0.055429 0.926878 -0.079850
C7    C     C_R   0.986958 0.555864 0.072632 -0.079838
C8    C     C_R   0.013995 0.555366 0.926818 -0.079454
C9    C     C_R   0.992859 0.665561 0.035764 -0.124935
C10   C     C_R   0.008540 0.665297 0.963460 -0.125154
C11   C     C_R   0.492632 0.165531 0.035845 -0.125275
C12   C     C_R   0.508314 0.165332 0.963541 -0.124837
C13   C     C_2   0.262894 0.632731 0.931693 -0.107520
C14   C     C_2   0.737177 0.632598 0.068335 -0.107274
C15   C     C_2   0.762901 0.132762 0.931702 -0.106928
C16   C     C_2   0.237190 0.132541 0.068346 -0.107008
C17   C     C_2   0.255735 0.605507 0.085096 -0.104695
C18   C     C_2   0.744244 0.605382 0.914914 -0.105140
C19   C     C_2   0.755744 0.105531 0.085107 -0.105939
C20   C     C_2   0.244253 0.105354 0.914925 -0.104831
C21   C     C_2   0.306793 0.555349 0.045410 -0.166000
C22   C     C_2   0.693294 0.555179 0.954681 -0.165314
C23   C     C_2   0.806804 0.055382 0.045420 -0.165609
C24   C     C_2   0.193307 0.055139 0.954691 -0.166464
C25   C     C_2   0.317702 0.594936 0.971633 -0.165480
C26   C     C_2   0.682389 0.594792 0.028439 -0.165688
C27   C     C_2   0.817710 0.094967 0.971641 -0.165739
C28   C     C_2   0.182400 0.094745 0.028449 -0.165242
C29   C     C_2   0.454289 0.829388 0.565568 -0.128176
C30   C     C_2   0.481804 0.837994 0.412436 -0.106757
C31   C     C_2   0.012915 0.340609 0.584974 -0.102082
C32   C     C_2   0.015426 0.331912 0.428584 -0.119863
C33   C     C_2   0.455668 0.740222 0.445947 -0.156168
C34   C     C_2   0.430940 0.744969 0.519761 -0.175848
C35   C     C_2   0.048870 0.253851 0.472369 -0.173041
C36   C     C_2   0.032068 0.243908 0.547350 -0.176280
C37   C     C_2   0.244838 0.571507 0.581846 -0.085384
C38   C     C_2   0.747408 0.608658 0.429517 -0.079042
C39   C     C_2   0.751460 0.107181 0.571408 -0.074120
C40   C     C_2   0.263119 0.048825 0.406980 -0.099456
C41   C     C_2   0.213123 0.484507 0.435828 0.128391
C42   C     C_2   0.740803 0.609172 0.587534 0.132789
C43   C     C_2   0.758613 0.103565 0.414038 0.133753
C44   C     C_2   0.280950 0.996451 0.564421 0.134803
C45   C     C_R   0.471887 0.822179 0.853032 0.543224
C46   C     C_R   0.528138 0.822278 0.146939 0.533355
C47   C     C_R   0.971894 0.322174 0.853029 0.533429
C48   C     C_R   0.028146 0.322282 0.146934 0.535838
C49   C     C_2   0.168467 0.548164 0.476986 -0.124641
C50   C     C_2   0.784472 0.676680 0.548003 -0.132111
C51   C     C_2   0.716919 0.176587 0.452225 -0.133021
C52   C     C_2   0.331568 0.039616 0.521282 -0.119255
C53   C     C_2   0.179549 0.567413 0.553591 -0.138145
C54   C     C_2   0.772305 0.696555 0.472917 -0.138509
C55   C     C_2   0.728911 0.196362 0.527382 -0.135565
C56   C     C_2   0.321166 0.073546 0.446158 -0.144307
C57   C     C_R   0.272442 0.677971 0.859782 0.569662
C58   C     C_R   0.727595 0.677852 0.140226 0.566005
C59   C     C_R   0.772445 0.177981 0.859784 0.565865
C60   C     C_R   0.227601 0.177828 0.140227 0.568250
C61   C     C_R   0.292778 0.992594 0.641149 0.566505
C62   C     C_R   0.729179 0.047507 0.350762 0.557514
C63   C     C_R   0.770538 0.548658 0.649676 0.555828
C64   C     C_R   0.206256 0.490421 0.358210 0.597389
C65   C     C_R   0.437118 0.819683 0.640338 0.542230
C66   C     C_R   0.527175 0.824223 0.350507 0.553426
C67   C     C_R   0.972207 0.324706 0.649310 0.555232
C68   C     C_R   0.032192 0.323741 0.353829 0.535580
C69   C     C_R   0.259327 0.634291 0.647519 0.530596
C70   C     C_R   0.739038 0.640322 0.355495 0.549159
C71   C     C_R   0.760620 0.139477 0.644998 0.549598
C72   C     C_R   0.242169 0.130104 0.349782 0.534347
C73   C     C_R   0.499687 0.830822 0.074512 0.004504
C74   C     C_R   0.500376 0.830600 0.925436 0.001537
C75   C     C_R   0.999724 0.330845 0.074495 0.002488
C76   C     C_R   0.000413 0.330575 0.925419 0.004641
C77   C     C_R   0.496588 0.943366 0.037403 0.026976
C78   C     C_R   0.503765 0.943213 0.962364 0.025586
C79   C     C_R   0.996687 0.443386 0.037367 0.026243
C80   C     C_R   0.003863 0.443190 0.962328 0.026943
C81   C     C_R   0.501526 0.721375 0.963680 -0.161237
C82   C     C_R   0.498274 0.721496 0.036433 -0.159918
C83   C     C_R   0.001527 0.221360 0.963675 -0.159956
C84   C     C_R   0.998275 0.221509 0.036429 -0.160781
Cr1   Cr    Cr6+3 0.230530 0.836340 0.748870 0.998323
Cr2   Cr    Cr6+3 0.769470 0.836340 0.251130 1.008170
Cr3   Cr    Cr6+3 0.730530 0.336340 0.748870 1.010713
Cr4   Cr    Cr6+3 0.269470 0.336340 0.251130 0.997797
Cr5   Cr    Cr6+3 0.387420 0.989430 0.750820 1.007543
Cr6   Cr    Cr6+3 0.612580 0.989430 0.249180 1.010083
Cr7   Cr    Cr6+3 0.887420 0.489430 0.750820 1.010211
Cr8   Cr    Cr6+3 0.112580 0.489430 0.249180 1.006770
Cr9   Cr    Cr6+3 0.385640 0.677860 0.749230 1.009422
Cr10  Cr    Cr6+3 0.614360 0.677860 0.250770 1.019900
Cr11  Cr    Cr6+3 0.885640 0.177860 0.749230 1.020116
Cr12  Cr    Cr6+3 0.114360 0.177860 0.250770 1.007930
H1    H     H_    0.500669 0.633639 0.937339 0.135322
H2    H     H_    0.498923 0.633819 0.062908 0.135369
H3    H     H_    0.000635 0.133617 0.937345 0.135239
H4    H     H_    0.998888 0.133841 0.062913 0.135302
H5    H     H_    0.124852 0.598260 0.453044 0.121753
H6    H     H_    0.835372 0.707066 0.568356 0.127011
H7    H     H_    0.668274 0.213958 0.430200 0.124912
H8    H     H_    0.381227 0.069713 0.544747 0.107678
H9    H     H_    0.134626 0.600357 0.583956 0.136376
H10   H     H_    0.789434 0.784013 0.452229 0.142872
H11   H     H_    0.714436 0.285776 0.547482 0.145458
H12   H     H_    0.359177 0.139778 0.426999 0.134967
H13   H     H_    0.291232 0.548513 0.552160 0.137780
H14   H     H_    0.730445 0.520158 0.448675 0.119957
H15   H     H_    0.765101 0.016333 0.553400 0.120983
H16   H     H_    0.227444 0.974962 0.417997 0.161832
H17   H     H_    0.473027 0.060031 0.128482 0.133381
H18   H     H_    0.527578 0.059312 0.871069 0.136012
H19   H     H_    0.973177 0.560152 0.128417 0.134210
H20   H     H_    0.027726 0.559187 0.871003 0.133686
H21   H     H_    0.986203 0.751041 0.063611 0.108497
H22   H     H_    0.015517 0.750561 0.935433 0.108188
H23   H     H_    0.485928 0.250984 0.063708 0.107826
H24   H     H_    0.515243 0.250623 0.935531 0.109135
H25   H     H_    0.337708 0.478843 0.064990 0.145552
H26   H     H_    0.662459 0.478655 0.935177 0.145746
H27   H     H_    0.837719 0.978874 0.064998 0.145705
H28   H     H_    0.162470 0.978619 0.935183 0.145408
H29   H     H_    0.370197 0.586811 0.948975 0.150834
H30   H     H_    0.629901 0.586708 0.051114 0.150921
H31   H     H_    0.870202 0.086827 0.948979 0.150662
H32   H     H_    0.129909 0.086686 0.051119 0.151311
H33   H     H_    0.227172 0.685364 0.066450 0.112321
H34   H     H_    0.772726 0.685242 0.933499 0.112639
H35   H     H_    0.727181 0.185391 0.066464 0.112386
H36   H     H_    0.272736 0.185208 0.933517 0.112831
H37   H     H_    0.209546 0.634591 0.953043 0.114754
H38   H     H_    0.790514 0.634459 0.046962 0.114873
H39   H     H_    0.709555 0.134634 0.953055 0.115177
H40   H     H_    0.290529 0.134383 0.046978 0.114637
H41   H     H_    0.458548 0.650731 0.421555 0.147962
H42   H     H_    0.399847 0.668834 0.539081 0.130592
H43   H     H_    0.083626 0.184633 0.450757 0.152217
H44   H     H_    0.028862 0.152856 0.569577 0.146015
H45   H     H_    0.475199 0.928919 0.433993 0.100196
H46   H     H_    0.487334 0.904815 0.548946 0.103568
H47   H     H_    0.979835 0.402232 0.447620 0.091395
H48   H     H_    0.018823 0.431990 0.563548 0.104446
O1    O     O_R   0.215090 0.709860 0.828130 -0.518107
O2    O     O_R   0.784910 0.709860 0.171870 -0.519924
O3    O     O_R   0.715090 0.209860 0.828130 -0.519354
O4    O     O_R   0.284910 0.209860 0.171870 -0.521021
O5    O     O_R   0.445660 0.919250 0.676780 -0.516233
O6    O     O_R   0.554340 0.919250 0.323220 -0.500122
O7    O     O_R   0.945660 0.419250 0.676780 -0.501952
O8    O     O_R   0.054340 0.419250 0.323220 -0.516463
O9    O     O_R   0.456260 0.718170 0.670000 -0.504678
O10   O     O_R   0.543740 0.718170 0.330000 -0.510618
O11   O     O_R   0.956260 0.218170 0.670000 -0.511187
O12   O     O_R   0.043740 0.218170 0.330000 -0.516022
O13   O     O_R   0.320940 0.626760 0.674370 -0.512388
O14   O     O_R   0.679060 0.626760 0.325630 -0.486357
O15   O     O_R   0.820940 0.126760 0.674370 -0.486503
O16   O     O_R   0.179060 0.126760 0.325630 -0.501293
O17   O     O_3   0.334530 0.834540 0.749640 -0.301982
O18   O     O_3   0.665470 0.834540 0.250360 -0.257215
O19   O     O_3   0.834530 0.334540 0.749640 -0.257653
O20   O     O_3   0.165470 0.334540 0.250360 -0.283380
O21   O     O_R   0.236990 0.958390 0.823710 -0.505604
O22   O     O_R   0.763010 0.958390 0.176290 -0.510923
O23   O     O_R   0.736990 0.458390 0.823710 -0.510963
O24   O     O_R   0.263010 0.458390 0.176290 -0.507098
O25   O     O_R   0.332380 0.074750 0.830850 -0.504483
O26   O     O_R   0.667620 0.074750 0.169150 -0.510953
O27   O     O_R   0.832380 0.574750 0.830850 -0.510707
O28   O     O_R   0.167620 0.574750 0.169150 -0.505902
O29   O     O_R   0.445800 0.917770 0.825070 -0.501932
O30   O     O_R   0.554200 0.917770 0.174930 -0.508025
O31   O     O_R   0.945800 0.417770 0.825070 -0.507816
O32   O     O_R   0.054200 0.417770 0.174930 -0.505912
O33   O     O_R   0.456410 0.716580 0.829970 -0.525158
O34   O     O_R   0.543590 0.716580 0.170030 -0.531436
O35   O     O_R   0.956410 0.216580 0.829970 -0.531428
O36   O     O_R   0.043590 0.216580 0.170030 -0.527786
O37   O     O_R   0.321080 0.625290 0.822650 -0.485304
O38   O     O_R   0.678920 0.625290 0.177350 -0.491935
O39   O     O_R   0.821080 0.125290 0.822650 -0.491836
O40   O     O_R   0.178920 0.125290 0.177350 -0.487845
O41   O     O_R   0.214930 0.711450 0.668160 -0.530534
O42   O     O_R   0.785070 0.711450 0.331840 -0.518827
O43   O     O_R   0.714930 0.211450 0.668160 -0.516775
O44   O     O_R   0.285070 0.211450 0.331840 -0.534566
O45   O     O_R   0.236850 0.959870 0.675420 -0.496159
O46   O     O_R   0.763150 0.959870 0.324580 -0.510218
O47   O     O_R   0.736850 0.459870 0.675420 -0.510260
O48   O     O_R   0.263150 0.459870 0.324580 -0.496754
O49   O     O_R   0.332230 0.076350 0.670880 -0.520599
O50   O     O_R   0.667770 0.076350 0.329120 -0.530492
O51   O     O_R   0.832230 0.576350 0.670880 -0.530588
O52   O     O_R   0.167770 0.576350 0.329120 -0.527823
N1    N     N_2   0.260188 0.396844 0.466803 -0.520730
H49   H     H_    0.242599 0.308338 0.463324 0.256066
C85   C     C_3   0.335420 0.411653 0.453800 -0.291619
H50   H     H_    0.365499 0.378111 0.500778 0.132477
H51   H     H_    0.349136 0.508835 0.444921 0.140108
H52   H     H_    0.352298 0.358473 0.406810 0.179215
N2    N     N_2   0.670379 0.581681 0.564207 -0.538192
H53   H     H_    0.648491 0.503933 0.585522 0.260532
C86   C     C_3   0.621879 0.683507 0.565038 -0.288094
H54   H     H_    0.570138 0.653876 0.543153 0.165985
H55   H     H_    0.641746 0.759328 0.531510 0.161808
H56   H     H_    0.614172 0.716084 0.620506 0.161583
N3    N     N_2   0.826179 0.064803 0.440176 -0.539770
H57   H     H_    0.843652 0.981561 0.422045 0.258324
C87   C     C_3   0.880608 0.156363 0.437714 -0.292876
H58   H     H_    0.929822 0.117646 0.460651 0.159413
H59   H     H_    0.865324 0.237345 0.469548 0.165209
H60   H     H_    0.890601 0.183751 0.381655 0.152587
N4    N     N_2   0.217147 0.945000 0.537306 -0.535563
H61   H     H_    0.207980 0.856958 0.553835 0.268533
C88   C     C_3   0.155531 0.022010 0.543678 -0.303557
H62   H     H_    0.113669 0.988610 0.506970 0.127843
H63   H     H_    0.169065 0.117322 0.529488 0.157643
H64   H     H_    0.134557 0.019676 0.598783 0.171496

loop_
_geom_bond_atom_site_label_1
_geom_bond_atom_site_label_2
_ccdc_geom_bond_type
C16   C28   D    
C69   O41   A    
Cr3   O19   S    
N2    H53   S    
C38   C70   S    
C60   O40   A    
C37   C69   S    
C44   N4    S    
C9    H21   S    
C46   O34   A    
C35   C36   S    
Cr2   O22   S    
C53   H9    S    
Cr5   O29   S    
Cr6   O6    S    
C11   H23   S    
Cr10  O38   S    
C57   O37   A    
C81   C82   A    
C3    O23   A    
C62   O46   A    
C6    H18   S    
C77   C78   A    
Cr8   O32   S    
C88   H64   S    
C31   C67   S    
N2    C86   S    
C50   C54   S    
C30   H45   S    
Cr3   O3    S    
Cr6   O18   S    
Cr11  O15   S    
C7    C79   A    
Cr1   O1    S    
C47   C76   S    
C66   O6    A    
C45   O29   A    
N4    C88   S    
C16   C60   S    
C49   C53   S    
C75   C84   A    
C6    C78   A    
C15   H39   S    
C51   H7    S    
C24   H28   S    
Cr1   O17   S    
C3    C18   S    
C67   O11   A    
C5    H17   S    
C26   H30   S    
C7    H19   S    
C31   H48   S    
N1    C85   S    
C25   H29   S    
C56   H12   S    
C32   H47   S    
C65   O9    A    
C35   H43   S    
C12   H24   S    
C27   H31   S    
C41   C49   D    
C39   C55   D    
C83   C84   A    
C33   H41   S    
C40   C56   D    
C38   C54   D    
Cr8   O8    S    
C85   H52   S    
C69   O13   A    
C46   O30   A    
Cr2   O18   S    
Cr9   O17   S    
C38   H14   S    
C4    O28   A    
C9    C10   A    
Cr10  O18   S    
C31   C36   D    
C37   H13   S    
C30   C33   D    
C45   O33   A    
Cr1   O41   S    
C32   C68   S    
C37   C53   D    
Cr8   O20   S    
Cr5   O5    S    
C28   H32   S    
C85   H50   S    
Cr10  O14   S    
Cr10  O34   S    
C61   O45   A    
C82   H2    S    
C48   C75   S    
Cr7   O19   S    
C42   N2    S    
Cr9   O37   S    
Cr12  O40   S    
Cr2   O2    S    
C76   C83   A    
Cr5   O17   S    
C64   O48   A    
C22   H26   S    
C7    C9    A    
C86   H55   S    
C19   H35   S    
C14   C58   S    
N3    H57   S    
Cr3   O23   S    
Cr2   O46   S    
C54   H10   S    
C67   O7    A    
C84   H4    S    
C32   C35   D    
C76   C80   A    
C41   N1    S    
C21   C25   S    
C66   O10   A    
Cr9   O33   S    
Cr3   O43   S    
C14   H38   S    
C51   C55   S    
Cr4   O24   S    
C88   H62   S    
C86   H54   S    
C17   H33   S    
C29   C34   D    
C34   H42   S    
Cr12  O36   S    
C4    O24   A    
C55   H11   S    
C45   C74   S    
C70   O14   A    
C20   H36   S    
C19   C23   D    
N4    H61   S    
C68   O8    A    
Cr11  O19   S    
C10   H22   S    
Cr7   O51   S    
C57   O1    A    
C15   C27   D    
C87   H58   S    
Cr6   O50   S    
C1    O21   A    
Cr10  O10   S    
Cr5   O49   S    
Cr6   O26   S    
C33   C34   S    
Cr4   O4    S    
Cr7   O31   S    
C14   C26   D    
Cr9   O13   S    
C36   H44   S    
C85   H51   S    
C30   C66   S    
C47   O35   A    
C42   C50   D    
C29   C65   S    
C4    C17   S    
Cr11  O35   S    
Cr12  O16   S    
C2    O26   A    
C50   H6    S    
C23   C27   S    
C3    O27   A    
C5    C11   A    
C72   O44   A    
C63   O51   A    
C18   H34   S    
C75   C79   A    
C62   O50   A    
C74   C81   A    
C5    C77   A    
C16   H40   S    
C6    C12   A    
C61   O49   A    
C73   C82   A    
C48   O36   A    
Cr3   O47   S    
C86   H56   S    
Cr4   O48   S    
C2    O22   A    
C52   H8    S    
C1    C20   S    
C15   C59   S    
C40   C72   S    
Cr11  O39   S    
C87   H59   S    
C2    C19   S    
C18   C22   D    
C13   H37   S    
C24   C28   S    
C71   O43   A    
Cr8   O52   S    
C68   O12   A    
C44   C52   D    
C23   H27   S    
C11   C12   A    
C58   O2    A    
Cr2   O42   S    
C44   C61   S    
C88   H63   S    
C71   O15   A    
Cr6   O30   S    
C72   O16   A    
Cr7   O27   S    
C58   O38   A    
Cr1   O21   S    
Cr7   O7    S    
Cr9   O9    S    
C70   O42   A    
Cr5   O25   S    
Cr4   O20   S    
C49   H5    S    
C39   H15   S    
C40   H16   S    
C43   C51   D    
Cr12  O12   S    
C81   H1    S    
C13   C25   D    
Cr8   O28   S    
C63   O47   A    
C29   H46   S    
C64   O52   A    
C1    O25   A    
N3    C87   S    
Cr11  O11   S    
C65   O5    A    
N1    H49   S    
C43   N3    S    
C17   C21   D    
C8    H20   S    
C79   C80   A    
Cr12  O20   S    
Cr4   O44   S    
C87   H60   S    
C13   C57   S    
C73   C77   A    
C8    C10   A    
C22   C26   S    
C8    C80   A    
C39   C71   S    
C59   O39   A    
C21   H25   S    
C83   H3    S    
C60   O4    A    
C41   C64   S    
Cr1   O45   S    
C42   C63   S    
C20   C24   D    
C46   C73   S    
C47   O31   A    
C52   C56   S    
C43   C62   S    
C59   O3    A    
C48   O32   A    
C74   C78   A    
