data_mof_unit_25615.cif
_audit_creation_date              2012-12-10T16:37:34-0500
_audit_creation_method            fapswitch 2.2
_symmetry_space_group_name_H-M    P1
_symmetry_Int_Tables_number       1
_space_group_crystal_system       triclinic
_cell_length_a                    10.873812
_cell_length_b                    10.908881
_cell_length_c                    15.360115
_cell_angle_alpha                 97.094868
_cell_angle_beta                  74.815528
_cell_angle_gamma                 99.039326
_cell_volume                      1730.08812976

loop_
_atom_site_label
_atom_site_type_symbol
_atom_type_description
_atom_site_fract_x
_atom_site_fract_y
_atom_site_fract_z
_atom_type_partial_charge
C1    C     C_R   0.158958 0.478786 0.518870 0.550826
C2    C     C_R   0.561840 0.497606 0.101837 -0.006943
C3    C     C_R   0.582270 0.288624 0.128351 -0.101970
C4    C     C_R   0.842170 0.521536 0.480525 0.531350
C5    C     C_R   0.409710 0.568782 0.843972 0.003253
C6    C     C_2   0.978519 0.535269 0.477438 0.052931
C7    C     C_2   0.024122 0.465647 0.525893 0.088237
C8    C     C_2   0.550468 0.971458 0.484524 0.004456
C9    C     C_2   0.447690 0.034736 0.523687 0.031257
C10   C     C_R   0.465910 0.167998 0.520597 0.522674
C11   C     C_R   0.532026 0.834658 0.482403 0.530764
C12   C     C_R   0.333040 0.689869 0.987699 0.121592
C13   C     C_R   0.554347 0.445178 0.257645 0.501910
C14   C     C_R   0.443246 0.552826 0.742924 0.532145
C15   C     C_R   0.569704 0.243333 0.041848 0.117274
C16   C     C_R   0.577163 0.413760 0.159359 0.012391
C17   C     C_R   0.355873 0.676166 0.892774 0.112965
C18   C     C_3   0.683707 0.044301 0.446404 -0.285731
C19   C     C_3   0.796671 0.969940 0.406258 -0.381119
C20   C     C_3   0.308616 0.971523 0.557339 -0.257829
C21   C     C_3   0.201412 0.054443 0.575399 -0.389301
C22   C     C_3   0.612573 0.635982 0.116321 -0.273875
C23   C     C_R   0.383349 0.612676 0.031129 -0.111015
C24   C     C_3   0.704160 0.686367 0.030678 -0.395039
C25   C     C_R   0.451742 0.516747 0.982416 -0.029307
C26   C     C_R   0.440142 0.480350 0.893613 -0.024288
C27   C     C_R   0.516256 0.446972 0.024158 0.006889
C28   C     C_R   0.537681 0.323192 0.986777 0.023442
C29   C     C_R   0.516713 0.283488 0.899636 0.141134
C30   C     C_R   0.455533 0.356231 0.859151 0.125601
H1    H     H_    0.592023 0.224246 0.173840 0.143741
H2    H     H_    0.108177 0.000263 0.606556 0.167115
H3    H     H_    0.286447 0.895938 0.506017 0.181989
H4    H     H_    0.300298 0.931419 0.622035 0.207472
H5    H     H_    0.750926 0.781143 0.047732 0.176300
H6    H     H_    0.780137 0.625052 0.001957 0.177682
H7    H     H_    0.652246 0.693824 0.978740 0.181768
H8    H     H_    0.670241 0.650693 0.167116 0.188734
H9    H     H_    0.534954 0.695007 0.143490 0.156628
H10   H     H_    0.361833 0.623569 0.104160 0.151891
H11   H     H_    0.807716 0.909776 0.456312 0.187187
H12   H     H_    0.784586 0.913782 0.342944 0.190615
H13   H     H_    0.886694 0.035632 0.388553 0.155823
H14   H     H_    0.676541 0.101393 0.393190 0.139034
H15   H     H_    0.711164 0.108666 0.502073 0.197632
H16   H     H_    0.218428 0.136902 0.622661 0.187534
H17   H     H_    0.193017 0.084884 0.511073 0.191256
I1    I     I_    0.924338 0.311380 0.601106 -0.295515
I2    I     I_    0.612660 0.144101 0.807899 -0.186118
I3    I     I_    0.562324 0.045610 0.021645 -0.286699
I4    I     I_    0.310871 0.823039 0.829901 -0.194150
I5    I     I_    0.223996 0.824736 0.072261 -0.248035
I6    I     I_    0.330752 0.256706 0.779577 -0.268829
I7    I     I_    0.101938 0.672367 0.395276 -0.352553
O1    O     O_3   0.500000 0.500000 0.500000 -0.454945
O2    O     O_R   0.463530 0.379110 0.309170 -0.527722
O3    O     O_R   0.388210 0.611730 0.699360 -0.509850
O4    O     O_R   0.624720 0.532760 0.292120 -0.548212
O5    O     O_R   0.523540 0.476390 0.699360 -0.510071
O6    O     O_R   0.537910 0.240570 0.564270 -0.512723
O7    O     O_R   0.438950 0.782540 0.540270 -0.550909
O8    O     O_R   0.222350 0.398740 0.468260 -0.525941
O9    O     O_R   0.800790 0.578160 0.427210 -0.518838
O10   O     O_R   0.212140 0.566330 0.564260 -0.518657
O11   O     O_R   0.764730 0.456770 0.540270 -0.518966
O12   O     O_R   0.412790 0.208310 0.468260 -0.552374
O13   O     O_R   0.610350 0.768590 0.427210 -0.544740
Zn1   Zn    Zn3+2 0.580150 0.419820 0.574680 0.989761
Zn2   Zn    Zn3+2 0.401380 0.373730 0.437510 0.961935
Zn3   Zn    Zn3+2 0.631680 0.593260 0.413140 0.951067
Zn4   Zn    Zn3+2 0.386790 0.613180 0.574670 0.986012

loop_
_geom_bond_atom_site_label_1
_geom_bond_atom_site_label_2
_ccdc_geom_bond_type
C12   C17   A    
C2    C22   S    
C10   O6    A    
C19   H12   S    
O1    Zn4   S    
C6    C7    D    
C13   O4    A    
C18   H14   S    
O5    Zn1   S    
C25   C27   A    
C29   C30   A    
C2    C16   A    
C9    C10   S    
C9    C20   S    
C12   C23   A    
O9    Zn3   S    
O13   Zn3   S    
C20   H4    S    
C7    I1    S    
C17   I4    S    
C13   C16   S    
C23   C25   A    
O1    Zn1   S    
C15   C28   A    
C13   O2    A    
C29   I2    S    
C2    C27   A    
C1    O8    A    
C3    H1    S    
C14   O5    A    
C4    O9    A    
O7    Zn4   S    
C5    C14   S    
C24   H6    S    
O1    Zn2   S    
C8    C11   S    
C20   H3    S    
C28   C29   A    
C21   H2    S    
C6    I7    S    
C26   C30   A    
C21   H17   S    
C10   O12   A    
C4    O11   A    
C30   I6    S    
C22   C24   S    
C15   I3    S    
O12   Zn2   S    
C5    C17   A    
O6    Zn1   S    
C22   H9    S    
C5    C26   A    
C21   H16   S    
C18   H15   S    
C19   H11   S    
O11   Zn1   S    
C3    C15   A    
C20   C21   S    
O3    Zn4   S    
C4    C6    S    
C18   C19   S    
O10   Zn4   S    
C27   C28   A    
O2    Zn2   S    
C14   O3    A    
O4    Zn3   S    
O1    Zn3   S    
C24   H7    S    
C19   H13   S    
C12   I5    S    
C25   C26   A    
C1    C7    S    
C1    O10   A    
C24   H5    S    
C8    C18   S    
C3    C16   A    
C23   H10   S    
O8    Zn2   S    
C11   O13   A    
C8    C9    D    
C11   O7    A    
C22   H8    S    
