data_mof_unit_20247.cif
_audit_creation_date              2012-10-26T20:43:36-0400
_audit_creation_method            fapswitch 2.2
_symmetry_space_group_name_H-M    P1
_symmetry_Int_Tables_number       1
_space_group_crystal_system       triclinic
_cell_length_a                    10.82344
_cell_length_b                    9.6816
_cell_length_c                    23.498153
_cell_angle_alpha                 90.362264
_cell_angle_beta                  89.437102
_cell_angle_gamma                 90.225717
_cell_volume                      2462.1429926

loop_
_atom_site_label
_atom_site_type_symbol
_atom_type_description
_atom_site_fract_x
_atom_site_fract_y
_atom_site_fract_z
_atom_type_partial_charge
C1    C     C_R   0.262570 0.499847 0.500037 0.532929
C2    C     C_R   0.567875 0.590475 0.702295 0.211057
C3    C     C_R   0.417712 0.569341 0.239380 0.279301
C4    C     C_R   0.554686 0.596683 0.762126 0.275282
C5    C     C_R   0.505418 0.486571 0.209991 0.137517
C6    C     C_R   0.481827 0.496105 0.790783 0.131184
C7    C     C_R   0.063428 0.374532 0.502173 -0.146817
C8    C     C_R   0.936606 0.625455 0.498170 -0.130366
C9    C     C_R   0.935569 0.374697 0.502147 -0.136463
C10   C     C_R   0.064456 0.625281 0.498189 -0.132997
C11   C     C_R   0.871559 0.500170 0.500108 0.041004
C12   C     C_R   0.737439 0.500150 0.500005 0.548764
C13   C     C_R   0.128462 0.499812 0.500143 0.027075
C14   C     C_R   0.496097 0.071927 0.450459 0.313849
C15   C     C_R   0.483971 0.927726 0.549135 0.315346
C16   C     C_R   0.503278 0.073030 0.549605 0.317061
C17   C     C_R   0.514369 0.926702 0.450742 0.314823
C18   C     C_R   0.501343 0.499533 0.391476 0.631329
C19   C     C_R   0.499049 0.500035 0.608653 0.599609
C20   C     C_R   0.595541 0.485888 0.879485 0.426778
C21   C     C_R   0.398033 0.440698 0.121698 0.412695
C22   C     C_R   0.375469 0.485950 0.883188 0.414847
C23   C     C_R   0.593142 0.409758 0.240823 0.267024
C24   C     C_R   0.607168 0.519623 0.118176 0.414824
C25   C     C_R   0.377883 0.472892 0.942623 -0.036853
C26   C     C_R   0.606563 0.514921 0.058552 -0.028709
C27   C     C_R   0.491343 0.486920 0.970661 -0.094405
C28   C     C_R   0.495072 0.485474 0.030588 -0.093540
C29   C     C_R   0.601030 0.503425 0.938784 0.018604
C30   C     C_R   0.387354 0.455185 0.062404 0.016641
C31   C     C_R   0.269578 0.450657 0.974522 -0.103581
C32   C     C_R   0.713472 0.543911 0.026480 -0.099832
C33   C     C_R   0.272942 0.442147 0.033946 0.270099
C34   C     C_R   0.413959 0.398562 0.758679 0.262285
C35   C     C_R   0.711758 0.539378 0.967010 0.269268
C36   C     C_3   0.119749 0.547641 0.086278 0.031146
C37   C     C_3   0.064384 0.639909 0.040866 -0.429389
C38   C     C_3   0.804667 0.709512 0.913590 0.035436
C39   C     C_3   0.885321 0.813453 0.944904 -0.414038
C40   C     C_3   0.622628 0.206294 0.192828 -0.012798
C41   C     C_3   0.721267 0.103584 0.174197 -0.367229
C42   C     C_3   0.414693 0.186300 0.800121 0.006181
C43   C     C_3   0.342423 0.097823 0.842203 -0.359133
C44   C     C_3   0.718932 0.240546 0.328795 -0.039759
C45   C     C_R   0.597946 0.424220 0.300546 0.195456
C46   C     C_3   0.225471 0.378657 0.658248 -0.076170
C47   C     C_3   0.300190 0.760236 0.324763 -0.045784
C48   C     C_3   0.672785 0.794661 0.682685 -0.033399
C49   C     C_3   0.384884 0.762989 0.186936 -0.142563
C50   C     C_3   0.545568 0.795524 0.814168 -0.159709
C51   C     C_3   0.352392 0.126423 0.384857 0.011999
C52   C     C_3   0.337589 0.148663 0.321252 -0.367355
C53   C     C_3   0.325823 0.882387 0.609906 0.005581
C54   C     C_3   0.291897 0.824378 0.667999 -0.364249
C55   C     C_3   0.653280 0.139368 0.610461 0.020403
C56   C     C_R   0.412358 0.407270 0.699295 0.189512
C57   C     C_3   0.678714 0.167932 0.673031 -0.357352
C58   C     C_3   0.664479 0.871207 0.386578 0.008900
C59   C     C_3   0.684743 0.842251 0.323454 -0.369441
C60   C     C_R   0.504245 0.497685 0.329233 -0.063366
C61   C     C_R   0.492748 0.499563 0.671108 -0.076659
C62   C     C_R   0.412126 0.566829 0.299171 0.199746
Cu1   Cu    Cu3+1 0.500000 0.640660 0.500000 1.020802
Cu2   Cu    Cu3+1 0.500000 0.359340 0.500000 1.015698
H1    H     H_    0.181330 0.439713 0.953556 0.185714
H2    H     H_    0.008987 0.722876 0.061482 0.116975
H3    H     H_    0.138896 0.688758 0.015069 0.132769
H4    H     H_    0.707949 0.749252 0.913431 0.116056
H5    H     H_    0.836153 0.705116 0.868494 0.217956
H6    H     H_    0.983864 0.783176 0.941158 0.165268
H7    H     H_    0.874205 0.917317 0.925881 0.119275
H8    H     H_    0.857497 0.818708 0.990460 0.145686
H9    H     H_    0.564211 0.227536 0.155366 0.158633
H10   H     H_    0.564242 0.156594 0.226292 0.092217
H11   H     H_    0.779691 0.075257 0.210844 0.142300
H12   H     H_    0.798678 0.571162 0.047478 0.161127
H13   H     H_    0.676735 0.008452 0.157304 0.101074
H14   H     H_    0.780470 0.149399 0.140307 0.184663
H15   H     H_    0.502615 0.218240 0.820852 0.130829
H16   H     H_    0.436571 0.123164 0.761623 0.144909
H17   H     H_    0.258975 0.054181 0.821518 0.165084
H18   H     H_    0.400761 0.012094 0.857409 0.071914
H19   H     H_    0.313654 0.161408 0.879524 0.179658
H20   H     H_    0.633385 0.180334 0.320225 0.145306
H21   H     H_    0.754245 0.207061 0.370607 0.128156
H22   H     H_    0.791035 0.215698 0.296551 0.154896
H23   H     H_    0.111013 0.276436 0.503822 0.115959
H24   H     H_    0.236902 0.473453 0.632136 0.087503
H25   H     H_    0.175522 0.403244 0.698676 0.157472
H26   H     H_    0.167333 0.305334 0.633712 0.130944
H27   H     H_    0.390528 0.813287 0.318133 0.143544
H28   H     H_    0.259836 0.799622 0.365206 0.128802
H29   H     H_    0.235605 0.787959 0.290336 0.153332
H30   H     H_    0.580556 0.842506 0.689443 0.151473
H31   H     H_    0.714440 0.840460 0.644029 0.130707
H32   H     H_    0.735377 0.820423 0.718345 0.154316
H33   H     H_    0.437097 0.738580 0.147311 0.134441
H34   H     H_    0.889046 0.723567 0.496531 0.112906
H35   H     H_    0.446186 0.817494 0.217678 0.085146
H36   H     H_    0.310482 0.835879 0.175475 0.132702
H37   H     H_    0.490939 0.758262 0.851267 0.137205
H38   H     H_    0.482595 0.836519 0.781206 0.087753
H39   H     H_    0.603615 0.882982 0.829049 0.118135
H40   H     H_    0.300390 0.208139 0.408227 0.163519
H41   H     H_    0.310164 0.024446 0.395321 0.089114
H42   H     H_    0.391414 0.070128 0.297029 0.127991
H43   H     H_    0.238652 0.139123 0.309755 0.113411
H44   H     H_    0.370861 0.252990 0.309301 0.161599
H45   H     H_    0.887186 0.276621 0.503762 0.111335
H46   H     H_    0.270893 0.826602 0.577116 0.127338
H47   H     H_    0.299853 0.993745 0.610028 0.152587
H48   H     H_    0.191334 0.837271 0.676058 0.104345
H49   H     H_    0.314342 0.712872 0.669706 0.139026
H50   H     H_    0.343487 0.880375 0.701647 0.147211
H51   H     H_    0.696555 0.222965 0.584970 0.160734
H52   H     H_    0.699414 0.040746 0.598432 0.072152
H53   H     H_    0.629426 0.091715 0.700114 0.131648
H54   H     H_    0.779419 0.160565 0.680988 0.096748
H55   H     H_    0.647612 0.273166 0.684916 0.168134
H56   H     H_    0.112827 0.723353 0.496536 0.114284
H57   H     H_    0.715653 0.793048 0.411447 0.157733
H58   H     H_    0.703981 0.975221 0.395979 0.091287
H59   H     H_    0.784514 0.851663 0.312665 0.107702
H60   H     H_    0.653182 0.736268 0.312678 0.167656
H61   H     H_    0.632290 0.917505 0.297733 0.130472
H62   H     H_    0.192545 0.605645 0.109650 0.174136
H63   H     H_    0.045960 0.523223 0.117855 0.203766
H64   H     H_    0.004446 0.577753 0.012471 0.209391
N1    N     N_R   0.483847 0.487953 0.852297 -0.388633
N2    N     N_R   0.504276 0.480650 0.148644 -0.390228
N3    N     N_R   0.500000 0.852070 0.500000 -0.282935
N4    N     N_R   0.500000 0.147930 0.500000 -0.291594
O1    O     O_R   0.319640 0.618740 0.500000 -0.516894
O2    O     O_2   0.303809 0.386458 0.152346 -0.437010
O3    O     O_2   0.265965 0.498387 0.856811 -0.463390
O4    O     O_2   0.709203 0.564011 0.145431 -0.476362
O5    O     O_3   0.162693 0.420921 0.063036 -0.519564
O6    O     O_3   0.818153 0.575982 0.937402 -0.528266
O7    O     O_3   0.680062 0.328835 0.212778 -0.496305
O8    O     O_3   0.341032 0.300090 0.785128 -0.484843
O9    O     O_3   0.700811 0.384534 0.331241 -0.538422
O10   O     O_3   0.340065 0.315528 0.668783 -0.502154
O11   O     O_3   0.309478 0.615425 0.328842 -0.534315
O12   O     O_R   0.680360 0.381260 0.500000 -0.528428
O13   O     O_3   0.667687 0.650780 0.674123 -0.539865
O14   O     O_3   0.329692 0.642921 0.210005 -0.528429
O15   O     O_3   0.624136 0.691187 0.792639 -0.540255
O16   O     O_3   0.479142 0.134108 0.398685 -0.531798
O17   O     O_3   0.453648 0.864221 0.599623 -0.522340
O18   O     O_3   0.524143 0.135377 0.601478 -0.481404
O19   O     O_3   0.536844 0.862394 0.399345 -0.530089
O20   O     O_R   0.680360 0.618740 0.500000 -0.517344
O21   O     O_R   0.319640 0.381260 0.500000 -0.521062
O22   O     O_R   0.499960 0.618810 0.417880 -0.436843
O23   O     O_R   0.500040 0.381190 0.582120 -0.427816
O24   O     O_R   0.500040 0.618810 0.582120 -0.431899
O25   O     O_R   0.499960 0.381190 0.417880 -0.441368
O26   O     O_2   0.700637 0.465446 0.849295 -0.424365

loop_
_geom_bond_atom_site_label_1
_geom_bond_atom_site_label_2
_ccdc_geom_bond_type
C50   O15   S    
C25   C31   A    
C45   O9    S    
C40   O7    S    
C45   C60   A    
C34   C56   A    
C23   C45   A    
C48   H31   S    
C47   O11   S    
C27   C29   A    
C19   O23   A    
C47   H28   S    
C12   O20   A    
C20   N1    A    
C46   O10   S    
C46   H25   S    
C14   N4    A    
C53   C54   S    
C2    O13   S    
C42   H16   S    
Cu2   O23   S    
C48   H30   S    
Cu1   O1    S    
C23   O7    S    
C36   C37   S    
C24   C26   A    
Cu1   O24   S    
C35   O6    S    
C41   H13   S    
C38   C39   S    
C44   H22   S    
C17   N3    A    
C55   H52   S    
C37   H3    S    
C15   C16   A    
C54   H49   S    
C14   O16   S    
C43   H19   S    
C40   H9    S    
C60   C62   A    
C8    H34   S    
C53   H46   S    
C7    H23   S    
Cu2   N4    S    
C52   H43   S    
C33   O5    S    
C44   O9    S    
C22   C25   A    
Cu2   O25   S    
C39   H8    S    
C31   C33   A    
Cu1   N3    S    
C36   O5    S    
C62   O11   S    
C18   O22   A    
C2    C61   A    
C57   H55   S    
C37   H64   S    
C56   O10   S    
C24   O4    S    
C38   H5    S    
C52   H42   S    
C50   H39   S    
C20   O26   S    
C48   O13   S    
C53   O17   S    
C19   O24   A    
C14   C17   A    
C17   O19   S    
C6    N1    S    
C1    O1    A    
C59   H59   S    
C46   H24   S    
C20   C29   A    
C9    H45   S    
Cu1   O20   S    
C58   H58   S    
C42   O8    S    
C51   C52   S    
C32   C35   A    
C4    C6    A    
C41   H14   S    
C26   C32   A    
Cu2   O12   S    
C3    C5    A    
C51   H40   S    
C4    O15   S    
Cu2   O21   S    
C12   O12   A    
C2    C4    A    
C24   N2    A    
C49   H35   S    
C5    C23   A    
C7    C13   A    
C51   H41   S    
C37   H2    S    
C47   H29   S    
C54   H48   S    
C1    O21   A    
C9    C11   A    
C41   H11   S    
C50   H37   S    
C18   C60   S    
C5    N2    S    
C38   H4    S    
C50   H38   S    
C55   C57   S    
C22   N1    A    
C43   H17   S    
C36   H63   S    
C1    C13   S    
C42   C43   S    
C44   H21   S    
C21   O2    S    
C15   O17   S    
C58   O19   S    
C55   O18   S    
C57   H53   S    
C3    C62   A    
C59   H60   S    
C31   H1    S    
C7    C9    A    
C40   C41   S    
C58   H57   S    
C48   H32   S    
C30   C33   A    
C47   H27   S    
C36   H62   S    
Cu1   O22   S    
C44   H20   S    
C10   C13   A    
C32   H12   S    
C11   C12   S    
C46   H26   S    
C25   C27   A    
C21   C30   A    
C29   C35   A    
C26   C28   A    
C22   O3    S    
C28   C30   A    
C58   C59   S    
C18   O25   A    
C59   H61   S    
C49   H36   S    
C53   H47   S    
C55   H51   S    
C51   O16   S    
C19   C61   S    
C8    C11   A    
C54   H50   S    
C34   O8    S    
C39   H6    S    
C40   H10   S    
C49   O14   S    
C16   N4    A    
C21   N2    A    
C10   H56   S    
C49   H33   S    
Cu1   Cu2   S    
C6    C34   A    
C42   H15   S    
C15   N3    A    
C52   H44   S    
C3    O14   S    
C8    C10   A    
C27   C28   A    
C43   H18   S    
C39   H7    S    
C56   C61   A    
C16   O18   S    
C38   O6    S    
C57   H54   S    
