data_mof_unit_25285.cif
_audit_creation_date              2012-12-11T14:48:00-0500
_audit_creation_method            fapswitch 2.2
_symmetry_space_group_name_H-M    P1
_symmetry_Int_Tables_number       1
_space_group_crystal_system       triclinic
_cell_length_a                    11.567299
_cell_length_b                    11.506781
_cell_length_c                    19.572483
_cell_angle_alpha                 90.334667
_cell_angle_beta                  89.937552
_cell_angle_gamma                 60.086685
_cell_volume                      2258.02641332

loop_
_atom_site_label
_atom_site_type_symbol
_atom_type_description
_atom_site_fract_x
_atom_site_fract_y
_atom_site_fract_z
_atom_type_partial_charge
C1    C     C_R   0.640180 0.117292 0.599329 0.550361
C2    C     C_1   0.652656 0.149688 0.668688 0.003319
C3    C     C_R   0.566225 0.638857 0.305273 0.090039
C4    C     C_R   0.612113 0.746247 0.598676 0.540919
C5    C     C_R   0.569445 0.640484 0.235347 -0.142285
C6    C     C_R   0.679171 0.632592 0.200830 0.023168
C7    C     C_R   0.788505 0.622430 0.238369 0.074121
C8    C     C_R   0.774295 0.643587 0.308631 -0.147503
C9    C     C_R   0.659813 0.659942 0.341294 0.026900
C10   C     C_R   0.263758 0.235811 0.280984 0.102219
C11   C     C_R   0.216544 0.258947 0.214827 -0.085233
C12   C     C_1   0.640659 0.704094 0.668025 0.005973
C13   C     C_R   0.162044 0.186424 0.186607 -0.020019
C14   C     C_R   0.166210 0.079775 0.222327 -0.144711
C15   C     C_R   0.215061 0.051910 0.288849 0.061461
C16   C     C_R   0.240925 0.145229 0.598220 0.554485
C17   C     C_R   0.260561 0.132980 0.320395 0.060044
C18   C     C_R   0.720957 0.031732 0.286558 -0.117085
C19   C     C_R   0.728653 0.053638 0.217698 0.123480
C20   C     C_R   0.672589 0.186191 0.193909 0.053562
C21   C     C_R   0.608186 0.294366 0.239666 -0.146566
C22   C     C_R   0.605475 0.270752 0.308933 -0.150493
C23   C     C_1   0.126561 0.199123 0.859234 0.004677
C24   C     C_R   0.662558 0.139652 0.332425 -0.002289
C25   C     C_R   0.081704 0.231381 0.928518 0.544653
C26   C     C_R   0.684071 0.604494 0.929437 0.546258
C27   C     C_R   0.708692 0.206909 0.930017 0.547481
C28   C     C_R   0.644791 0.111433 0.402241 0.532031
C29   C     C_R   0.085676 0.234426 0.124137 0.556297
C30   C     C_R   0.687538 0.602293 0.128512 0.555199
C31   C     C_R   0.707654 0.210861 0.126471 0.566812
C32   C     C_R   0.619652 0.732133 0.405276 0.543550
C33   C     C_R   0.299702 0.116045 0.393354 0.565125
C34   C     C_1   0.171549 0.170115 0.727727 -0.030507
C35   C     C_1   0.670739 0.646509 0.860052 0.004595
C36   C     C_1   0.654413 0.683813 0.728417 -0.030392
C37   C     C_1   0.663545 0.666734 0.799636 -0.030797
C38   C     C_3   0.939662 0.867450 0.181931 -0.289313
C39   C     C_3   0.225031 0.456940 0.315395 -0.295007
C40   C     C_1   0.150068 0.182441 0.798923 -0.030175
C41   C     C_1   0.195365 0.160600 0.667422 0.003192
C42   C     C_1   0.679042 0.191356 0.860686 0.004333
C43   C     C_1   0.658469 0.167221 0.729031 -0.030130
C44   C     C_1   0.665972 0.180921 0.800302 -0.030081
Cr1   Cr    Cr6+3 0.404720 0.198220 0.499960 1.015837
Cr2   Cr    Cr6+3 0.698290 0.897110 0.500380 1.021274
Cr3   Cr    Cr6+3 0.396970 0.904720 0.499610 1.061065
Cr4   Cr    Cr6+3 0.926180 0.152240 0.028110 1.030874
Cr5   Cr    Cr6+3 0.921340 0.452070 0.027460 1.037513
Cr6   Cr    Cr6+3 0.626260 0.447120 0.028700 1.024487
H1    H     H_    0.566045 0.396575 0.222385 0.132398
H2    H     H_    0.753840 0.881793 0.172019 0.239578
H3    H     H_    0.965430 0.810941 0.230621 0.106286
H4    H     H_    0.981295 0.935831 0.182809 0.171836
H5    H     H_    0.986746 0.796138 0.138688 0.137491
H6    H     H_    0.900006 0.658051 0.171284 0.233734
H7    H     H_    0.981580 0.583111 0.242335 0.199799
H8    H     H_    0.387314 0.273671 0.342412 0.294870
H9    H     H_    0.272579 0.502231 0.346730 0.133873
H10   H     H_    0.133660 0.472777 0.342425 0.165409
H11   H     H_    0.199546 0.508229 0.265352 0.130347
H12   H     H_    0.555992 0.353549 0.344181 0.115587
H13   H     H_    0.112594 0.967983 0.328007 0.224713
H14   H     H_    0.262815 0.858275 0.294680 0.241122
H15   H     H_    0.487426 0.641285 0.208245 0.132409
H16   H     H_    0.850390 0.651057 0.337392 0.118069
H17   H     H_    0.218669 0.338065 0.186037 0.156050
H18   H     H_    0.125987 0.021322 0.199952 0.120475
H19   H     H_    0.760505 0.929574 0.303978 0.135165
H20   H     H_    0.412832 0.596603 0.305328 0.196556
H21   H     H_    0.502796 0.557560 0.377183 0.230478
N1    N     N_3   0.460205 0.629976 0.339141 -0.594991
N2    N     N_2   0.796264 0.942052 0.172760 -0.493977
N3    N     N_3   0.914380 0.584686 0.206447 -0.582786
N4    N     N_2   0.317413 0.315464 0.305489 -0.519588
N5    N     N_3   0.211988 0.945119 0.324485 -0.568231
O1    O     O_R   0.267740 0.231990 0.575440 -0.500691
O2    O     O_R   0.596140 0.579600 0.952720 -0.503292
O3    O     O_R   0.639070 0.321380 0.958660 -0.493854
O4    O     O_R   0.527280 0.186680 0.570530 -0.492436
O5    O     O_R   0.821240 0.124490 0.104360 -0.487158
O6    O     O_R   0.036900 0.167320 0.097830 -0.511741
O7    O     O_R   0.056190 0.349890 0.102870 -0.501195
O8    O     O_R   0.797670 0.565150 0.097930 -0.477489
O9    O     O_R   0.595880 0.584540 0.104260 -0.537209
O10   O     O_R   0.638830 0.325960 0.099140 -0.517131
O11   O     O_3   0.824590 0.350480 0.028090 -0.258733
O12   O     O_R   0.685970 0.784630 0.430010 -0.522150
O13   O     O_R   0.728090 0.003480 0.576380 -0.499293
O14   O     O_R   0.682970 0.789220 0.570490 -0.493648
O15   O     O_R   0.499290 0.771920 0.575530 -0.508605
O16   O     O_R   0.285330 0.030900 0.569730 -0.490351
O17   O     O_R   0.270980 0.227040 0.423900 -0.522726
O18   O     O_R   0.530280 0.182090 0.430050 -0.540663
O19   O     O_R   0.731330 0.998530 0.424830 -0.513940
O20   O     O_R   0.502530 0.766960 0.423990 -0.470331
O21   O     O_R   0.288330 0.026310 0.429250 -0.444790
O22   O     O_3   0.499990 0.000020 0.499980 -0.279198
O23   O     O_R   0.821500 0.119550 0.952820 -0.503619
O24   O     O_R   0.037130 0.162750 0.957360 -0.496398
O25   O     O_R   0.056440 0.344950 0.951330 -0.507548
O26   O     O_R   0.797900 0.560570 0.957460 -0.495197

loop_
_geom_bond_atom_site_label_1
_geom_bond_atom_site_label_2
_ccdc_geom_bond_type
C8    H16   S    
Cr3   O16   S    
Cr5   O11   S    
C19   C20   A    
Cr1   O17   S    
Cr6   O3    S    
C7    C8    A    
Cr2   O13   S    
C27   O23   A    
C26   O2    A    
Cr3   O22   S    
C42   C44   T    
C28   O19   A    
C34   C40   S    
C31   O5    A    
Cr5   O8    S    
C13   C29   S    
C36   C37   S    
C35   C37   T    
C29   O7    A    
C27   O3    A    
Cr1   O22   S    
Cr5   O25   S    
C5    C6    A    
H13   N5    S    
C10   C17   A    
C23   C40   T    
C32   O12   A    
Cr4   O5    S    
C28   O18   A    
C16   O1    A    
C9    C32   S    
Cr2   O19   S    
C8    C9    A    
Cr3   O20   S    
C39   N4    S    
C12   C36   T    
Cr2   O12   S    
Cr6   O9    S    
C4    O15   A    
C18   H19   S    
C15   N5    S    
Cr2   O22   S    
C31   O10   A    
C13   C14   A    
C34   C41   T    
C17   C33   S    
Cr4   O24   S    
Cr1   O18   S    
Cr6   O2    S    
C11   H17   S    
H8    N4    S    
C7    N3    S    
C4    O14   A    
C39   H11   S    
H6    N3    S    
C38   H5    S    
C19   N2    S    
C5    H15   S    
H2    N2    S    
Cr5   O26   S    
C18   C19   A    
H7    N3    S    
C43   C44   S    
C3    C9    A    
C22   H12   S    
C10   N4    S    
C25   O24   A    
C38   H4    S    
C2    C43   T    
C39   H9    S    
H14   N5    S    
Cr4   O11   S    
C30   O9    A    
Cr6   O11   S    
C32   O20   A    
C16   O16   A    
C18   C24   A    
C4    C12   S    
C21   H1    S    
C15   C17   A    
Cr4   O23   S    
C1    O13   A    
C6    C30   S    
Cr3   O15   S    
C24   C28   S    
C3    C5    A    
C33   O17   A    
H20   N1    S    
C6    C7    A    
Cr2   O14   S    
Cr3   O21   S    
Cr5   O7    S    
C3    N1    S    
C29   O6    A    
C26   O26   A    
C11   C13   A    
C27   C42   S    
C25   O25   A    
C38   H3    S    
C39   H10   S    
C1    C2    S    
Cr4   O6    S    
Cr1   O4    S    
C22   C24   A    
C23   C25   S    
C30   O8    A    
C10   C11   A    
Cr6   O10   S    
C26   C35   S    
H21   N1    S    
C20   C21   A    
C1    O4    A    
C14   H18   S    
C14   C15   A    
Cr1   O1    S    
C33   O21   A    
C21   C22   A    
C16   C41   S    
C38   N2    S    
C20   C31   S    
