data_mof_unit_13724.cif
_audit_creation_date              2012-12-10T17:53:22-0500
_audit_creation_method            fapswitch 2.2
_symmetry_space_group_name_H-M    P1
_symmetry_Int_Tables_number       1
_space_group_crystal_system       triclinic
_cell_length_a                    23.238363
_cell_length_b                    10.633824
_cell_length_c                    10.027707
_cell_angle_alpha                 90.168285
_cell_angle_beta                  90.623553
_cell_angle_gamma                 93.068365
_cell_volume                      2474.2589863

loop_
_atom_site_label
_atom_site_type_symbol
_atom_type_description
_atom_site_fract_x
_atom_site_fract_y
_atom_site_fract_z
_atom_type_partial_charge
C1    C     C_R   0.500892 0.261236 0.500242 0.865281
C2    C     C_R   0.124421 0.642415 0.413771 0.526959
C3    C     C_R   0.255219 0.671212 0.540900 0.248687
C4    C     C_R   0.389571 0.499372 0.499939 0.834862
C5    C     C_R   0.312945 0.642000 0.536943 -0.234041
C6    C     C_R   0.328423 0.520660 0.502208 -0.063721
C7    C     C_R   0.285605 0.423949 0.478738 0.152194
C8    C     C_R   0.228009 0.454161 0.480000 -0.149905
C9    C     C_R   0.212811 0.576250 0.511038 0.258406
C10   C     C_R   0.766494 0.433078 0.426606 -0.051721
C11   C     C_R   0.705410 0.422225 0.418696 -0.076728
C12   C     C_R   0.975766 0.487512 0.746917 -0.022297
C13   C     C_R   0.673303 0.500112 0.502309 -0.108212
C14   C     C_R   0.701559 0.588345 0.587024 -0.245086
C15   C     C_R   0.760720 0.604955 0.586915 -0.070570
C16   C     C_R   0.499881 0.738966 0.499575 0.822354
C17   C     C_R   0.793288 0.528765 0.507665 0.247418
C18   C     C_R   0.601285 0.140860 0.600197 -0.094618
C19   C     C_R   0.650851 0.080424 0.638667 0.214747
C20   C     C_R   0.651269 0.949507 0.628701 -0.105330
C21   C     C_R   0.602568 0.879871 0.582065 -0.188493
C22   C     C_R   0.552034 0.939801 0.544700 0.066229
C23   C     C_R   0.035658 0.506427 0.748433 -0.140363
C24   C     C_R   0.552065 0.071188 0.550275 0.069072
C25   C     C_R   0.503180 0.129167 0.501484 -0.100280
C26   C     C_R   0.455402 0.061484 0.449644 -0.217800
C27   C     C_R   0.454232 0.932222 0.444242 -0.028271
C28   C     C_R   0.610465 0.497726 0.500415 0.896000
C29   C     C_R   0.501961 0.872081 0.497030 -0.171945
C30   C     C_R   0.450615 0.290132 0.133237 0.271711
C31   C     C_R   0.455130 0.174355 0.068223 -0.205474
C32   C     C_R   0.455753 0.173323 0.929530 -0.247238
C33   C     C_R   0.451188 0.288013 0.862711 0.271595
C34   C     C_R   0.064940 0.555363 0.637859 -0.052352
C35   C     C_R   0.475311 0.397947 0.927274 0.060304
C36   C     C_R   0.475391 0.398264 0.070422 0.067528
C37   C     C_R   0.526429 0.595943 0.072094 0.157186
C38   C     C_R   0.525548 0.596003 0.929009 0.013519
C39   C     C_R   0.882023 0.604910 0.408234 0.492022
C40   C     C_R   0.883096 0.513112 0.625669 0.491584
C41   C     C_R   0.943649 0.525900 0.633205 -0.089463
C42   C     C_R   0.973267 0.581085 0.522376 -0.047198
C43   C     C_R   0.942578 0.621676 0.407992 -0.023172
C44   C     C_2   0.950018 0.419624 0.862963 0.467424
C45   C     C_R   0.034003 0.593758 0.525068 -0.017488
C46   C     C_2   0.676549 0.334273 0.319951 0.505503
C47   C     C_3   0.703743 0.154810 0.687245 -0.827477
C48   C     C_2   0.403224 0.862753 0.382225 0.356848
C49   C     C_3   0.558374 0.703228 0.145120 -0.782965
C50   C     C_3   0.394985 0.301459 0.205843 -0.810388
C51   C     C_3   0.396049 0.294665 0.782836 -0.781107
C52   C     C_2   0.554919 0.700289 0.857312 0.489064
C53   C     C_3   0.945328 0.722171 0.172485 -0.695207
C54   C     C_3   0.239124 0.801515 0.579265 -0.806483
C55   C     C_3   0.298496 0.287728 0.461789 -0.887999
C56   C     C_R   0.064146 0.641931 0.413736 -0.066440
C57   C     C_2   0.803293 0.342747 0.357819 0.384888
C58   C     C_R   0.033921 0.683623 0.302828 -0.128458
C59   C     C_R   0.973723 0.675237 0.297945 0.167205
C60   C     C_R   0.125142 0.559850 0.634552 0.513636
H1    H     H_    0.677704 0.648734 0.650091 0.206648
H2    H     H_    0.057484 0.721720 0.218059 0.196682
H3    H     H_    0.346105 0.713338 0.563528 0.139857
H4    H     H_    0.194319 0.381381 0.462018 0.154700
H5    H     H_    0.915912 0.347093 0.849274 0.127327
H6    H     H_    0.696558 0.318686 0.224495 0.106992
H7    H     H_    0.697035 0.257466 0.689481 0.248823
H8    H     H_    0.715043 0.124436 0.789636 0.243918
H9    H     H_    0.740276 0.138520 0.619985 0.265556
H10   H     H_    0.402322 0.761844 0.367719 0.100758
H11   H     H_    0.528216 0.777433 0.168668 0.231290
H12   H     H_    0.781700 0.676945 0.649941 0.156475
H13   H     H_    0.579804 0.670170 0.235806 0.278528
H14   H     H_    0.594155 0.747068 0.086298 0.222954
H15   H     H_    0.376519 0.393980 0.186667 0.250122
H16   H     H_    0.361681 0.229169 0.171469 0.226742
H17   H     H_    0.401594 0.286815 0.312619 0.244046
H18   H     H_    0.402527 0.273528 0.676505 0.237588
H19   H     H_    0.362725 0.223729 0.817993 0.211924
H20   H     H_    0.376703 0.386717 0.797708 0.250166
H21   H     H_    0.533380 0.786988 0.840544 0.049537
H22   H     H_    0.920106 0.643761 0.122160 0.289520
H23   H     H_    0.418552 0.109980 0.414449 0.171471
H24   H     H_    0.917237 0.800000 0.197126 0.257995
H25   H     H_    0.977255 0.760037 0.099194 0.207766
H26   H     H_    0.214662 0.843528 0.496429 0.263376
H27   H     H_    0.211962 0.796792 0.669700 0.241592
H28   H     H_    0.277814 0.864451 0.601031 0.239338
H29   H     H_    0.343822 0.270108 0.485925 0.207201
H30   H     H_    0.271627 0.228940 0.531101 0.255545
H31   H     H_    0.288164 0.256979 0.358046 0.261729
H32   H     H_    0.847734 0.369267 0.334770 0.102819
H33   H     H_    0.602096 0.242361 0.606820 0.157319
H34   H     H_    0.689512 0.901271 0.656269 0.155456
H35   H     H_    0.605184 0.779172 0.572826 0.159786
H36   H     H_    0.059829 0.475631 0.834376 0.221318
H37   H     H_    0.442690 0.087423 0.119019 0.181499
H38   H     H_    0.443962 0.085432 0.878725 0.165483
N1    N     N_R   0.854636 0.548177 0.513376 -0.353552
N2    N     N_R   0.153164 0.598711 0.521931 -0.347120
N3    N     N_R   0.499460 0.498800 0.142780 -0.111506
N4    N     N_R   0.499440 0.498720 0.857170 -0.148616
O1    O     O_R   0.500000 0.316780 0.614690 -0.632964
O2    O     O_R   0.583850 0.500050 0.614640 -0.585160
O3    O     O_R   0.583840 0.500030 0.385310 -0.595737
O4    O     O_2   0.849930 0.643743 0.305007 -0.564768
O5    O     O_2   0.968487 0.440913 0.975746 -0.579180
O6    O     O_2   0.631163 0.276485 0.344384 -0.581801
O7    O     O_2   0.361162 0.918029 0.345327 -0.568890
O8    O     O_2   0.604718 0.692110 0.823089 -0.601198
O9    O     O_2   0.785469 0.235298 0.331804 -0.572650
O10   O     O_2   0.852045 0.467810 0.729369 -0.580525
O11   O     O_2   0.155596 0.521820 0.741145 -0.548751
O12   O     O_2   0.154078 0.682590 0.305567 -0.542426
O13   O     O_R   0.500000 0.316750 0.385360 -0.577464
O14   O     O_R   0.416160 0.499970 0.614690 -0.618232
O15   O     O_R   0.416150 0.499950 0.385360 -0.619787
O16   O     O_R   0.500000 0.683250 0.614640 -0.624654
O17   O     O_R   0.500000 0.683220 0.385310 -0.633301
Zn1   Zn    Zn3+2 0.500000 0.500020 0.653130 0.962051
Zn2   Zn    Zn3+2 0.500000 0.499980 0.346870 0.962447

loop_
_geom_bond_atom_site_label_1
_geom_bond_atom_site_label_2
_ccdc_geom_bond_type
C27   C48   S    
C58   H2    S    
C39   O4    S    
C34   C60   A    
C26   H23   S    
O13   Zn2   S    
C57   H32   S    
C27   C29   A    
C11   C13   A    
C41   C42   A    
C19   C20   A    
C7    C55   S    
C35   N4    A    
C40   N1    A    
C53   C59   S    
C7    C8    A    
C40   O10   S    
C15   H12   S    
C12   C23   A    
C26   C27   A    
C12   C41   A    
C53   H24   S    
C18   C24   A    
C5    C6    A    
C22   C29   A    
C46   H6    S    
C55   H30   S    
C50   H16   S    
C54   H27   S    
C3    C54   S    
C19   C47   S    
C38   C52   S    
C10   C17   A    
C23   H36   S    
C5    H3    S    
C18   C19   A    
O15   Zn2   S    
C51   H20   S    
C47   H9    S    
C55   H31   S    
C37   N3    A    
C35   C36   A    
C45   C56   A    
C32   H38   S    
C8    C9    A    
C46   O6    D    
C13   C28   S    
C1    O1    A    
C43   C59   A    
C48   O7    D    
C30   C50   S    
C2    N2    A    
C13   C14   A    
C1    C25   S    
C60   O11   S    
C47   H7    S    
C51   H19   S    
O17   Zn2   S    
C10   C57   S    
C24   C25   A    
C4    C6    S    
C16   O17   A    
C54   H26   S    
C39   C43   A    
C21   H35   S    
C3    C5    A    
C16   C29   S    
C14   H1    S    
N3    Zn2   S    
O14   Zn1   S    
C53   H22   S    
C42   C45   A    
C37   C38   A    
C3    C9    A    
C16   O16   A    
C37   C49   S    
C28   O2    A    
C39   N1    A    
C31   C32   A    
C52   O8    D    
C28   O3    A    
C23   C34   A    
O3    Zn2   S    
C36   N3    A    
C34   C45   A    
C17   N1    S    
C8    H4    S    
C40   C41   A    
C9    N2    S    
C22   C24   A    
C4    O15   A    
C58   C59   A    
C42   C43   A    
C50   H17   S    
C47   H8    S    
N4    Zn1   S    
C44   O5    D    
C15   C17   A    
C20   H34   S    
C49   H14   S    
C4    O14   A    
C48   H10   S    
C60   N2    A    
C6    C7    A    
C33   C51   S    
C30   C36   A    
C32   C33   A    
C25   C26   A    
C51   H18   S    
C38   N4    A    
C2    C56   A    
C50   H15   S    
C54   H28   S    
C2    O12   S    
C30   C31   A    
C57   O9    D    
C44   H5    S    
C33   C35   A    
O1    Zn1   S    
C56   C58   A    
C49   H13   S    
C31   H37   S    
C52   H21   S    
O16   Zn1   S    
C10   C11   A    
C20   C21   A    
C55   H29   S    
C49   H11   S    
C18   H33   S    
C14   C15   A    
C12   C44   S    
C11   C46   S    
C53   H25   S    
C1    O13   A    
C21   C22   A    
O2    Zn1   S    
