data_mof_unit_51091.cif
_audit_creation_date              2012-12-11T15:31:34-0500
_audit_creation_method            fapswitch 2.2
_symmetry_space_group_name_H-M    P1
_symmetry_Int_Tables_number       1
_space_group_crystal_system       triclinic
_cell_length_a                    6.942363
_cell_length_b                    14.761816
_cell_length_c                    21.324718
_cell_angle_alpha                 74.876135
_cell_angle_beta                  90.504041
_cell_angle_gamma                 89.985368
_cell_volume                      2109.61497234

loop_
_atom_site_label
_atom_site_type_symbol
_atom_type_description
_atom_site_fract_x
_atom_site_fract_y
_atom_site_fract_z
_atom_type_partial_charge
O1    O     O_R   0.648150 0.130050 0.214300 -0.540533
O2    O     O_R   0.351850 0.869950 0.785700 -0.540531
O3    O     O_R   0.320490 0.006660 0.340150 -0.543962
O4    O     O_R   0.679510 0.993340 0.659850 -0.543962
O5    O     O_R   0.146100 0.869940 0.285700 -0.539645
O6    O     O_R   0.853900 0.130060 0.714300 -0.539644
C1    C     C_R   0.489510 0.001581 0.367162 0.674640
C2    C     C_R   0.510490 0.998419 0.632838 0.674641
O7    O     O_R   0.318690 0.137980 0.218120 -0.541756
O8    O     O_R   0.681310 0.862020 0.781880 -0.541757
O9    O     O_R   0.144280 0.002190 0.162800 -0.542950
O10   O     O_R   0.855720 0.997810 0.837200 -0.542947
C3    C     C_R   0.486644 0.175686 0.205810 0.693229
C4    C     C_R   0.513356 0.824314 0.794189 0.693228
O11   O     O_R   0.649960 0.997790 0.337200 -0.541895
O12   O     O_R   0.350040 0.002210 0.662800 -0.541893
O13   O     O_3   0.479300 0.955290 0.231990 -0.366034
O14   O     O_3   0.520700 0.044710 0.768010 -0.366034
V1    V     V_3+5 0.206040 0.008290 0.253340 1.414889
V2    V     V_3+5 0.793960 0.991710 0.746660 1.414889
O15   O     O_R   0.814320 0.993320 0.159850 -0.535358
O16   O     O_R   0.185680 0.006680 0.840150 -0.535361
C5    C     C_R   0.982592 0.998601 0.132923 0.705010
C6    C     C_R   0.017407 0.001398 0.867077 0.704995
O17   O     O_R   0.816120 0.862000 0.281880 -0.538812
O18   O     O_R   0.183880 0.138000 0.718120 -0.538812
C7    C     C_R   0.985465 0.824426 0.293952 0.696034
C8    C     C_R   0.014535 0.175575 0.706049 0.696027
V3    V     V_3+5 0.705540 0.991700 0.246660 1.431004
V4    V     V_3+5 0.294460 0.008300 0.753340 1.430996
O19   O     O_3   0.982150 0.044700 0.268010 -0.372495
O20   O     O_3   0.017850 0.955300 0.731990 -0.372493
C9    C     C_R   0.996358 0.723148 0.321825 -0.031934
C10   C     C_R   0.003644 0.276853 0.678176 -0.031932
C11   C     C_R   0.044021 0.567094 0.309280 -0.161631
C12   C     C_R   0.956082 0.432912 0.690727 -0.161636
C13   C     C_R   0.027491 0.663288 0.281988 -0.170146
C14   C     C_R   0.972597 0.336716 0.718017 -0.170158
C15   C     C_R   0.982066 0.687078 0.389078 -0.216784
C16   C     C_R   0.017876 0.312921 0.610922 -0.216771
C17   C     C_R   0.000110 0.589592 0.418339 0.084559
C18   C     C_R   0.999898 0.410411 0.581665 0.084560
C19   C     C_R   0.031472 0.529907 0.376822 0.142119
C20   C     C_R   0.968595 0.470098 0.623184 0.142116
C21   C     C_R   0.989439 0.549645 0.487059 0.060075
C22   C     C_R   0.010582 0.450359 0.512945 0.060074
C23   C     C_R   0.041432 0.394402 0.469270 -0.192638
C24   C     C_R   0.958639 0.605606 0.530737 -0.192631
C25   C     C_R   0.051325 0.433569 0.402792 -0.205446
C26   C     C_R   0.948772 0.566439 0.597216 -0.205445
H1    H     H_    0.075559 0.387717 0.371305 0.119401
H2    H     H_    0.924591 0.612295 0.628705 0.119399
H3    H     H_    0.040664 0.262493 0.583215 0.090553
H4    H     H_    0.959171 0.737502 0.416781 0.090564
H5    H     H_    0.960528 0.308907 0.770123 0.099102
H6    H     H_    0.039606 0.691098 0.229882 0.099101
H7    H     H_    0.067912 0.521627 0.277549 0.111942
H8    H     H_    0.932240 0.478381 0.722460 0.111953
H9    H     H_    0.059123 0.319439 0.484630 0.118587
H10   H     H_    0.941003 0.680573 0.515380 0.118580
C27   C     C_3   0.821349 0.985149 0.978588 -0.162882
C28   C     C_3   0.178648 0.014848 0.021413 -0.162887
C29   C     C_3   0.936528 0.918373 0.033784 0.352238
C30   C     C_3   0.063468 0.081624 0.966217 0.352268
H11   H     H_    0.675178 0.971569 0.961566 0.127951
H12   H     H_    0.324819 0.028429 0.038434 0.127957
C31   C     C_3   0.991997 0.999719 0.062435 -0.109340
C32   C     C_3   0.008002 0.000278 0.937566 -0.109337
C33   C     C_3   0.878626 0.068573 0.007097 -0.225436
C34   C     C_3   0.121372 0.931424 0.992904 -0.225459
H13   H     H_    0.781623 0.125706 0.012727 0.114718
H14   H     H_    0.218371 0.874288 0.987275 0.114716
C35   C     C_3   0.681378 0.994378 0.479794 -0.120348
C36   C     C_3   0.318622 0.005622 0.520206 -0.120348
C37   C     C_3   0.601876 0.073389 0.508069 -0.136321
C38   C     C_3   0.398124 0.926611 0.491931 -0.136323
H15   H     H_    0.685831 0.133990 0.515190 0.101428
H16   H     H_    0.314169 0.866010 0.484810 0.101429
H17   H     H_    0.831036 0.989799 0.462923 0.107188
H18   H     H_    0.168964 0.010201 0.537077 0.107188
C39   C     C_3   0.502138 0.999004 0.562235 -0.004848
C40   C     C_3   0.497862 0.000996 0.437765 -0.004847
C41   C     C_3   0.581720 0.920006 0.534767 -0.142498
C42   C     C_3   0.418280 0.079994 0.465233 -0.142497
H19   H     H_    0.648752 0.853919 0.563883 0.098143
H20   H     H_    0.351248 0.146081 0.436117 0.098141
C43   C     C_R   0.490029 0.277377 0.178486 -0.034744
C44   C     C_R   0.509970 0.722623 0.821511 -0.034743
C45   C     C_R   0.412444 0.432190 0.188755 -0.162750
C46   C     C_R   0.587519 0.567814 0.811244 -0.162764
C47   C     C_R   0.435440 0.336528 0.216712 -0.172944
C48   C     C_R   0.564553 0.663475 0.783288 -0.172951
C49   C     C_R   0.522949 0.314096 0.112060 -0.220133
C50   C     C_R   0.477034 0.685901 0.887935 -0.220143
C51   C     C_R   0.496425 0.411006 0.081933 0.085690
C52   C     C_R   0.503516 0.588992 0.918063 0.085694
C53   C     C_R   0.438918 0.469541 0.121807 0.141532
C54   C     C_R   0.561016 0.530460 0.878190 0.141532
C55   C     C_R   0.519312 0.451104 0.013631 0.061966
C56   C     C_R   0.480605 0.548894 0.986365 0.061967
C57   C     C_R   0.420792 0.603311 0.028296 -0.206756
C58   C     C_R   0.579095 0.396687 0.971700 -0.206765
C59   C     C_R   0.402839 0.564487 0.094567 -0.209289
C60   C     C_R   0.597057 0.435514 0.905431 -0.209302
H21   H     H_    0.357017 0.609227 0.124741 0.127656
H22   H     H_    0.642863 0.390775 0.875257 0.127673
H23   H     H_    0.440341 0.735807 0.914840 0.088326
H24   H     H_    0.559669 0.264187 0.085154 0.088312
H25   H     H_    0.593197 0.691781 0.732032 0.101598
H26   H     H_    0.406812 0.308225 0.267970 0.101595
H27   H     H_    0.368507 0.476750 0.219243 0.113013
H28   H     H_    0.631457 0.523257 0.780757 0.113030
H29   H     H_    0.385370 0.676696 0.011617 0.122102
H30   H     H_    0.614479 0.323302 0.988379 0.122116
N1    N     N_2   0.867915 0.828870 0.072551 -0.521026
H31   H     H_    0.955360 0.800723 0.112177 0.235761
C61   C     C_3   0.818097 0.761987 0.036224 -0.544181
H32   H     H_    0.760676 0.697341 0.069849 0.210641
H33   H     H_    0.947501 0.743105 0.011981 0.189527
H34   H     H_    0.705332 0.791443 0.999237 0.194917
N2    N     N_2   0.132089 0.171126 0.927453 -0.521061
H35   H     H_    0.044719 0.199265 0.887809 0.235774
C62   C     C_3   0.181812 0.238011 0.963781 -0.544243
H36   H     H_    0.239212 0.302660 0.930155 0.210658
H37   H     H_    0.294559 0.208573 0.000779 0.194940
H38   H     H_    0.052374 0.256872 0.988015 0.189543

loop_
_geom_bond_atom_site_label_1
_geom_bond_atom_site_label_2
_ccdc_geom_bond_type
C43   C47   A    
C57   H29   S    
C46   H28   S    
O4    C2    A    
V1    O19   S    
C60   H22   S    
C62   H36   S    
C15   C17   A    
C21   C22   A    
C7    C9    S    
O9    V1    S    
C48   H25   S    
C9    C15   A    
C36   C38   S    
C28   C31   S    
C10   C16   A    
C30   C32   S    
C47   H26   S    
C11   C13   A    
C42   H20   S    
C12   H8    S    
C61   H33   S    
C49   H24   S    
C51   C55   A    
C37   C42   S    
C62   H37   S    
C15   H4    S    
C27   C33   S    
C30   N2    S    
C52   C56   A    
O13   V3    S    
C28   C34   S    
C27   C29   S    
C18   C22   A    
C5    C31   S    
C33   H13   S    
O7    C3    A    
C28   C30   S    
O5    C7    A    
C13   H6    S    
O7    V1    S    
O6    C8    A    
C14   H5    S    
C44   C48   A    
O8    V2    S    
N1    C61   S    
C52   C54   A    
C26   H2    S    
O3    V1    S    
O14   V4    S    
C45   C47   A    
C11   C19   A    
C24   H10   S    
C29   N1    S    
C2    O12   A    
C24   C26   A    
C8    C10   S    
C49   C51   A    
C36   H18   S    
C17   C19   A    
C3    C43   S    
C18   C20   A    
C38   C41   S    
C39   C41   S    
O11   V3    S    
C44   C50   A    
O17   V3    S    
C29   C31   S    
C50   H23   S    
C28   H12   S    
C2    C39   S    
C23   C25   A    
O8    C4    A    
C61   H34   S    
C38   C40   S    
C37   C39   S    
C62   H38   S    
C1    O11   A    
C25   H1    S    
O15   V3    S    
C9    C13   A    
C45   C53   A    
C31   C33   S    
C58   C60   A    
C58   H30   S    
C46   C48   A    
C55   C56   A    
C29   C34   S    
O10   V2    S    
O1    V3    S    
C35   H17   S    
C59   H21   S    
C30   C33   S    
C50   C52   A    
C37   H15   S    
N2    H35   S    
C53   C59   A    
C41   H19   S    
O18   V4    S    
C40   C42   S    
O15   C5    A    
O16   C6    A    
C12   C20   A    
O1    C3    A    
C1    C40   S    
C35   C37   S    
C36   C39   S    
C35   C40   S    
V2    O20   S    
C21   C24   A    
C20   C26   A    
C36   C42   S    
O10   C6    A    
C22   C23   A    
O16   V4    S    
C10   C14   A    
O18   C8    A    
C19   C25   A    
C38   H16   S    
C16   C18   A    
C51   C53   A    
O5    V1    S    
O17   C7    A    
O6    V2    S    
C45   H27   S    
O3    C1    A    
C57   C59   A    
O2    V4    S    
C11   H7    S    
C12   C14   A    
C4    C44   S    
V3    O19   S    
C61   H32   S    
V4    O20   S    
C27   C32   S    
C54   C60   A    
C43   C49   A    
O9    C5    A    
C56   C57   A    
O13   V1    S    
C46   C54   A    
O14   V2    S    
O2    C4    A    
N2    C62   S    
C6    C32   S    
C23   H9    S    
O4    V2    S    
C27   H11   S    
C55   C58   A    
C32   C34   S    
C16   H3    S    
C17   C21   A    
C34   H14   S    
O12   V4    S    
C35   C41   S    
N1    H31   S    
