data_mof_unit_8062.cif
_audit_creation_date              2012-12-10T19:04:45-0500
_audit_creation_method            fapswitch 2.2
_symmetry_space_group_name_H-M    P1
_symmetry_Int_Tables_number       1
_space_group_crystal_system       triclinic
_cell_length_a                    15.849968
_cell_length_b                    10.90142
_cell_length_c                    9.576685
_cell_angle_alpha                 90.612016
_cell_angle_beta                  89.941016
_cell_angle_gamma                 90.126976
_cell_volume                      1654.62888527

loop_
_atom_site_label
_atom_site_type_symbol
_atom_type_description
_atom_site_fract_x
_atom_site_fract_y
_atom_site_fract_z
_atom_type_partial_charge
C1    C     C_R   0.503245 0.262407 0.500474 0.782026
C2    C     C_3   0.082604 0.500544 0.499963 0.193535
C3    C     C_3   0.972007 0.601596 0.566778 -0.161445
C4    C     C_3   0.917294 0.500701 0.499779 0.190111
C5    C     C_3   0.028273 0.601066 0.434464 -0.163182
C6    C     C_3   0.972006 0.500173 0.367464 -0.148042
C7    C     C_1   0.174386 0.500360 0.500093 -0.082128
C8    C     C_1   0.825539 0.500632 0.499757 -0.065276
C9    C     C_R   0.496041 0.064081 0.628390 0.032343
C10   C     C_R   0.513379 0.129411 0.505118 -0.129446
C11   C     C_R   0.541072 0.063473 0.386545 -0.202722
C12   C     C_R   0.339866 0.499981 0.500037 0.821664
C13   C     C_R   0.539525 0.934869 0.385819 -0.224830
C14   C     C_R   0.505486 0.871498 0.499963 -0.077800
C15   C     C_R   0.484383 0.938514 0.618935 0.103193
C16   C     C_3   0.402388 0.944298 0.694915 -0.494641
C17   C     C_3   0.423086 0.077771 0.728980 0.278904
C18   C     C_R   0.573329 0.516718 0.074133 0.231102
C19   C     C_R   0.429291 0.471196 0.073897 -0.119693
C20   C     C_R   0.429242 0.471463 0.925644 -0.126486
C21   C     C_R   0.572453 0.522240 0.927115 0.152133
C22   C     C_3   0.622811 0.638554 0.929405 0.205849
C23   C     C_R   0.500039 0.737842 0.500131 0.801390
C24   C     C_3   0.631331 0.623077 0.088628 0.031964
C25   C     C_R   0.660118 0.500183 0.499964 0.831422
C26   C     C_3   0.971619 0.400190 0.565271 -0.159984
C27   C     C_3   0.027874 0.399655 0.432959 -0.162347
C28   C     C_1   0.250036 0.500172 0.500135 -0.193021
C29   C     C_1   0.749909 0.500451 0.499826 -0.149049
C30   C     C_3   0.027874 0.501079 0.632271 -0.156395
Cu1   Cu    Cu3+1 0.500000 0.499980 0.640670 0.955402
Cu2   Cu    Cu3+1 0.500000 0.500020 0.359330 0.943094
H1    H     H_    0.052164 0.316761 0.378041 0.128239
H2    H     H_    0.400025 0.882044 0.785083 0.226972
H3    H     H_    0.373202 0.143699 0.698031 0.089731
H4    H     H_    0.371615 0.448749 0.128111 0.160972
H5    H     H_    0.371713 0.448257 0.871027 0.152147
H6    H     H_    0.683304 0.628007 0.871695 0.126475
H7    H     H_    0.607830 0.693542 0.162800 0.131083
H8    H     H_    0.946984 0.317754 0.618973 0.129552
H9    H     H_    0.947661 0.499827 0.258800 0.140331
H10   H     H_    0.052892 0.683513 0.380769 0.127969
H11   H     H_    0.947690 0.684473 0.621698 0.128505
H12   H     H_    0.052156 0.501451 0.740967 0.128124
H13   H     H_    0.561230 0.110881 0.293388 0.158470
H14   H     H_    0.561593 0.885601 0.294318 0.153623
H15   H     H_    0.347694 0.934182 0.622908 0.144553
N1    N     N_R   0.500530 0.500930 0.147930 -0.219491
N2    N     N_R   0.500530 0.500890 0.852020 -0.170117
O1    O     O_R   0.500000 0.319640 0.618810 -0.612498
O2    O     O_R   0.500010 0.319680 0.381230 -0.574911
O3    O     O_R   0.379070 0.499970 0.618770 -0.589162
O4    O     O_R   0.379080 0.500010 0.381190 -0.583999
O5    O     O_R   0.499990 0.680320 0.618770 -0.515497
O6    O     O_R   0.500000 0.680360 0.381190 -0.611223
O7    O     O_R   0.620920 0.499990 0.618810 -0.590661
O8    O     O_R   0.620930 0.500030 0.381230 -0.537609
O9    O     O_3   0.445098 0.083954 0.873142 -0.623623
C31   C     C_3   0.500508 0.180461 0.910345 0.066910
H16   H     H_    0.480896 0.215291 0.014802 0.160446
H17   H     H_    0.495782 0.258649 0.840915 0.194336
C32   C     C_3   0.591762 0.134632 0.922637 -0.398852
H18   H     H_    0.596543 0.073326 0.014008 0.198071
H19   H     H_    0.610424 0.082394 0.827581 0.229694
C33   C     C_3   0.654397 0.239220 0.943650 -0.871913
H20   H     H_    0.651681 0.303196 0.854352 0.262161
H21   H     H_    0.719287 0.201508 0.949784 0.250835
H22   H     H_    0.640716 0.288642 0.042895 0.262812
O10   O     O_3   0.572332 0.733829 0.872802 -0.579557
C34   C     C_3   0.543802 0.824952 0.967270 0.037276
H23   H     H_    0.531195 0.905108 0.902716 0.234792
H24   H     H_    0.593175 0.855936 0.041813 0.082962
C35   C     C_3   0.460114 0.788278 0.038247 -0.371237
H25   H     H_    0.419118 0.738059 0.962933 0.232204
H26   H     H_    0.472683 0.726211 0.125300 0.231832
C36   C     C_3   0.411462 0.897694 0.098692 -0.833926
H27   H     H_    0.454660 0.972724 0.131634 0.268370
H28   H     H_    0.374262 0.868388 0.190945 0.240296
H29   H     H_    0.366247 0.933204 0.020840 0.279445
O11   O     O_3   0.712138 0.582717 0.125090 -0.730123
H30   H     H_    0.747910 0.657459 0.129410 0.317570

loop_
_geom_bond_atom_site_label_1
_geom_bond_atom_site_label_2
_ccdc_geom_bond_type
C5    H10   S    
C18   C21   A    
C35   H26   S    
C35   H25   S    
C19   C20   A    
C36   H29   S    
Cu1   O3    S    
C4    C8    S    
C21   N2    A    
C27   H1    S    
C3    H11   S    
C26   C27   S    
C20   N2    A    
C12   C28   S    
C18   C24   S    
C8    C29   T    
C36   H28   S    
C19   H4    S    
C5    C6    S    
C15   C16   S    
C22   H6    S    
C24   H7    S    
C32   H19   S    
C2    C7    S    
C16   H2    S    
C24   O11   S    
Cu1   Cu2   S    
C16   C17   S    
C33   H21   S    
C6    H9    S    
C25   O7    A    
C34   H23   S    
Cu1   O7    S    
C9    C10   A    
C22   O10   S    
C12   O4    A    
C17   O9    S    
C31   H16   S    
C13   C14   A    
Cu2   N1    S    
C30   H12   S    
C25   O8    A    
Cu2   O8    S    
Cu1   N2    S    
C16   H15   S    
C12   O3    A    
C25   C29   S    
C31   H17   S    
C36   H27   S    
C4    C6    S    
C19   N1    A    
O9    C31   S    
C7    C28   T    
C14   C23   S    
C3    C30   S    
Cu2   O2    S    
C32   H18   S    
C6    C27   S    
C33   H22   S    
C34   C35   S    
C1    O2    A    
C2    C27   S    
C9    C17   S    
C26   C30   S    
C35   C36   S    
C22   C24   S    
C11   H13   S    
C2    C5    S    
Cu1   O1    S    
C3    C4    S    
Cu2   O4    S    
C23   O5    A    
C1    O1    A    
C31   C32   S    
Cu2   O6    S    
C32   C33   S    
C1    C10   S    
O11   H30   S    
C3    C5    S    
C18   N1    A    
C4    C26   S    
C23   O6    A    
C2    C30   S    
C9    C15   A    
C20   H5    S    
C11   C13   A    
C26   H8    S    
C13   H14   S    
Cu1   O5    S    
O10   C34   S    
C10   C11   A    
C33   H20   S    
C14   C15   A    
C34   H24   S    
C17   H3    S    
C21   C22   S    
