data_mof_unit_13429.cif
_audit_creation_date              2012-12-10T18:18:21-0500
_audit_creation_method            fapswitch 2.2
_symmetry_space_group_name_H-M    P1
_symmetry_Int_Tables_number       1
_space_group_crystal_system       triclinic
_cell_length_a                    14.010917
_cell_length_b                    15.014466
_cell_length_c                    15.500686
_cell_angle_alpha                 89.957979
_cell_angle_beta                  68.066865
_cell_angle_gamma                 90.021932
_cell_volume                      3024.805351

loop_
_atom_site_label
_atom_site_type_symbol
_atom_type_description
_atom_site_fract_x
_atom_site_fract_y
_atom_site_fract_z
_atom_type_partial_charge
C1    C     C_R   0.500048 0.673544 0.499872 0.900808
C2    C     C_R   0.499950 0.326452 0.500132 0.901418
C3    C     C_R   0.380642 0.577029 0.100654 -0.227991
C4    C     C_R   0.625701 0.561249 0.895399 -0.232498
C5    C     C_R   0.308080 0.577871 0.059229 -0.236834
C6    C     C_R   0.698255 0.559323 0.936739 -0.238827
C7    C     C_R   0.583820 0.184810 0.506888 -0.258641
C8    C     C_R   0.416184 0.815169 0.493102 -0.257985
C9    C     C_R   0.499866 0.230568 0.500288 -0.080970
C10   C     C_R   0.500127 0.769417 0.499725 -0.078681
C11   C     C_R   0.415876 0.184766 0.493756 -0.258391
C12   C     C_R   0.584102 0.815214 0.506288 -0.257668
C13   C     C_R   0.415315 0.092633 0.493562 0.117794
C14   C     C_R   0.584666 0.907344 0.506475 0.117799
C15   C     C_R   0.499946 0.046326 0.500111 0.061563
C16   C     C_R   0.500040 0.953651 0.499914 0.061462
C17   C     C_R   0.584490 0.092678 0.506846 0.118373
C18   C     C_R   0.415504 0.907299 0.493163 0.118349
C19   C     C_R   0.331704 0.046212 0.486846 -0.217255
C20   C     C_R   0.668278 0.953763 0.513189 -0.217244
C21   C     C_R   0.331806 0.953674 0.486630 -0.217612
C22   C     C_R   0.668187 0.046301 0.513381 -0.217616
C23   C     C_R   0.436119 0.501359 0.676210 0.875003
C24   C     C_R   0.563878 0.502004 0.323847 0.877854
C25   C     C_R   0.174463 0.452666 0.566282 -0.072844
C26   C     C_R   0.825528 0.547345 0.433688 -0.071562
C27   C     C_R   0.229184 0.547410 0.433766 -0.061476
C28   C     C_R   0.770824 0.452709 0.566282 -0.066537
C29   C     C_R   0.129295 0.548364 0.431989 0.016026
C30   C     C_R   0.870719 0.451789 0.568025 0.012848
C31   C     C_R   0.050610 0.500051 0.499994 0.085830
C32   C     C_R   0.949397 0.500093 0.500006 0.086292
C33   C     C_R   0.073082 0.451710 0.568005 0.017680
C34   C     C_R   0.926922 0.548386 0.431972 0.019132
C35   C     C_R   0.106312 0.596256 0.364197 -0.213118
C36   C     C_R   0.893711 0.403887 0.635791 -0.213691
C37   C     C_R   0.006000 0.596270 0.364197 -0.210041
C38   C     C_R   0.994020 0.403825 0.635762 -0.210911
C39   C     C_R   0.397866 0.515402 0.776686 -0.062488
C40   C     C_R   0.602578 0.515976 0.223346 -0.061113
C41   C     C_R   0.263953 0.552832 0.923953 -0.201789
C42   C     C_R   0.739766 0.537471 0.073732 -0.202887
C43   C     C_R   0.293981 0.531790 0.829754 -0.198430
C44   C     C_R   0.707801 0.521420 0.169078 -0.200044
C45   C     C_R   0.470677 0.520832 0.817913 -0.259180
C46   C     C_R   0.530288 0.529495 0.182559 -0.263826
C47   C     C_R   0.443642 0.547595 0.909892 0.093168
C48   C     C_R   0.560172 0.549134 0.088372 0.092856
C49   C     C_R   0.338032 0.559941 0.964627 0.177405
C50   C     C_R   0.666633 0.549397 0.032695 0.177258
C51   C     C_R   0.518947 0.556945 0.949755 0.067480
C52   C     C_R   0.486182 0.561544 0.047426 0.070793
H1    H     H_    0.193430 0.415831 0.617806 0.129292
H2    H     H_    0.806549 0.584125 0.382136 0.128352
H3    H     H_    0.290520 0.584581 0.382382 0.127357
H4    H     H_    0.709483 0.415597 0.617720 0.131961
H5    H     H_    0.165870 0.633675 0.311189 0.135695
H6    H     H_    0.834150 0.366465 0.688785 0.142872
H7    H     H_    0.990297 0.633717 0.311207 0.138269
H8    H     H_    0.009743 0.366327 0.688711 0.141202
H9    H     H_    0.449984 0.520971 0.224806 0.158988
H10   H     H_    0.548933 0.502006 0.777466 0.155401
H11   H     H_    0.764881 0.512420 0.199960 0.153285
H12   H     H_    0.236560 0.528679 0.798602 0.154418
H13   H     H_    0.183149 0.563633 0.964899 0.133411
H14   H     H_    0.821371 0.539150 0.031904 0.133413
H15   H     H_    0.352533 0.590995 0.174256 0.137433
H16   H     H_    0.655083 0.568243 0.820675 0.152293
H17   H     H_    0.648599 0.220702 0.512211 0.162750
H18   H     H_    0.351418 0.779276 0.487752 0.162281
H19   H     H_    0.351050 0.220623 0.488536 0.164503
H20   H     H_    0.648917 0.779355 0.511529 0.163922
H21   H     H_    0.266488 0.081426 0.481770 0.147604
H22   H     H_    0.733490 0.918548 0.518271 0.147265
H23   H     H_    0.266663 0.918423 0.481405 0.146825
H24   H     H_    0.733337 0.081551 0.518595 0.147072
N1    N     N_R   0.249980 0.499930 0.499960 -0.098972
N2    N     N_R   0.750020 0.500070 0.500040 -0.099079
O1    O     O_R   0.419720 0.632140 0.499980 -0.623425
O2    O     O_R   0.580280 0.367860 0.500020 -0.621873
O3    O     O_R   0.580270 0.632160 0.499970 -0.622350
O4    O     O_R   0.419730 0.367840 0.500030 -0.620952
O5    O     O_R   0.373870 0.499980 0.632250 -0.619146
O6    O     O_R   0.626130 0.500020 0.367750 -0.618710
O7    O     O_R   0.534420 0.500000 0.632240 -0.624027
O8    O     O_R   0.465580 0.500000 0.367760 -0.623352
Zn1   Zn    Zn3+2 0.392800 0.499980 0.500010 0.942291
Zn2   Zn    Zn3+2 0.607200 0.500020 0.499990 0.941767
H25   H     H_    0.227915 0.589440 0.102003 0.144156
H26   H     H_    0.779332 0.561779 0.893109 0.148770

loop_
_geom_bond_atom_site_label_1
_geom_bond_atom_site_label_2
_ccdc_geom_bond_type
O5    Zn1   S    
C27   C29   A    
C34   C37   A    
C22   H24   S    
O1    Zn1   S    
C28   H4    S    
C47   C49   A    
C40   C46   A    
C26   N2    A    
C23   O5    A    
C25   N1    A    
C19   C21   A    
C25   H1    S    
C36   H6    S    
C11   H19   S    
C1    O3    A    
O4    Zn1   S    
C18   C21   A    
C45   H10   S    
C7    C9    A    
C26   C34   A    
C7    C17   A    
C31   C33   A    
C28   N2    A    
C39   C45   A    
C48   C50   A    
C12   H20   S    
C41   C43   A    
C5    C49   A    
C42   C44   A    
C26   H2    S    
C41   C49   A    
C43   H12   S    
C45   C47   A    
C44   H11   S    
C39   C43   A    
C46   C48   A    
C13   C19   A    
C46   H9    S    
C51   C52   A    
C14   C20   A    
C19   H21   S    
C4    C6    A    
C4    H16   S    
O8    Zn1   S    
C41   H13   S    
C4    C51   A    
C27   N1    A    
C6    H26   S    
C8    C18   A    
C32   C34   A    
C31   C32   A    
C40   C44   A    
C29   C31   A    
C20   H22   S    
C6    C50   A    
C9    C11   A    
C37   H7    S    
C10   C12   A    
C42   C50   A    
C38   H8    S    
C8    C10   A    
C12   C14   A    
C13   C15   A    
C1    O1    A    
C14   C16   A    
C2    O4    A    
O7    Zn2   S    
N2    Zn2   S    
C15   C17   A    
C29   C35   A    
C35   C37   A    
C3    H15   S    
C1    C10   S    
O6    Zn2   S    
C20   C22   A    
C3    C5    A    
C7    H17   S    
C47   C51   A    
C3    C52   A    
C21   H23   S    
C8    H18   S    
C17   C22   A    
C30   C36   A    
C35   H5    S    
C36   C38   A    
C24   O6    A    
O2    Zn2   S    
C30   C32   A    
C11   C13   A    
C23   C39   S    
C28   C30   A    
C24   C40   S    
C27   H3    S    
O3    Zn2   S    
C2    O2    A    
C48   C52   A    
N1    Zn1   S    
C16   C18   A    
C23   O7    A    
C42   H14   S    
C33   C38   A    
C2    C9    S    
C24   O8    A    
C5    H25   S    
C15   C16   A    
C25   C33   A    
