data_mof_unit_57101.cif
_audit_creation_date              2012-12-10T18:00:47-0500
_audit_creation_method            fapswitch 2.2
_symmetry_space_group_name_H-M    P1
_symmetry_Int_Tables_number       1
_space_group_crystal_system       triclinic
_cell_length_a                    15.919521
_cell_length_b                    10.79512
_cell_length_c                    9.525691
_cell_angle_alpha                 89.914252
_cell_angle_beta                  90.040262
_cell_angle_gamma                 90.201661
_cell_volume                      1637.00753358

loop_
_atom_site_label
_atom_site_type_symbol
_atom_type_description
_atom_site_fract_x
_atom_site_fract_y
_atom_site_fract_z
_atom_type_partial_charge
C1    C     C_R   0.502445 0.262355 0.500095 0.797141
C2    C     C_R   0.497548 0.737645 0.499905 0.797135
C3    C     C_R   0.546655 0.933273 0.402002 -0.204532
C4    C     C_R   0.453328 0.066728 0.597993 -0.204523
C5    C     C_R   0.495513 0.871511 0.499057 -0.215273
C6    C     C_R   0.504472 0.128488 0.500944 -0.215277
C7    C     C_R   0.446559 0.424735 0.074413 0.016727
C8    C     C_R   0.553441 0.575265 0.925587 0.016717
C9    C     C_R   0.446581 0.424761 0.925637 0.004681
C10   C     C_R   0.553419 0.575239 0.074363 0.004685
C11   C     C_R   0.339969 0.499889 0.499938 0.805482
C12   C     C_R   0.660031 0.500111 0.500062 0.805493
C13   C     C_3   0.971839 0.421822 0.598205 0.285515
C14   C     C_3   0.028160 0.578178 0.401795 0.285516
C15   C     C_3   0.027112 0.385695 0.472233 0.063543
C16   C     C_3   0.972888 0.614305 0.527767 0.063544
C17   C     C_1   0.250672 0.499737 0.499870 -0.153885
C18   C     C_1   0.749328 0.500263 0.500130 -0.153892
C19   C     C_3   0.028134 0.535475 0.625907 0.305053
C20   C     C_3   0.971866 0.464525 0.374093 0.305053
C21   C     C_3   0.084188 0.499386 0.499890 -0.072803
C22   C     C_3   0.915812 0.500614 0.500110 -0.072803
C23   C     C_1   0.175448 0.499578 0.499860 0.112728
C24   C     C_1   0.824552 0.500421 0.500140 0.112728
C25   C     C_R   0.553102 0.061286 0.403283 0.422661
C26   C     C_R   0.446885 0.938713 0.596720 0.422674
Cu1   Cu    Cu3+1 0.500000 0.500020 0.640660 0.973783
Cu2   Cu    Cu3+1 0.500000 0.499980 0.359340 0.973799
H1    H     H_    0.584696 0.881402 0.328371 0.177727
H2    H     H_    0.415286 0.118601 0.671620 0.177724
H3    H     H_    0.403800 0.364312 0.130448 0.131843
H4    H     H_    0.596200 0.635688 0.869552 0.131845
H5    H     H_    0.403849 0.364338 0.869636 0.126127
H6    H     H_    0.596150 0.635662 0.130364 0.126126
N1    N     N_R   0.500020 0.500030 0.852070 -0.166899
N2    N     N_R   0.499980 0.499970 0.147930 -0.166897
O1    O     O_R   0.500000 0.319660 0.618740 -0.579421
O2    O     O_R   0.500000 0.680340 0.381260 -0.579416
O3    O     O_R   0.499990 0.319630 0.381170 -0.569995
O4    O     O_R   0.500010 0.680370 0.618830 -0.570031
O5    O     O_R   0.379080 0.500000 0.618760 -0.578821
O6    O     O_R   0.620920 0.500000 0.381240 -0.578808
O7    O     O_R   0.379080 0.499970 0.381190 -0.570708
O8    O     O_R   0.620920 0.500030 0.618810 -0.570704
N3    N     N_2   0.058556 0.262763 0.443018 -0.414178
H7    H     H_    0.103703 0.234680 0.513746 0.254242
C27   C     C_3   0.995025 0.169382 0.417949 -0.587790
H8    H     H_    0.025737 0.081271 0.387472 0.211668
H9    H     H_    0.952816 0.197955 0.331084 0.268153
H10   H     H_    0.957488 0.153030 0.514468 0.238006
N4    N     N_2   0.941444 0.737237 0.556982 -0.414178
H11   H     H_    0.896296 0.765320 0.486254 0.254241
C28   C     C_3   0.004975 0.830618 0.582051 -0.587787
H12   H     H_    0.974263 0.918728 0.612528 0.211668
H13   H     H_    0.042512 0.846970 0.485531 0.238007
H14   H     H_    0.047184 0.802044 0.668915 0.268155
O9    O     O_3   0.941476 0.341078 0.701344 -0.696534
H15   H     H_    0.992118 0.304900 0.745712 0.337596
O10   O     O_3   0.058524 0.658922 0.298656 -0.696533
H16   H     H_    0.007882 0.695100 0.254288 0.337596
O11   O     O_3   0.941558 0.429069 0.242327 -0.699263
H17   H     H_    0.992225 0.412803 0.184920 0.353543
O12   O     O_3   0.058442 0.570930 0.757673 -0.699264
H18   H     H_    0.007775 0.587197 0.815080 0.353544
O13   O     O_3   0.609005 0.115698 0.310918 -0.707557
H19   H     H_    0.626539 0.197310 0.348170 0.331426
O14   O     O_3   0.390989 0.884305 0.689103 -0.707577
H20   H     H_    0.373482 0.802662 0.651906 0.331453

loop_
_geom_bond_atom_site_label_1
_geom_bond_atom_site_label_2
_ccdc_geom_bond_type
C4    C26   A    
C2    C5    S    
C11   O7    A    
C2    O4    A    
C7    N2    A    
Cu1   O5    S    
Cu2   O7    S    
C27   H8    S    
Cu2   O3    S    
C16   N4    S    
C1    O1    A    
Cu1   O4    S    
C3    C5    A    
C7    C9    A    
C28   H13   S    
O10   H16   S    
C27   H9    S    
N3    H7    S    
C9    H5    S    
C14   O10   S    
C10   H6    S    
O9    H15   S    
C17   C23   T    
C15   C21   S    
C19   O12   S    
Cu1   O1    S    
C16   C19   S    
C18   C24   T    
C26   O14   S    
C14   C21   S    
C4    C6    A    
O14   H20   S    
C19   C21   S    
C7    H3    S    
C20   C22   S    
C13   C22   S    
C11   O5    A    
C27   H10   S    
C14   C16   S    
C13   C15   S    
C21   C23   S    
O11   H17   S    
C22   C24   S    
C28   H14   S    
C6    C25   A    
C13   O9    S    
C13   C19   S    
O12   H18   S    
C12   O6    A    
C5    C26   A    
C8    H4    S    
C14   C20   S    
C3    C25   A    
C25   O13   S    
Cu2   O6    S    
Cu2   N2    S    
C12   O8    A    
O13   H19   S    
N3    C27   S    
C12   C18   S    
Cu1   Cu2   S    
C3    H1    S    
C2    O2    A    
C11   C17   S    
C9    N1    A    
C16   C22   S    
C20   O11   S    
C10   N2    A    
Cu1   N1    S    
Cu2   O2    S    
C28   H12   S    
Cu1   O8    S    
C8    N1    A    
C8    C10   A    
C4    H2    S    
N4    H11   S    
C1    O3    A    
C15   C20   S    
N4    C28   S    
C15   N3    S    
C1    C6    S    
