data_mof_unit_53537.cif
_audit_creation_date              2012-12-11T15:21:51-0500
_audit_creation_method            fapswitch 2.2
_symmetry_space_group_name_H-M    P1
_symmetry_Int_Tables_number       1
_space_group_crystal_system       triclinic
_cell_length_a                    8.246633
_cell_length_b                    12.876898
_cell_length_c                    19.143104
_cell_angle_alpha                 94.678381
_cell_angle_beta                  93.413326
_cell_angle_gamma                 97.287243
_cell_volume                      2004.66102148

loop_
_atom_site_label
_atom_site_type_symbol
_atom_type_description
_atom_site_fract_x
_atom_site_fract_y
_atom_site_fract_z
_atom_type_partial_charge
Ba1   Ba    Ba6+2 0.160910 0.552960 0.466220 1.640982
Ba2   Ba    Ba6+2 0.649260 0.447030 0.533730 1.638832
C1    C     C_3   0.426795 0.843529 0.209660 0.290970
C2    C     C_R   0.734594 0.817012 0.475177 -0.271788
C3    C     C_R   0.702355 0.994544 0.447512 -0.105728
C4    C     C_3   0.936099 0.833993 0.313109 0.324311
C5    C     C_R   0.640269 0.887240 0.446385 -0.002759
C6    C     C_R   0.888218 0.850456 0.509351 0.071552
C7    C     C_R   0.951356 0.961937 0.513563 -0.066005
C8    C     C_R   0.857706 0.035228 0.481027 -0.064749
C9    C     C_R   0.918679 0.147151 0.487704 0.046820
C10   C     C_R   0.162517 0.111827 0.552939 0.002640
C11   C     C_R   0.103412 0.003664 0.550054 -0.083536
C12   C     C_3   0.421542 0.795908 0.279735 0.450901
C13   C     C_R   0.617289 0.536944 0.298410 -0.274024
C14   C     C_R   0.459872 0.488507 0.277092 0.081763
C15   C     C_R   0.404423 0.483205 0.205612 -0.124053
C16   C     C_3   0.921859 0.940998 0.287210 -0.343647
C17   C     C_R   0.510041 0.520131 0.154632 -0.005267
C18   C     C_R   0.673624 0.560645 0.177569 -0.130487
C19   C     C_R   0.725313 0.571282 0.249291 -0.003305
C20   C     C_R   0.500124 0.591344 0.032603 0.157849
C21   C     C_R   0.440279 0.579708 0.961540 -0.076709
C22   C     C_R   0.334186 0.489573 0.932903 0.035843
C23   C     C_3   0.529589 0.762807 0.634597 0.235202
C24   C     C_R   0.284642 0.413083 0.978250 -0.083395
C25   C     C_R   0.340787 0.424375 0.049181 -0.112116
C26   C     C_R   0.450722 0.512456 0.077923 0.076266
C27   C     C_R   0.133251 0.411336 0.829381 -0.049957
C28   C     C_3   0.782408 0.302485 0.315145 0.421483
C29   C     C_R   0.096559 0.387158 0.756429 0.032482
C30   C     C_R   0.350279 0.493173 0.734125 0.095699
C31   C     C_R   0.388988 0.514746 0.806349 -0.122373
C32   C     C_R   0.284727 0.471340 0.855511 -0.003856
C33   C     C_R   0.216762 0.418096 0.710299 -0.245805
C34   C     C_3   0.522191 0.879374 0.648218 -0.362267
C35   C     C_3   0.798329 0.261343 0.239084 0.356033
C36   C     C_3   0.089347 0.748100 0.695692 0.615177
C37   C     C_3   0.061617 0.802523 0.767948 0.302352
C38   C     C_3   0.280600 0.221666 0.370094 0.367620
C39   C     C_3   0.304271 0.111078 0.342303 -0.077754
C40   C     C_3   0.038821 0.239402 0.185208 0.202440
C41   C     C_3   0.017195 0.574861 0.655250 0.241704
C42   C     C_3   0.325032 0.811102 0.822840 0.134636
C43   C     C_3   0.263819 0.865343 0.111606 0.205417
C44   C     C_3   0.187254 0.102564 0.878910 0.164028
C45   C     C_3   0.871221 0.138061 0.688057 0.523378
C46   C     C_3   0.906940 0.038721 0.721530 -0.347655
C47   C     C_3   0.373459 0.194016 0.721386 0.382790
C48   C     C_3   0.382382 0.156052 0.796228 0.436671
C49   C     C_R   0.068536 0.181491 0.524369 -0.290713
H1    H     H_    0.334313 0.721602 0.275253 0.105883
H2    H     H_    0.296843 0.058689 0.385501 0.085342
H3    H     H_    0.546285 0.776376 0.294258 -0.208256
H4    H     H_    0.542103 0.829110 0.186585 -0.032354
H5    H     H_    0.657273 0.750841 0.624046 0.054280
H6    H     H_    0.446886 0.735958 0.587042 0.079306
H7    H     H_    0.611205 0.911597 0.692347 0.118984
H8    H     H_    0.549993 0.917913 0.600005 0.098261
H9    H     H_    0.398749 0.895617 0.661566 0.141884
H10   H     H_    0.433876 0.930291 0.219014 0.005081
H11   H     H_    0.800953 0.940142 0.258399 0.102016
H12   H     H_    0.687108 0.205737 0.220442 0.022508
H13   H     H_    0.985081 0.169454 0.664370 -0.094313
H14   H     H_    0.896621 0.970189 0.681713 0.065902
H15   H     H_    0.034695 0.050082 0.743571 0.149750
H16   H     H_    0.824373 0.021503 0.763759 0.101361
H17   H     H_    0.245289 0.207103 0.707849 -0.047392
H18   H     H_    0.453877 0.270238 0.722541 0.021950
H19   H     H_    0.479931 0.209130 0.828921 0.007850
H20   H     H_    0.041120 0.842275 0.353252 0.093956
H21   H     H_    0.625208 0.045868 0.424853 0.125186
H22   H     H_    0.179210 0.953741 0.575722 0.097699
H23   H     H_    0.802221 0.327840 0.205289 -0.133097
H24   H     H_    0.117167 0.264244 0.528427 0.056196
H25   H     H_    0.683574 0.734897 0.473430 0.066891
H26   H     H_    0.499804 0.566607 0.823387 0.058973
H27   H     H_    0.477763 0.642181 0.928891 0.037358
H28   H     H_    0.280035 0.450319 0.189533 0.078086
H29   H     H_    0.205877 0.341994 0.958310 0.079667
H30   H     H_    0.821106 0.807476 0.337497 -0.033514
H31   H     H_    0.301479 0.361652 0.081154 0.042114
H32   H     H_    0.041325 0.386956 0.865114 0.067783
H33   H     H_    0.761721 0.583872 0.140177 0.117536
H34   H     H_    0.207628 0.776696 0.678005 0.043522
H35   H     H_    0.190803 0.398428 0.654300 0.026030
H36   H     H_    0.659051 0.543799 0.353379 0.070337
H37   H     H_    0.933843 0.001948 0.332499 0.082781
H38   H     H_    0.019381 0.960082 0.251022 0.144431
H39   H     H_    0.661446 0.330311 0.320025 -0.125357
H40   H     H_    0.882370 0.367455 0.331016 0.011810
H41   H     H_    0.078871 0.324920 0.195415 0.046297
H42   H     H_    0.976981 0.220463 0.131790 0.002542
H43   H     H_    0.149797 0.198810 0.188295 0.062395
H44   H     H_    0.099149 0.566192 0.611982 0.057225
H45   H     H_    0.019213 0.745639 0.806652 0.034472
H46   H     H_    0.893189 0.588921 0.643618 0.160686
H47   H     H_    0.990349 0.504470 0.675638 0.042771
H48   H     H_    0.296677 0.724136 0.813453 0.059392
H49   H     H_    0.347571 0.832687 0.880224 0.026016
H50   H     H_    0.440910 0.835350 0.798559 0.109251
H51   H     H_    0.163504 0.826297 0.073934 0.072604
H52   H     H_    0.375496 0.881970 0.082209 -0.010745
H53   H     H_    0.225571 0.940206 0.134310 0.019208
H54   H     H_    0.442801 0.118551 0.256835 0.164926
H55   H     H_    0.507702 0.042374 0.316019 0.190138
H56   H     H_    0.958570 0.849500 0.763563 0.024372
H57   H     H_    0.747696 0.173773 0.601221 0.212979
H58   H     H_    0.759006 0.046218 0.602576 0.127481
H59   H     H_    0.290089 0.101751 0.918582 0.010987
H60   H     H_    0.138020 0.022110 0.856223 0.125990
H61   H     H_    0.084758 0.132002 0.905851 0.042299
H62   H     H_    0.534535 0.047168 0.769700 0.182145
H63   H     H_    0.458898 0.033081 0.845569 0.137793
H64   H     H_    0.627124 0.736044 0.020474 0.159513
H65   H     H_    0.554693 0.721324 0.098808 0.191838
H66   H     H_    0.153901 0.221754 0.386524 -0.053438
H67   H     H_    0.370639 0.248307 0.415167 0.057264
H68   H     H_    0.204358 0.082126 0.301573 0.096057
N1    N     N_3   0.461982 0.113118 0.311000 -0.462962
N2    N     N_3   0.739435 0.112433 0.633728 -0.411596
N3    N     N_3   0.424982 0.048420 0.794357 -0.435910
N4    N     N_3   0.610711 0.683051 0.059062 -0.511342
O1    O     O_2   0.160820 0.763040 0.533820 -0.493352
O2    O     O_2   0.761001 0.402896 0.755947 -0.491787
O3    O     O_3   0.821143 0.209716 0.739147 -0.587345
O4    O     O_3   0.890970 0.628600 0.535400 -0.512747
O5    O     O_3   0.427530 0.446070 0.416950 -0.497606
O6    O     O_2   0.637430 0.550200 0.669460 -0.484365
O7    O     O_3   0.480976 0.711903 0.693870 -0.647641
O8    O     O_2   0.487110 0.113495 0.537789 -0.486862
O9    O     O_3   0.421758 0.121832 0.669667 -0.602900
O10   O     O_3   0.385950 0.698560 0.408070 -0.483056
O11   O     O_2   0.304079 0.882857 0.458848 -0.481411
O12   O     O_3   0.302346 0.283458 0.314323 -0.634550
O13   O     O_3   0.963851 0.768434 0.646756 -0.718275
O14   O     O_3   0.371408 0.869051 0.329631 -0.647931
O15   O     O_2   0.172860 0.449730 0.330520 -0.469766
O16   O     O_3   0.962080 0.644700 0.373110 -0.493571
O17   O     O_2   0.070414 0.581169 0.249973 -0.480259
O18   O     O_3   0.934760 0.204443 0.236371 -0.633059
O19   O     O_3   0.090711 0.643007 0.709681 -0.769757
O20   O     O_3   0.203854 0.868445 0.795273 -0.678007
O21   O     O_3   0.289212 0.798534 0.164639 -0.627409
O22   O     O_3   0.228919 0.167625 0.825113 -0.673755
O23   O     O_3   0.963875 0.763655 0.256191 -0.566797
O24   O     O_2   0.649470 0.236890 0.466160 -0.467110
O25   O     O_3   0.919320 0.371390 0.464540 -0.505850
O26   O     O_3   0.424350 0.301430 0.591880 -0.488333
O27   O     O_3   0.792286 0.217535 0.355127 -0.613179
O28   O     O_3   0.382770 0.553920 0.582990 -0.493877
O29   O     O_3   0.848220 0.355290 0.626830 -0.522161
P1    P     P_3+3 0.986780 0.745970 0.554690 0.921546
P2    P     P_3+3 0.341450 0.417130 0.341310 0.986302
P3    P     P_3+3 0.931179 0.635690 0.281576 0.977212
P4    P     P_3+3 0.823520 0.254020 0.445250 0.981955
P5    P     P_3+3 0.881713 0.337683 0.718451 0.938082
P6    P     P_3+3 0.428016 0.835460 0.412776 0.940336
P7    P     P_3+3 0.456917 0.576447 0.671697 0.958463
P8    P     P_3+3 0.372371 0.163841 0.587329 0.943852

loop_
_geom_bond_atom_site_label_1
_geom_bond_atom_site_label_2
_ccdc_geom_bond_type
C38   H67   S    
C35   H23   S    
H65   N4    S    
C44   H61   S    
C40   H42   S    
C17   C18   A    
C48   N3    S    
C41   H47   S    
O24   P4    D    
H57   N2    S    
C28   H39   S    
C34   H8    S    
C31   H26   S    
O4    P1    S    
C20   N4    S    
C5    P6    S    
C37   H56   S    
C10   C11   A    
C24   C25   A    
O9    P8    S    
O12   P2    S    
C35   O18   S    
O14   P6    S    
C47   H17   S    
C49   H24   S    
C27   H32   S    
C3    H21   S    
C34   H7    S    
C36   C37   S    
C4    O23   S    
C33   H35   S    
O2    P5    D    
C28   O27   S    
C44   O22   S    
Ba2   O25   S    
C13   C14   A    
C15   H28   S    
Ba2   O6    S    
Ba1   Ba2   S    
C7    C11   A    
C43   H52   S    
C15   C17   A    
C1    H4    S    
C12   H1    S    
H62   N3    S    
C14   C15   A    
C43   O21   S    
C41   H44   S    
C21   C22   A    
C23   H5    S    
H54   N1    S    
C36   O13   S    
C46   H14   S    
C7    C8    A    
Ba1   O16   S    
C2    C6    A    
C30   P7    S    
Ba2   O4    S    
O15   P2    D    
Ba2   O26   S    
C38   H66   S    
C46   H16   S    
C4    H30   S    
C47   H18   S    
O1    P1    D    
C36   O19   S    
Ba1   P2    S    
C23   H6    S    
C2    C5    A    
Ba1   O10   S    
C23   O7    S    
C20   C26   A    
C35   H12   S    
C1    H10   S    
Ba2   O29   S    
C4    H20   S    
C4    C16   S    
C38   O12   S    
H64   N4    S    
O23   P3    S    
C36   H34   S    
C30   C33   A    
Ba1   O4    S    
C9    C49   A    
C8    C9    A    
C45   H13   S    
C3    C5    A    
C6    C7    A    
O17   P3    D    
C34   H9    S    
Ba2   O24   S    
C16   H37   S    
C27   C32   A    
C22   C32   S    
C28   C35   S    
O7    P7    S    
O28   P7    S    
C41   O19   S    
C6    P1    S    
C43   H53   S    
C45   C46   S    
C12   O14   S    
O16   P3    S    
C40   O18   S    
C31   C32   A    
C19   P3    S    
C21   H27   S    
C39   H68   S    
Ba1   P1    S    
C17   C26   S    
C39   H2    S    
C29   P5    S    
C1    C12   S    
C9    P4    S    
Ba1   O5    S    
C38   C39   S    
C12   H3    S    
C37   O20   S    
C44   H59   S    
C14   P2    S    
C29   C33   A    
C47   O9    S    
O6    P7    D    
C10   C49   A    
C48   O22   S    
C45   O3    S    
C13   H36   S    
O3    P5    S    
Ba2   O28   S    
O29   P5    S    
Ba2   P4    S    
H55   N1    S    
C40   H43   S    
C16   H38   S    
C25   H31   S    
C16   H11   S    
C1    O21   S    
C41   H46   S    
C11   H22   S    
C28   H40   S    
C10   P8    S    
C42   H50   S    
O5    P2    S    
C30   C31   A    
C18   H33   S    
C48   H19   S    
Ba1   O1    S    
C3    C8    A    
C27   C29   A    
O13   P1    S    
C42   H49   S    
C22   C24   A    
H58   N2    S    
C42   O20   S    
C42   H48   S    
Ba1   O28   S    
C40   H41   S    
O11   P6    D    
C39   N1    S    
O8    P8    D    
O10   P6    S    
O26   P8    S    
C24   H29   S    
C37   H45   S    
C2    H25   S    
C45   N2    S    
C43   H51   S    
C23   C34   S    
H63   N3    S    
C13   C19   A    
C18   C19   A    
C47   C48   S    
C25   C26   A    
C20   C21   A    
Ba1   O25   S    
O27   P4    S    
O25   P4    S    
C46   H15   S    
C44   H60   S    
Ba1   O15   S    
Ba2   O5    S    
