data_mof_unit_46181.cif
_audit_creation_date              2012-12-11T15:32:38-0500
_audit_creation_method            fapswitch 2.2
_symmetry_space_group_name_H-M    P1
_symmetry_Int_Tables_number       1
_space_group_crystal_system       triclinic
_cell_length_a                    6.953499
_cell_length_b                    20.466135
_cell_length_c                    24.380653
_cell_angle_alpha                 89.780636
_cell_angle_beta                  90.358663
_cell_angle_gamma                 89.41537
_cell_volume                      3469.36630185

loop_
_atom_site_label
_atom_site_type_symbol
_atom_type_description
_atom_site_fract_x
_atom_site_fract_y
_atom_site_fract_z
_atom_type_partial_charge
O1    O     O_R   0.507320 0.423560 0.460500 -0.533627
O2    O     O_R   0.170760 0.556250 0.437010 -0.529655
O3    O     O_R   0.004030 0.576440 0.539500 -0.540996
C1    C     C_R   0.338816 0.576494 0.421213 0.723295
O4    O     O_R   0.177370 0.422820 0.454110 -0.534927
O5    O     O_R   0.010680 0.442050 0.556720 -0.539139
C2    C     C_R   0.346436 0.398834 0.443389 0.690693
O6    O     O_R   0.500680 0.557950 0.443280 -0.530354
O7    O     O_3   0.340380 0.506470 0.533650 -0.376558
V1    V     V_3+5 0.064130 0.498800 0.493760 1.470977
O8    O     O_R   0.681160 0.443750 0.562990 -0.538134
C3    C     C_R   0.850735 0.423703 0.578805 0.717204
O9    O     O_R   0.674560 0.577180 0.545890 -0.542811
C4    C     C_R   0.842405 0.601332 0.556258 0.758114
V2    V     V_3+5 0.564560 0.501200 0.506240 1.456709
O10   O     O_3   0.838180 0.493530 0.466350 -0.361872
C5    C     C_R   0.976648 0.838227 0.911066 -0.042953
C6    C     C_R   0.846379 0.662588 0.587887 -0.140620
C7    C     C_R   0.037498 0.722004 0.905646 -0.156577
C8    C     C_R   0.029613 0.779293 0.936112 -0.167754
C9    C     C_R   0.932424 0.839684 0.854705 -0.213359
C10   C     C_R   0.942825 0.781940 0.822266 0.084851
C11   C     C_R   0.995811 0.722792 0.849238 0.137414
C12   C     C_R   0.904811 0.780759 0.764242 0.054703
C13   C     C_R   0.919832 0.720391 0.734549 0.075351
C14   C     C_R   0.971915 0.663257 0.763902 -0.186341
C15   C     C_R   0.008862 0.664646 0.819879 -0.200488
C16   C     C_R   0.852998 0.837894 0.734879 -0.186082
C17   C     C_R   0.815864 0.836464 0.678908 -0.175520
C18   C     C_R   0.827938 0.778236 0.649597 0.076390
C19   C     C_R   0.881297 0.719188 0.676545 0.095880
C20   C     C_R   0.785240 0.778977 0.593266 -0.246970
C21   C     C_R   0.788431 0.721271 0.562650 0.446870
C22   C     C_R   0.892270 0.661520 0.644134 -0.302131
H1    H     H_    0.049047 0.619423 0.840463 0.125854
H2    H     H_    0.932044 0.614683 0.661256 0.117757
H3    H     H_    0.775689 0.881690 0.658327 0.121185
H4    H     H_    0.078766 0.676892 0.926193 0.118759
H5    H     H_    0.065903 0.777739 0.979389 0.107859
H6    H     H_    0.894688 0.886699 0.837559 0.093530
H7    H     H_    0.985863 0.616130 0.744839 0.125348
H8    H     H_    0.839131 0.885018 0.753962 0.119549
H9    H     H_    0.747434 0.824544 0.572897 0.130801
C23   C     C_3   0.788324 0.298110 0.764089 0.181548
C24   C     C_3   0.977595 0.280637 0.794228 0.409247
H10   H     H_    0.228169 0.296850 0.729310 0.187392
C25   C     C_1   0.961349 0.121590 0.875471 -0.199908
C26   C     C_1   0.862785 0.378382 0.624554 -0.170905
C27   C     C_3   0.738136 0.225286 0.761508 0.342307
C28   C     C_3   0.928035 0.207166 0.791580 -0.093314
C29   C     C_3   0.843774 0.220024 0.706319 0.459940
C30   C     C_3   0.893361 0.293185 0.708796 -0.032476
C31   C     C_3   0.035098 0.201663 0.735904 -0.292624
C32   C     C_3   0.085648 0.275826 0.738859 -0.271730
C33   C     C_1   0.948026 0.159993 0.837551 0.036965
C34   C     C_1   0.875277 0.340090 0.662589 0.102845
H11   H     H_    0.136698 0.161931 0.724376 0.179728
C35   C     C_3   0.590925 0.742688 0.228962 -0.214287
C36   C     C_3   0.431357 0.690789 0.232465 0.394187
H12   H     H_    0.735229 0.734737 0.210785 0.152314
H13   H     H_    0.166241 0.730010 0.179434 0.142340
C37   C     C_1   0.348810 0.622399 0.375631 -0.162122
C38   C     C_1   0.475440 0.878435 0.124997 -0.190098
C39   C     C_3   0.548309 0.761741 0.289818 -0.288670
C40   C     C_3   0.389737 0.708751 0.292389 0.062444
C41   C     C_3   0.394957 0.811196 0.268744 0.352282
C42   C     C_3   0.436304 0.792830 0.208876 0.032541
C43   C     C_3   0.239786 0.758820 0.271585 0.296453
C44   C     C_3   0.277261 0.739898 0.211166 -0.318043
C45   C     C_1   0.364519 0.661203 0.337998 0.082110
C46   C     C_1   0.460306 0.840087 0.162994 0.035905
H14   H     H_    0.656823 0.771732 0.322210 0.183290
C47   C     C_R   0.468060 0.161811 0.089164 -0.084531
C48   C     C_R   0.352149 0.336482 0.412853 -0.147494
C49   C     C_R   0.480874 0.280390 0.092100 0.386260
C50   C     C_R   0.495442 0.221523 0.062941 -0.243914
C51   C     C_R   0.431185 0.160230 0.145699 -0.196760
C52   C     C_R   0.417203 0.218776 0.177038 0.047806
C53   C     C_R   0.439494 0.279072 0.148843 0.011394
C54   C     C_R   0.382777 0.219597 0.235213 -0.024012
C55   C     C_R   0.370622 0.280555 0.264081 -0.036255
C56   C     C_R   0.364422 0.339088 0.232274 0.317735
C57   C     C_R   0.411295 0.337824 0.176925 -0.127942
C58   C     C_R   0.356446 0.161382 0.265247 -0.228204
C59   C     C_R   0.328409 0.161430 0.321833 0.444072
C60   C     C_R   0.328614 0.220443 0.350977 -0.036308
C61   C     C_R   0.359432 0.280373 0.323137 0.029042
C62   C     C_R   0.301255 0.219738 0.408108 -0.119554
C63   C     C_R   0.308675 0.276772 0.439093 0.346760
C64   C     C_R   0.384178 0.337234 0.355885 -0.243691
H15   H     H_    0.412826 0.383960 0.154969 0.202835
H16   H     H_    0.430179 0.382834 0.338205 0.174871
H17   H     H_    0.525484 0.222235 0.019365 0.102691
H18   H     H_    0.414933 0.112462 0.163603 0.105945
H19   H     H_    0.352830 0.114213 0.246007 0.142842
H20   H     H_    0.273334 0.174303 0.429443 0.181428
O11   O     O_R   0.323550 0.942140 0.056770 -0.534937
O12   O     O_R   0.647080 0.077200 0.045890 -0.537262
O13   O     O_R   0.813610 0.057920 0.943260 -0.535443
C65   C     C_R   0.477809 0.101056 0.056794 0.717019
O14   O     O_R   0.653470 0.943760 0.063000 -0.536501
O15   O     O_R   0.820050 0.923540 0.960490 -0.537035
C66   C     C_R   0.485369 0.923796 0.079002 0.720570
O16   O     O_R   0.317110 0.076520 0.039540 -0.534693
O17   O     O_3   0.483830 0.993580 0.966380 -0.368896
V3    V     V_3+5 0.760140 0.001190 0.006240 1.436229
O18   O     O_R   0.149510 0.922740 0.954070 -0.538823
C67   C     C_R   0.981498 0.898810 0.943458 0.692394
O19   O     O_R   0.143120 0.056170 0.936970 -0.538778
C68   C     C_R   0.973550 0.076223 0.921160 0.723434
V4    V     V_3+5 0.259690 0.998700 0.993700 1.433420
O20   O     O_3   0.986130 0.006420 0.033620 -0.364987
O21   O     O_3   0.043713 0.309884 0.843059 -0.551234
C69   C     C_3   0.107912 0.373527 0.831625 -0.251821
H21   H     H_    0.240522 0.372258 0.806442 0.154242
H22   H     H_    0.994711 0.403818 0.811100 0.159398
H23   H     H_    0.144472 0.397600 0.870958 0.168148
O22   O     O_3   0.662139 0.349141 0.777610 -0.649414
H24   H     H_    0.656870 0.349494 0.818217 0.291710
O23   O     O_3   0.767423 0.191673 0.658322 -0.529087
C70   C     C_3   0.770776 0.123114 0.663578 -0.164943
H25   H     H_    0.697555 0.106429 0.701501 0.151004
H26   H     H_    0.920773 0.103925 0.662430 0.117916
H27   H     H_    0.692460 0.101999 0.628171 0.160196
O24   O     O_3   0.557850 0.195733 0.769542 -0.549995
C71   C     C_3   0.482738 0.213836 0.820874 -0.190669
H28   H     H_    0.421741 0.264012 0.818957 0.179314
H29   H     H_    0.590247 0.209896 0.854684 0.121751
H30   H     H_    0.363717 0.180370 0.831024 0.171191
O25   O     O_3   0.451337 0.626560 0.213915 -0.614840
H31   H     H_    0.477264 0.630301 0.174103 0.295192
O26   O     O_3   0.058290 0.768075 0.294770 -0.637207
H32   H     H_    0.995949 0.803204 0.272682 0.300819
O27   O     O_3   0.372917 0.875294 0.287469 -0.633309
H33   H     H_    0.350951 0.871384 0.327472 0.296272
O28   O     O_3   0.275378 0.271152 0.494771 -0.633553
H34   H     H_    0.297632 0.313412 0.513145 0.286004
O29   O     O_3   0.293157 0.102962 0.348510 -0.555310
C72   C     C_3   0.469758 0.069849 0.357098 -0.215137
H35   H     H_    0.442389 0.024767 0.381092 0.174379
H36   H     H_    0.572067 0.100053 0.381227 0.135767
H37   H     H_    0.535689 0.054800 0.317592 0.151526
O30   O     O_3   0.504927 0.339740 0.065835 -0.646647
H38   H     H_    0.532646 0.332006 0.026522 0.293384
O31   O     O_3   0.749181 0.722667 0.506920 -0.556461
C73   C     C_3   0.549681 0.731985 0.498896 -0.217482
H39   H     H_    0.502557 0.781523 0.512120 0.132659
H40   H     H_    0.465241 0.693793 0.520411 0.131540
H41   H     H_    0.517575 0.727905 0.454421 0.159828
O32   O     O_3   0.293849 0.397618 0.251715 -0.634810
H42   H     H_    0.183623 0.387592 0.275850 0.297069

loop_
_geom_bond_atom_site_label_1
_geom_bond_atom_site_label_2
_ccdc_geom_bond_type
C23   C27   S    
C13   C19   A    
C47   C65   S    
C41   C43   S    
C62   H20   S    
C36   O25   S    
C71   H28   S    
C49   O30   S    
C4    C6    S    
O2    C1    A    
C7    C8    A    
C1    O6    A    
O31   C73   S    
V3    O20   S    
C51   C52   A    
C23   C24   S    
C14   C15   A    
C48   C63   A    
C16   C17   A    
C73   H39   S    
O19   V4    S    
O5    C3    A    
C18   C19   A    
O11   V4    S    
C72   H37   S    
C60   C62   A    
C35   H12   S    
V2    O10   S    
C1    C37   S    
C51   H18   S    
C65   O16   A    
C5    C8    A    
C37   C45   T    
C43   O26   S    
O22   H24   S    
C70   H27   S    
C41   O27   S    
O8    V2    S    
V4    O20   S    
O26   H32   S    
C27   C29   S    
O18   C67   A    
O15   C67   A    
O1    V2    S    
C11   C15   A    
C18   C20   A    
O7    V1    S    
C22   H2    S    
C3    C26   S    
C23   C30   S    
C41   C42   S    
O17   V4    S    
O14   C66   A    
C63   O28   S    
O1    C2    A    
O9    C4    A    
C30   C32   S    
C69   H21   S    
C2    C48   S    
C73   H40   S    
C35   C39   S    
C19   C22   A    
C28   C31   S    
C29   C30   S    
C12   C13   A    
C38   C66   S    
C5    C67   S    
C54   C58   A    
O4    C2    A    
C8    H5    S    
C31   H11   S    
C52   C53   A    
C43   C44   S    
C71   H30   S    
C15   H1    S    
C13   C14   A    
C31   C32   S    
O13   C68   A    
C55   C56   A    
C42   C44   S    
C58   H19   S    
C39   C41   S    
C7    C11   A    
C49   C50   A    
C17   C18   A    
C7    H4    S    
C50   H17   S    
C73   H41   S    
C64   H16   S    
C23   O22   S    
C72   H35   S    
C40   C43   S    
H10   C32   S    
C29   O23   S    
C70   H25   S    
C52   C54   A    
C55   C61   A    
C58   C59   A    
C6    C22   A    
C59   C60   A    
O11   C66   A    
O3    C4    A    
C21   O31   S    
C36   C44   S    
C38   C46   T    
C24   C32   S    
C56   C57   A    
O6    V2    S    
O12   C65   A    
O9    V2    S    
O24   C71   S    
C47   C50   A    
C10   C12   A    
O2    V1    S    
C57   H15   S    
O23   C70   S    
C25   C33   T    
O21   C69   S    
H13   C44   S    
O14   V3    S    
C26   C34   T    
O13   V3    S    
C71   H29   S    
C60   C61   A    
O18   V4    S    
C12   C16   A    
C54   C55   A    
C56   O32   S    
O5    V1    S    
O16   V4    S    
C69   H22   S    
O8    C3    A    
O27   H33   S    
C25   C68   S    
C27   O24   S    
O17   V3    S    
C28   C33   S    
O12   V3    S    
C20   C21   A    
C48   C64   A    
O25   H31   S    
C35   C36   S    
O4    V1    S    
O3    V1    S    
V1    O10   S    
O19   C68   A    
C39   C40   S    
C53   C57   A    
C72   H36   S    
C9    H6    S    
C30   C34   S    
C24   C28   S    
C16   H8    S    
C20   H9    S    
O15   V3    S    
C42   C46   S    
C39   H14   S    
O7    V2    S    
C6    C21   A    
C5    C9    A    
C70   H26   S    
C69   H23   S    
O29   C72   S    
C24   O21   S    
C35   C42   S    
C62   C63   A    
C27   C28   S    
C61   C64   A    
C17   H3    S    
C47   C51   A    
C10   C11   A    
O28   H34   S    
C29   C31   S    
C40   C45   S    
C9    C10   A    
C49   C53   A    
C59   O29   S    
C36   C40   S    
O30   H38   S    
C14   H7    S    
O32   H42   S    
