data_mof_unit_15858.cif
_audit_creation_date              2012-12-10T18:58:12-0500
_audit_creation_method            fapswitch 2.2
_symmetry_space_group_name_H-M    P1
_symmetry_Int_Tables_number       1
_space_group_crystal_system       triclinic
_cell_length_a                    10.643806
_cell_length_b                    10.066174
_cell_length_c                    15.763291
_cell_angle_alpha                 90.426634
_cell_angle_beta                  92.460623
_cell_angle_gamma                 90.81951
_cell_volume                      1687.13212186

loop_
_atom_site_label
_atom_site_type_symbol
_atom_type_description
_atom_site_fract_x
_atom_site_fract_y
_atom_site_fract_z
_atom_type_partial_charge
C1    C     C_R   0.872160 0.500427 0.500989 -0.002559
C2    C     C_R   0.551732 0.383103 0.956124 0.109463
C3    C     C_R   0.531442 0.504182 0.913404 0.002639
C4    C     C_R   0.516223 0.500604 0.087552 0.008516
C5    C     C_1   0.522366 0.502800 0.823629 -0.013363
C6    C     C_1   0.508166 0.498918 0.176830 -0.027277
C7    C     C_1   0.502986 0.498663 0.251626 -0.208459
C8    C     C_1   0.511984 0.501602 0.748601 -0.225814
C9    C     C_R   0.560055 0.071445 0.564516 0.121855
C10   C     C_R   0.424862 0.927312 0.443496 0.145849
C11   C     C_R   0.444633 0.067467 0.433918 0.166361
C12   C     C_R   0.128168 0.497376 0.502019 0.007528
C13   C     C_R   0.577803 0.931400 0.555073 0.132706
C14   C     C_R   0.059848 0.399004 0.456656 -0.202883
C15   C     C_R   0.940628 0.596212 0.548461 -0.218917
C16   C     C_R   0.930971 0.400851 0.455845 -0.193087
C17   C     C_R   0.069492 0.594889 0.548829 -0.185326
C18   C     C_3   0.604814 0.133714 0.649118 -0.320649
C19   C     C_3   0.729898 0.211112 0.646485 -0.778772
C20   C     C_3   0.316553 0.859879 0.393476 -0.347615
C21   C     C_3   0.193236 0.883499 0.436885 -0.866748
C22   C     C_3   0.438573 0.118312 0.343524 -0.337277
C23   C     C_R   0.260757 0.499135 0.500320 0.837093
C24   C     C_3   0.315457 0.186908 0.318718 -0.831113
C25   C     C_3   0.698549 0.874928 0.593807 -0.340639
C26   C     C_3   0.684657 0.804369 0.678674 -0.823067
C27   C     C_3   0.469873 0.748320 0.094905 -0.388055
C28   C     C_3   0.589025 0.816833 0.132039 -0.879686
C29   C     C_3   0.585942 0.258852 0.906321 -0.385394
C30   C     C_3   0.468791 0.181482 0.873922 -0.896077
C31   C     C_3   0.501931 0.754601 0.906857 -0.394168
C32   C     C_3   0.367828 0.778531 0.872480 -0.878346
C33   C     C_3   0.555221 0.251486 0.094660 -0.390995
C34   C     C_R   0.739339 0.500584 0.500552 0.839528
C35   C     C_3   0.688447 0.236974 0.132969 -0.885825
C36   C     C_R   0.499400 0.499550 0.339905 0.893159
C37   C     C_R   0.501242 0.500437 0.660123 0.884509
C38   C     C_R   0.510860 0.624933 0.956416 0.111860
C39   C     C_R   0.541793 0.380709 0.044849 0.113993
C40   C     C_R   0.500650 0.622759 0.045075 0.112561
H1    H     H_    0.777044 0.193636 0.585990 0.254168
H2    H     H_    0.330003 0.753279 0.386162 0.258892
H3    H     H_    0.235823 0.114709 0.315325 0.235607
H4    H     H_    0.294500 0.265454 0.364728 0.283765
H5    H     H_    0.322795 0.232643 0.255251 0.228315
H6    H     H_    0.523276 0.178311 0.331514 0.223930
H7    H     H_    0.451013 0.035959 0.297553 0.152808
H8    H     H_    0.587886 0.813020 0.701583 0.265733
H9    H     H_    0.710201 0.698407 0.672881 0.253579
H10   H     H_    0.750152 0.849691 0.727865 0.213319
H11   H     H_    0.745346 0.815525 0.546550 0.218067
H12   H     H_    0.716513 0.318908 0.655934 0.258987
H13   H     H_    0.769844 0.955398 0.604359 0.178903
H14   H     H_    0.640002 0.750181 0.177058 0.270771
H15   H     H_    0.652319 0.845088 0.080777 0.252833
H16   H     H_    0.563470 0.908207 0.166837 0.241081
H17   H     H_    0.415426 0.819935 0.055668 0.206057
H18   H     H_    0.406698 0.724435 0.147139 0.202599
H19   H     H_    0.409879 0.152094 0.927262 0.256541
H20   H     H_    0.411699 0.242492 0.828809 0.268118
H21   H     H_    0.497508 0.090218 0.840333 0.240845
H22   H     H_    0.642881 0.285740 0.851366 0.207811
H23   H     H_    0.794940 0.178416 0.699022 0.207331
H24   H     H_    0.648150 0.192896 0.944653 0.204807
H25   H     H_    0.336222 0.697929 0.827761 0.268504
H26   H     H_    0.301908 0.783091 0.925050 0.251173
H27   H     H_    0.364539 0.874164 0.837901 0.245739
H28   H     H_    0.535785 0.841257 0.945610 0.209108
H29   H     H_    0.566031 0.752964 0.853150 0.204479
H30   H     H_    0.757643 0.236792 0.082239 0.253824
H31   H     H_    0.712190 0.319673 0.178090 0.267090
H32   H     H_    0.695386 0.141832 0.167949 0.243772
H33   H     H_    0.487454 0.247760 0.146214 0.204986
H34   H     H_    0.528921 0.187508 0.678976 0.221028
H35   H     H_    0.530243 0.162652 0.055335 0.211504
H36   H     H_    0.105515 0.322843 0.420924 0.138325
H37   H     H_    0.895316 0.669422 0.586535 0.142518
H38   H     H_    0.877354 0.325954 0.419507 0.145528
H39   H     H_    0.123222 0.668181 0.586369 0.143762
H40   H     H_    0.618893 0.055104 0.697227 0.178223
H41   H     H_    0.169675 0.990558 0.435734 0.250807
H42   H     H_    0.115809 0.826231 0.403483 0.248515
H43   H     H_    0.200971 0.851309 0.504035 0.269632
H44   H     H_    0.306369 0.894528 0.327208 0.176200
N1    N     N_R   0.500000 0.857200 0.500000 -0.129087
N2    N     N_R   0.500000 0.142800 0.500000 -0.123472
O1    O     O_R   0.316770 0.614620 0.499990 -0.625123
O2    O     O_R   0.683230 0.385380 0.500010 -0.615439
O3    O     O_R   0.683230 0.614620 0.500010 -0.623350
O4    O     O_R   0.316770 0.385380 0.499990 -0.619474
O5    O     O_R   0.499980 0.614630 0.378020 -0.632175
O6    O     O_R   0.500020 0.385370 0.621980 -0.612556
O7    O     O_R   0.500020 0.614630 0.621980 -0.594458
O8    O     O_R   0.499980 0.385370 0.378020 -0.613488
Zn1   Zn    Zn3+2 0.500000 0.653120 0.500000 0.929559
Zn2   Zn    Zn3+2 0.500000 0.346880 0.500000 0.933973

loop_
_geom_bond_atom_site_label_1
_geom_bond_atom_site_label_2
_ccdc_geom_bond_type
O2    Zn2   S    
C10   N1    A    
C7    C36   S    
O6    Zn2   S    
C28   H16   S    
C18   H40   S    
C12   C23   S    
C33   C39   S    
C2    C29   S    
C24   H5    S    
C25   H13   S    
C26   H10   S    
C11   N2    A    
C17   H39   S    
C18   C19   S    
C9    C13   A    
C19   H12   S    
C33   H35   S    
C21   H43   S    
C3    C38   A    
C19   H23   S    
C30   H20   S    
C12   C17   A    
C1    C15   A    
C16   H38   S    
C26   H8    S    
C22   H7    S    
C29   H24   S    
C35   H31   S    
O7    Zn1   S    
C23   O1    A    
C13   C25   S    
C2    C39   A    
C28   H15   S    
C1    C34   S    
C31   H28   S    
C4    C40   A    
C35   H30   S    
C4    C6    S    
C27   H17   S    
C26   H9    S    
C10   C20   S    
C28   H14   S    
C25   C26   S    
O1    Zn1   S    
C14   H36   S    
O3    Zn1   S    
C25   H11   S    
C29   C30   S    
C9    N2    A    
C31   C32   S    
C4    C39   A    
C27   C40   S    
C30   H19   S    
C23   O4    A    
C37   O7    A    
C1    C16   A    
C34   O2    A    
C20   C21   S    
O8    Zn2   S    
N2    Zn2   S    
C32   H27   S    
C36   O5    A    
C33   H33   S    
C22   H6    S    
C21   H41   S    
C35   H32   S    
C20   H44   S    
C24   H4    S    
C14   C16   A    
C8    C37   S    
C32   H26   S    
C15   C17   A    
C29   H22   S    
C37   O6    A    
C12   C14   A    
C3    C5    S    
C27   H18   S    
C5    C8    T    
C20   H2    S    
O4    Zn2   S    
C6    C7    T    
C11   C22   S    
C31   C38   S    
C2    C3    A    
C34   O3    A    
C38   C40   A    
N1    Zn1   S    
C15   H37   S    
C33   C35   S    
C22   C24   S    
C10   C11   A    
O5    Zn1   S    
C36   O8    A    
C9    C18   S    
C31   H29   S    
C21   H42   S    
C18   H34   S    
C30   H21   S    
C13   N1    A    
C27   C28   S    
C24   H3    S    
C19   H1    S    
C32   H25   S    
