data_mof_unit_58673.cif
_audit_creation_date              2012-12-10T16:57:16-0500
_audit_creation_method            fapswitch 2.2
_symmetry_space_group_name_H-M    P1
_symmetry_Int_Tables_number       1
_space_group_crystal_system       triclinic
_cell_length_a                    15.871702
_cell_length_b                    10.918842
_cell_length_c                    9.696386
_cell_angle_alpha                 88.808839
_cell_angle_beta                  89.678287
_cell_angle_gamma                 90.40767
_cell_volume                      1679.95600932

loop_
_atom_site_label
_atom_site_type_symbol
_atom_type_description
_atom_site_fract_x
_atom_site_fract_y
_atom_site_fract_z
_atom_type_partial_charge
C1    C     C_R   0.504105 0.265537 0.501242 0.755401
C2    C     C_3   0.951937 0.453681 0.639570 -0.072445
C3    C     C_3   0.917063 0.504866 0.496985 0.105645
C4    C     C_3   0.950898 0.641253 0.460432 0.171031
C5    C     C_3   0.050258 0.632406 0.448076 -0.391160
C6    C     C_1   0.824581 0.500301 0.497462 -0.059091
C7    C     C_1   0.175135 0.504483 0.499523 -0.006678
C8    C     C_1   0.250649 0.502774 0.500635 -0.184691
C9    C     C_2   0.520889 0.936109 0.387406 0.494257
C10   C     C_2   0.493826 0.866940 0.495361 -0.342951
C11   C     C_2   0.506897 0.069178 0.391290 -0.413324
C12   C     C_R   0.340254 0.500580 0.500344 0.807403
C13   C     C_2   0.520955 0.134887 0.504714 0.238771
C14   C     C_2   0.451517 0.428066 0.927054 0.169025
C15   C     C_2   0.444187 0.442559 0.080761 -0.092235
C16   C     C_R   0.499578 0.734768 0.498506 0.855436
C17   C     C_R   0.659674 0.499266 0.499576 0.815114
C18   C     C_3   0.048435 0.476783 0.644374 -0.550096
C19   C     C_3   0.050058 0.406307 0.396545 0.268226
C20   C     C_3   0.952255 0.415376 0.384253 0.184241
C21   C     C_1   0.749127 0.499090 0.498500 -0.207064
C22   C     C_3   0.082831 0.504963 0.496956 0.136210
Cu1   Cu    Cu3+1 0.500020 0.500020 0.638630 0.929823
Cu2   Cu    Cu3+1 0.499980 0.499980 0.361370 0.954048
H1    H     H_    0.945273 0.352108 0.637782 0.205902
H2    H     H_    0.064572 0.554408 0.712045 0.194899
H3    H     H_    0.465048 0.907892 0.585007 0.161355
H4    H     H_    0.485599 0.113731 0.296634 0.146829
H5    H     H_    0.528845 0.571631 0.891530 0.183721
H6    H     H_    0.392658 0.396295 0.134942 0.160862
H7    H     H_    0.079662 0.394264 0.689511 0.171596
H8    H     H_    0.551743 0.533482 0.103652 0.196287
H9    H     H_    0.067061 0.315214 0.443408 0.091805
H10   H     H_    0.940030 0.453582 0.279349 0.101224
H11   H     H_    0.082050 0.703486 0.509975 0.156593
H12   H     H_    0.073377 0.648380 0.341573 0.193649
N1    N     N_2   0.499090 0.498660 0.846910 -0.291611
N2    N     N_2   0.499070 0.498630 0.153040 -0.283362
O1    O     O_R   0.500010 0.321960 0.617040 -0.569352
O2    O     O_R   0.499990 0.321920 0.382900 -0.601856
O3    O     O_R   0.379450 0.500030 0.617120 -0.593284
O4    O     O_R   0.379420 0.499980 0.382980 -0.564941
O5    O     O_R   0.500010 0.678080 0.617100 -0.587392
O6    O     O_R   0.499990 0.678040 0.382960 -0.506878
O7    O     O_R   0.620580 0.500020 0.617020 -0.573222
O8    O     O_R   0.620550 0.499970 0.382880 -0.576292
C23   C     C_3   0.905044 0.493263 0.773899 -0.404740
C24   C     C_3   0.856769 0.386373 0.844413 -0.349668
C25   C     C_3   0.807242 0.429068 0.969811 -0.868329
H13   H     H_    0.850526 0.469215 0.046634 0.240617
H14   H     H_    0.760017 0.498684 0.938246 0.260515
H15   H     H_    0.773525 0.349804 0.018616 0.234780
H16   H     H_    0.811981 0.345473 0.770201 0.231948
H17   H     H_    0.901982 0.314606 0.878264 0.209126
H18   H     H_    0.950199 0.530525 0.849869 0.203935
H19   H     H_    0.858778 0.566169 0.751846 0.212106
C26   C     C_3   0.905736 0.691649 0.324110 -0.367127
C27   C     C_3   0.958342 0.772103 0.222693 -0.367999
C28   C     C_3   0.902223 0.836163 0.116401 -0.890078
H20   H     H_    0.867995 0.767437 0.054503 0.260362
H21   H     H_    0.855785 0.895270 0.168351 0.257490
H22   H     H_    0.941529 0.894236 0.045680 0.245769
H23   H     H_    0.995059 0.842285 0.278002 0.214956
H24   H     H_    0.002586 0.713812 0.164482 0.227067
H25   H     H_    0.877511 0.618152 0.262492 0.167344
H26   H     H_    0.848706 0.743494 0.354437 0.200507
O9    O     O_3   0.551725 0.880323 0.269398 -0.554892
C29   C     C_3   0.615714 0.951759 0.204558 0.075956
H27   H     H_    0.662042 0.985969 0.280958 0.130469
H28   H     H_    0.587801 0.030303 0.146463 0.143411
C30   C     C_3   0.662869 0.873102 0.102465 -0.813570
H29   H     H_    0.618714 0.837997 0.023816 0.253756
H30   H     H_    0.712771 0.928631 0.049655 0.201800
H31   H     H_    0.692595 0.794419 0.157444 0.249912
O10   O     O_3   0.553193 0.081517 0.624158 -0.584999
C31   C     C_3   0.640445 0.106787 0.629878 0.090948
H32   H     H_    0.653096 0.207243 0.631868 0.142844
H33   H     H_    0.673567 0.066879 0.540000 0.128959
C32   C     C_3   0.676269 0.049172 0.760890 -0.813870
H34   H     H_    0.667696 0.948138 0.759903 0.250114
H35   H     H_    0.744534 0.070894 0.767867 0.197473
H36   H     H_    0.643777 0.085829 0.852809 0.243002
C33   C     C_3   0.398888 0.323335 0.873184 -0.343002
C34   C     C_3   0.441211 0.200197 0.905643 -0.345686
C35   C     C_3   0.390795 0.093542 0.847916 -0.792218
H37   H     H_    0.326994 0.089401 0.895537 0.232883
H38   H     H_    0.384647 0.104055 0.734240 0.255799
H39   H     H_    0.423725 0.006226 0.871399 0.257227
H40   H     H_    0.505660 0.199982 0.860494 0.264234
H41   H     H_    0.446831 0.186513 0.019176 0.195589
H42   H     H_    0.335785 0.324390 0.923651 0.146855
H43   H     H_    0.385464 0.331396 0.762896 0.250976
O11   O     O_3   0.087898 0.425722 0.264467 -0.594958
C36   C     C_3   0.105377 0.313299 0.201270 0.067164
H44   H     H_    0.049535 0.251055 0.203763 0.150781
H45   H     H_    0.158945 0.267451 0.254335 0.142180
C37   C     C_3   0.129776 0.337857 0.051221 -0.815700
H46   H     H_    0.186117 0.398714 0.045139 0.251080
H47   H     H_    0.144632 0.250199 0.000685 0.194301
H48   H     H_    0.076810 0.382518 0.995643 0.245298
O12   O     O_3   0.916819 0.295884 0.402370 -0.607006
C38   C     C_3   0.864116 0.265398 0.291017 0.063451
H49   H     H_    0.898993 0.271846 0.191158 0.146848
H50   H     H_    0.808501 0.326722 0.286775 0.157574
C39   C     C_3   0.833515 0.134244 0.310545 -0.837535
H51   H     H_    0.799314 0.123363 0.410199 0.243265
H52   H     H_    0.790732 0.110121 0.224942 0.193986
H53   H     H_    0.888337 0.071806 0.310142 0.249276
C40   C     C_3   0.928671 0.731447 0.580059 -0.375114
C41   C     C_3   0.948208 0.868403 0.551492 -0.353018
C42   C     C_3   0.932370 0.943875 0.679826 -0.874690
H54   H     H_    0.866216 0.931758 0.715747 0.255078
H55   H     H_    0.975648 0.915225 0.763961 0.249443
H56   H     H_    0.943588 0.042470 0.655117 0.254586
H57   H     H_    0.014711 0.882514 0.518965 0.211343
H58   H     H_    0.906805 0.904723 0.468889 0.230343
H59   H     H_    0.860154 0.724608 0.603337 0.183106
H60   H     H_    0.963486 0.704904 0.674577 0.204936

loop_
_geom_bond_atom_site_label_1
_geom_bond_atom_site_label_2
_ccdc_geom_bond_type
C10   H3    S    
C4    C40   S    
O11   C36   S    
Cu1   O7    S    
C2    C18   S    
Cu2   O4    S    
C42   H54   S    
C18   H2    S    
C31   C32   S    
C26   H26   S    
C3    C6    S    
C37   H46   S    
C40   H59   S    
C7    C8    T    
C35   H37   S    
C24   H17   S    
C33   H43   S    
C39   H52   S    
O12   C38   S    
C31   H33   S    
C5    H12   S    
C30   H30   S    
Cu1   O5    S    
C38   C39   S    
C41   C42   S    
C12   O4    A    
C1    O2    A    
C5    C22   S    
C33   C34   S    
C29   H27   S    
C25   H14   S    
C4    C26   S    
Cu2   N2    S    
Cu1   Cu2   S    
H8    N2    S    
C2    H1    S    
C9    C10   D    
C16   O6    A    
C19   O11   S    
C20   H10   S    
C28   H20   S    
C36   H44   S    
C34   H41   S    
C14   C33   S    
C37   H47   S    
C40   H60   S    
C35   H38   S    
C27   H24   S    
C24   H16   S    
C39   H53   S    
C28   H21   S    
O9    C29   S    
C13   O10   S    
C19   C22   S    
C31   H32   S    
C19   H9    S    
C32   H35   S    
C20   O12   S    
C36   C37   S    
C27   C28   S    
Cu1   N1    S    
C6    C21   T    
C17   C21   S    
C17   O7    A    
C36   H45   S    
O10   C31   S    
C9    O9    S    
C15   N2    D    
C12   O3    A    
C30   H31   S    
C23   C24   S    
C8    C12   S    
C25   H15   S    
C3    C20   S    
C42   H55   S    
C34   C35   S    
C38   H50   S    
C9    C11   S    
C16   O5    A    
C24   C25   S    
Cu2   O6    S    
C1    C13   S    
C34   H40   S    
C3    C4    S    
C41   H58   S    
C37   H48   S    
C15   H6    S    
C23   H18   S    
C35   H39   S    
C27   H23   S    
C28   H22   S    
C18   C22   S    
C26   H25   S    
C4    C5    S    
C32   H36   S    
C17   O8    A    
C2    C23   S    
C7    C22   S    
C33   H42   S    
C39   H51   S    
Cu1   O3    S    
Cu2   O8    S    
C19   C20   S    
C2    C3    S    
C30   H29   S    
C10   C16   S    
C40   C41   S    
C14   N1    D    
C11   C13   D    
C26   C27   S    
C11   H4    S    
C29   C30   S    
Cu1   O1    S    
C5    H11   S    
Cu2   O2    S    
C42   H56   S    
C38   H49   S    
C1    O1    A    
C32   H34   S    
C29   H28   S    
C25   H13   S    
H5    N1    S    
C14   C15   S    
C18   H7    S    
C41   H57   S    
C23   H19   S    
