data_mof_unit_66689.cif
_audit_creation_date              2013-03-05T16:47:54-0500
_audit_creation_method            fapswitch 2.2
_symmetry_space_group_name_H-M    P1
_symmetry_Int_Tables_number       1
_space_group_crystal_system       triclinic
_cell_length_a                    11.109514
_cell_length_b                    11.289946
_cell_length_c                    9.794001
_cell_angle_alpha                 87.512061
_cell_angle_beta                  92.69533
_cell_angle_gamma                 98.618791
_cell_volume                      1212.38212896

loop_
_atom_site_label
_atom_site_type_symbol
_atom_site_description
_atom_site_fract_x
_atom_site_fract_y
_atom_site_fract_z
_atom_type_partial_charge
O1    O     O_R   0.499990 0.319640 0.618810 -0.548810
O2    O     O_R   0.500000 0.319660 0.381240 -0.508100
C1    C     C_R   0.498327 0.260596 0.503639 0.867227
O3    O     O_R   0.319640 0.500000 0.618780 -0.524528
O4    O     O_R   0.319650 0.500020 0.381210 -0.557188
C2    C     C_R   0.262600 0.499864 0.496407 0.869305
Cu1   Cu    Cu3+1 0.499990 0.499990 0.640660 1.159873
Cu2   Cu    Cu3+1 0.500010 0.500010 0.359340 1.202661
O5    O     O_R   0.500000 0.680340 0.618760 -0.562070
O6    O     O_R   0.500010 0.680360 0.381190 -0.478985
O7    O     O_R   0.680350 0.499980 0.618790 -0.502140
O8    O     O_R   0.680360 0.500000 0.381220 -0.492092
C3    C     C_R   0.490437 0.734532 0.497681 0.925885
C4    C     C_R   0.737994 0.504605 0.503389 0.965426
C5    C     C_R   0.127381 0.455539 0.024831 0.366101
C6    C     C_R   0.128490 0.490061 0.160406 0.661338
C7    C     C_R   0.084081 0.406435 0.263042 -0.095655
C8    C     C_R   0.046654 0.287635 0.230291 -0.187383
H1    H     H_    0.012354 0.222364 0.308976 0.244477
C9    C     C_R   0.033033 0.256481 0.094422 0.291231
C10   C     C_R   0.074003 0.339140 0.988768 0.148238
C11   C     C_R   0.918570 0.436431 0.411002 0.310148
C12   C     C_R   0.872510 0.503067 0.508750 -0.174906
C13   C     C_R   0.957093 0.566434 0.602829 -0.012972
C14   C     C_R   0.082644 0.564045 0.593051 0.638442
C15   C     C_R   0.128898 0.505136 0.490075 -0.135605
C16   C     C_R   0.045546 0.447621 0.391981 -0.056204
C17   C     C_R   0.980679 0.760067 0.711383 0.208189
C18   C     C_R   0.031885 0.814371 0.832329 0.124412
C19   C     C_R   0.009129 0.752937 0.958215 0.621992
C20   C     C_R   0.935088 0.641743 0.964362 0.350193
C21   C     C_R   0.898416 0.579609 0.844537 0.153507
C22   C     C_R   0.927134 0.637696 0.716290 -0.069998
C23   C     C_R   0.503446 0.078451 0.772439 0.255451
C24   C     C_R   0.506586 0.991557 0.878764 0.616287
C25   C     C_R   0.441742 0.879006 0.862098 0.536293
C26   C     C_R   0.404393 0.845455 0.731899 -0.220769
H2    H     H_    0.350634 0.758515 0.720142 0.268806
C27   C     C_R   0.450846 0.917079 0.619030 -0.110374
C28   C     C_R   0.481246 0.043662 0.633434 -0.078705
C29   C     C_R   0.491017 0.122005 0.509906 -0.197015
C30   C     C_R   0.488791 0.061127 0.383684 0.227248
C31   C     C_R   0.486566 0.936416 0.380039 0.660120
C32   C     C_R   0.472345 0.863600 0.497287 -0.185434
C33   C     C_R   0.652476 0.684099 0.138821 0.647142
C34   C     C_R   0.708214 0.784206 0.066481 0.159485
C35   C     C_R   0.703812 0.786572 0.924091 -0.059569
C36   C     C_R   0.650653 0.683951 0.858207 0.480481
C37   C     C_R   0.576126 0.588311 0.925635 0.040278
C38   C     C_R   0.575496 0.589080 0.073955 -0.004454
N1    N     N_R   0.501190 0.501210 0.147910 -0.202403
C39   C     C_R   0.420151 0.422000 0.069820 0.420518
H3    H     H_    0.340643 0.384061 0.867566 0.223637
C40   C     C_R   0.414624 0.432978 0.924144 0.119076
N2    N     N_R   0.501230 0.501290 0.852040 -0.184746
N3    N     N_R   0.067770 0.303160 0.848638 0.201715
O9    O     O_R   0.138405 0.362014 0.759467 -0.314169
O10   O     O_R   0.993870 0.209529 0.808627 -0.173731
F1    F     F_    0.057180 0.801730 0.076384 -0.451691
F2    F     F_    0.906444 0.591046 0.088917 -0.590813
N4    N     N_R   0.834196 0.458721 0.855401 0.176781
O11   O     O_R   0.843637 0.379947 0.765274 -0.293898
O12   O     O_R   0.761339 0.427162 0.954618 -0.233497
N5    N     N_R   0.483854 0.122076 0.253792 0.206952
O13   O     O_R   0.396948 0.080814 0.167418 -0.134203
O14   O     O_R   0.582332 0.184990 0.207589 -0.153649
N6    N     N_R   0.472606 0.185715 0.816387 0.150397
O15   O     O_R   0.358090 0.197645 0.802346 -0.306606
O16   O     O_R   0.543713 0.246364 0.906153 -0.228461
F3    F     F_    0.550375 0.023059 0.004672 -0.493864
F4    F     F_    0.415711 0.802704 0.971081 -0.561358
F5    F     F_    0.492610 0.885700 0.257790 -0.527494
N7    N     N_R   0.340054 0.322269 0.128179 0.085369
O17   O     O_R   0.287239 0.238221 0.049706 -0.285052
O18   O     O_R   0.309226 0.316686 0.253915 -0.364512
F6    F     F_    0.173357 0.537795 0.929134 -0.584167
F7    F     F_    0.681919 0.684904 0.272452 -0.581261
N8    N     N_R   0.777056 0.878537 0.142277 0.241551
O19   O     O_R   0.721642 0.963362 0.182648 -0.151276
O20   O     O_R   0.873669 0.855589 0.212230 -0.142073
N9    N     N_R   0.759278 0.888424 0.843581 0.154650
O21   O     O_R   0.852287 0.959649 0.891534 -0.236907
O22   O     O_R   0.721579 0.906910 0.717726 -0.288897
F8    F     F_    0.686445 0.677519 0.731138 -0.614971
F9    F     F_    0.166587 0.606329 0.190255 -0.528563
N10   N     N_R   0.964556 0.144355 0.065322 0.208329
O23   O     O_R   0.009524 0.047550 0.102085 -0.170880
O24   O     O_R   0.847977 0.140425 0.041279 -0.156127
N11   N     N_R   0.835728 0.348441 0.339075 0.119116
O25   O     O_R   0.804934 0.367410 0.211489 -0.208123
O26   O     O_R   0.782596 0.254089 0.405373 -0.317407
F10   F     F_    0.162136 0.624639 0.684202 -0.633752
N12   N     N_R   0.000852 0.819900 0.580418 0.201968
O27   O     O_R   0.111258 0.852804 0.540103 -0.262960
O28   O     O_R   0.909648 0.820953 0.492466 -0.202606
N13   N     N_R   0.106248 0.930744 0.828586 0.205630
O29   O     O_R   0.088659 0.010574 0.732892 -0.197836
O30   O     O_R   0.189468 0.959612 0.924218 -0.175017

loop_
_geom_bond_atom_site_label_1
_geom_bond_atom_site_label_2
_geom_bond_distance
_ccdc_geom_bond_type
C20   F2    1.355841 S    
C31   F5    1.358132 S    
N7    O17   1.299762 A    
C24   C25   1.375805 A    
Cu1   N2    2.070329 S    
N9    O21   1.293438 A    
Cu1   Cu2   2.755249 S    
H3    C40   1.065487 S    
Cu1   O7    2.025136 S    
C15   C16   1.411514 A    
N12   O27   1.301764 A    
C23   C28   1.433301 A    
O4    C2    1.319613 A    
C17   C18   1.413428 A    
C26   H2    1.077514 S    
C21   N4    1.444207 S    
C23   C24   1.402211 A    
C19   C20   1.394559 A    
O7    C4    1.320304 A    
N10   O24   1.299918 A    
C5    C6    1.398969 A    
N3    O9    1.295310 A    
C8    H1    1.084565 S    
C29   C30   1.437720 A    
N4    O12   1.297631 A    
O5    C3    1.317761 A    
C40   N2    1.346642 A    
C1    C29   1.553271 S    
C20   C21   1.405772 A    
C24   F3    1.346695 S    
C6    C7    1.403534 A    
C9    N10   1.408810 S    
C12   C13   1.420608 A    
N11   O26   1.300883 A    
C8    C9    1.386767 A    
C25   F4    1.356307 S    
C5    F6    1.352415 S    
N12   O28   1.299780 A    
C19   F1    1.355353 S    
N7    O18   1.290046 A    
O3    Cu1   2.004999 S    
N9    O22   1.301407 A    
C39   C40   1.425981 A    
C38   N1    1.392361 A    
N6    O15   1.299563 A    
C7    C16   1.468235 S    
C13   C14   1.406936 A    
O3    C2    1.329079 A    
C39   N7    1.441516 S    
C27   C28   1.429930 A    
C34   N8    1.428743 S    
N10   O23   1.298564 A    
C14   C15   1.390307 A    
C37   N2    1.391816 A    
C36   F8    1.332381 S    
N13   O30   1.301145 A    
C17   N12   1.434654 S    
O1    C1    1.332918 A    
N5    O14   1.300752 A    
C4    C12   1.495528 S    
C31   C32   1.384055 A    
C18   C19   1.402715 A    
C18   N13   1.443392 S    
C35   C36   1.389775 A    
Cu2   O8    2.004999 S    
N13   O29   1.300428 A    
C7    C8    1.390096 A    
Cu2   N1    2.070847 S    
Cu2   O6    2.056573 S    
C28   C29   1.465766 A    
O8    C4    1.329556 A    
C17   C22   1.419678 A    
C11   C16   1.417687 A    
C6    F9    1.357510 S    
O4    Cu2   2.025136 S    
C30   C31   1.406462 A    
C30   N5    1.422558 S    
Cu1   O5    2.038111 S    
C34   C35   1.392365 A    
C36   C37   1.417422 A    
C14   F10   1.357442 S    
O1    Cu1   2.056574 S    
O2    Cu2   2.038111 S    
O6    C3    1.333620 A    
C23   N6    1.397374 S    
C10   N3    1.443748 S    
C27   C32   1.405635 A    
C13   C22   1.478366 S    
C21   C22   1.418798 A    
O2    C1    1.345755 A    
N1    C39   1.395896 A    
C26   C27   1.411799 A    
N5    O13   1.298999 A    
N8    O19   1.298044 A    
C2    C15   1.493725 S    
C33   C38   1.420870 A    
C11   N11   1.433836 S    
N3    O10   1.300234 A    
N8    O20   1.298963 A    
C35   N9    1.441639 S    
N4    O11   1.298439 A    
C33   C34   1.387359 A    
C5    C10   1.410817 A    
C9    C10   1.407822 A    
C25   C26   1.373596 A    
C37   C38   1.453399 A    
C11   C12   1.402968 A    
C33   F7    1.334119 S    
N6    O16   1.300250 A    
N11   O25   1.297254 A    
C3    C32   1.500324 S    
