data_mof_unit_37362.cif
_audit_creation_date              2012-12-10T16:57:10-0500
_audit_creation_method            fapswitch 2.2
_symmetry_space_group_name_H-M    P1
_symmetry_Int_Tables_number       1
_space_group_crystal_system       triclinic
_cell_length_a                    7.931656
_cell_length_b                    8.572754
_cell_length_c                    16.570516
_cell_angle_alpha                 94.184172
_cell_angle_beta                  80.560102
_cell_angle_gamma                 92.590307
_cell_volume                      1107.87825141

loop_
_atom_site_label
_atom_site_type_symbol
_atom_type_description
_atom_site_fract_x
_atom_site_fract_y
_atom_site_fract_z
_atom_type_partial_charge
C1    C     C_R   0.544420 0.793877 0.498855 0.968349
C2    C     C_R   0.388161 0.479607 0.220637 -0.214562
C3    C     C_R   0.548680 0.271312 0.829651 -0.164869
C4    C     C_R   0.386321 0.424167 0.140117 -0.151039
C5    C     C_R   0.403958 0.307884 0.887558 0.204793
C6    C     C_R   0.528172 0.346841 0.095368 0.208013
C7    C     C_R   0.279442 0.402451 0.867529 -0.173904
C8    C     C_R   0.674260 0.332513 0.131013 -0.180729
C9    C     C_R   0.304607 0.468179 0.791966 -0.201472
C10   C     C_R   0.676060 0.388027 0.211710 -0.205690
C11   C     C_2   0.395717 0.274566 0.973345 -0.241948
C12   C     C_R   0.455585 0.206127 0.501155 0.961802
C13   C     C_2   0.536259 0.300298 0.008202 -0.228622
C14   C     C_3   0.037341 0.373831 0.404532 -0.157827
C15   C     C_3   0.940292 0.221926 0.383526 -0.378308
C16   C     C_3   0.040285 0.128565 0.310488 -0.960389
C17   C     C_3   0.962148 0.625848 0.595561 -0.160353
C18   C     C_3   0.060298 0.776817 0.617295 -0.365596
C19   C     C_3   0.958848 0.872502 0.688988 -0.975596
C20   C     C_2   0.567184 0.957235 0.501090 -0.388599
C21   C     C_2   0.432835 0.042808 0.498996 -0.381099
C22   C     C_R   0.475822 0.493669 0.653811 0.841004
C23   C     C_R   0.522512 0.493375 0.345518 0.847347
C24   C     C_R   0.454970 0.439913 0.736255 -0.018092
C25   C     C_R   0.531426 0.459016 0.257514 -0.026890
C26   C     C_R   0.575234 0.338802 0.755009 -0.210825
H1    H     H_    0.688558 0.309310 0.711446 0.158666
H2    H     H_    0.270366 0.264664 0.010817 0.143167
H3    H     H_    0.275438 0.446073 0.112900 0.123656
H4    H     H_    0.644039 0.194917 0.843185 0.132789
H5    H     H_    0.063269 0.198959 0.255781 0.266073
H6    H     H_    0.165033 0.094835 0.325021 0.269869
H7    H     H_    0.965757 0.020320 0.295935 0.269034
H8    H     H_    0.921024 0.149097 0.437178 0.227728
H9    H     H_    0.815145 0.246161 0.367171 0.266593
H10   H     H_    0.050684 0.450897 0.352741 0.157284
H11   H     H_    0.160860 0.334248 0.412807 0.238714
H12   H     H_    0.277106 0.537722 0.254059 0.147150
H13   H     H_    0.836141 0.907804 0.672791 0.265214
H14   H     H_    0.931958 0.803149 0.744017 0.268799
H15   H     H_    0.034316 0.979990 0.703866 0.270871
H16   H     H_    0.183631 0.751204 0.635255 0.267230
H17   H     H_    0.083355 0.848931 0.563378 0.227825
H18   H     H_    0.839493 0.666667 0.586754 0.238790
H19   H     H_    0.945647 0.548078 0.647302 0.162572
H20   H     H_    0.788887 0.371449 0.238630 0.155548
H21   H     H_    0.207997 0.542174 0.777447 0.148823
H22   H     H_    0.167248 0.431831 0.911892 0.122560
H23   H     H_    0.786711 0.277836 0.096422 0.123183
H24   H     H_    0.693891 0.006670 0.505852 0.171526
H25   H     H_    0.306154 0.993409 0.494190 0.171474
H26   H     H_    0.661466 0.310789 0.970541 0.147477
N1    N     N_2   0.953500 0.457650 0.478520 -0.064745
N2    N     N_2   0.046500 0.542350 0.521480 -0.064925
O1    O     O_R   0.388470 0.738640 0.505270 -0.622500
O2    O     O_R   0.611530 0.261360 0.494730 -0.626852
O3    O     O_R   0.679650 0.711510 0.491500 -0.639711
O4    O     O_R   0.320350 0.288490 0.508500 -0.641678
O5    O     O_R   0.337210 0.515200 0.623500 -0.625985
O6    O     O_R   0.662790 0.484800 0.376500 -0.627982
O7    O     O_R   0.628380 0.488060 0.609730 -0.652171
O8    O     O_R   0.371620 0.511940 0.390270 -0.646750
Zn1   Zn    Zn3+2 0.305580 0.518120 0.509190 0.914950
Zn2   Zn    Zn3+2 0.694420 0.481880 0.490810 0.910838

loop_
_geom_bond_atom_site_label_1
_geom_bond_atom_site_label_2
_ccdc_geom_bond_type
C10   H20   S    
O7    Zn2   S    
C2    C4    A    
O2    Zn2   S    
C9    C24   A    
C5    C11   S    
O8    Zn1   S    
C1    O3    A    
C16   H7    S    
C3    H4    S    
C13   H26   S    
C2    H12   S    
C15   H8    S    
O5    Zn1   S    
C4    H3    S    
O6    Zn2   S    
C12   O4    A    
C7    H22   S    
C18   H16   S    
C17   C18   S    
C1    O1    A    
C17   H18   S    
C22   O5    A    
N1    N2    D    
C22   O7    A    
C11   C13   D    
C6    C13   S    
C26   H1    S    
C12   O2    A    
C19   H13   S    
C11   H2    S    
C20   H24   S    
C17   N2    S    
C10   C25   A    
C15   H9    S    
C17   H19   S    
C9    H21   S    
C2    C25   A    
C23   C25   S    
C14   H10   S    
C23   O6    A    
C8    C10   A    
N1    Zn2   S    
C22   C24   S    
C4    C6    A    
C16   H6    S    
N2    Zn1   S    
C15   C16   S    
C12   C21   S    
C7    C9    A    
C21   H25   S    
C14   N1    S    
C20   C21   D    
O3    Zn2   S    
C14   H11   S    
C18   C19   S    
C19   H14   S    
O4    Zn1   S    
C5    C7    A    
C14   C15   S    
C1    C20   S    
C6    C8    A    
C23   O8    A    
C3    C5    A    
C18   H17   S    
C8    H23   S    
C3    C26   A    
C19   H15   S    
C24   C26   A    
C16   H5    S    
O1    Zn1   S    
