data_mof_unit_23316.cif
_audit_creation_date              2012-12-11T16:26:21-0500
_audit_creation_method            fapswitch 2.2
_symmetry_space_group_name_H-M    P1
_symmetry_Int_Tables_number       1
_space_group_crystal_system       triclinic
_cell_length_a                    13.986126
_cell_length_b                    13.985982
_cell_length_c                    32.037203
_cell_angle_alpha                 90.000253
_cell_angle_beta                  89.999635
_cell_angle_gamma                 120.000504
_cell_volume                      5427.16993717

loop_
_atom_site_label
_atom_site_type_symbol
_atom_type_description
_atom_site_fract_x
_atom_site_fract_y
_atom_site_fract_z
_atom_type_partial_charge
C1    C     C_R   0.567573 0.443967 0.810592 0.557705
C2    C     C_R   0.443967 0.567571 0.189408 0.557712
C3    C     C_R   0.432410 0.876354 0.310613 0.557393
C4    C     C_R   0.123628 0.556041 0.189392 0.557432
C5    C     C_1   0.004018 0.523844 0.018665 0.026589
C6    C     C_1   0.519565 0.995346 0.481403 0.023825
C7    C     C_1   0.475458 0.480080 0.018622 0.020901
C8    C     C_1   0.004046 0.523772 0.481339 0.026583
C9    C     C_1   0.519563 0.995460 0.018609 0.023814
C10   C     C_1   0.475443 0.480148 0.481388 0.020921
C11   C     C_1   0.523850 0.003930 0.518675 0.026595
C12   C     C_R   0.876360 0.432416 0.689387 0.557327
C13   C     C_1   0.995445 0.519566 0.981393 0.023817
C14   C     C_1   0.480090 0.475499 0.518626 0.020916
C15   C     C_1   0.523840 0.004029 0.981336 0.026588
C16   C     C_1   0.995495 0.519504 0.518612 0.023809
C17   C     C_1   0.480109 0.475430 0.981384 0.020905
C18   C     C_R   0.930018 0.469027 0.851952 0.004264
C19   C     C_R   0.538910 0.069860 0.648073 0.003242
C20   C     C_R   0.531119 0.460967 0.851950 0.003857
C21   C     C_R   0.930051 0.469048 0.648052 0.004255
C22   C     C_R   0.538909 0.069881 0.851932 0.003260
C23   C     C_R   0.556041 0.123628 0.810608 0.557429
C24   C     C_R   0.531095 0.460976 0.648056 0.003849
C25   C     C_R   0.468995 0.929980 0.351959 0.004270
C26   C     C_R   0.069879 0.538910 0.148069 0.003258
C27   C     C_R   0.460965 0.531125 0.351952 0.003851
C28   C     C_R   0.469033 0.930027 0.148049 0.004262
C29   C     C_R   0.069872 0.538906 0.351931 0.003271
C30   C     C_R   0.460970 0.531105 0.148053 0.003852
C31   C     C_R   0.949815 0.568972 0.870886 0.216916
C32   C     C_R   0.618861 0.049698 0.629189 0.219337
C33   C     C_R   0.430896 0.381117 0.870786 0.218517
C34   C     C_R   0.567570 0.443968 0.689409 0.557718
C35   C     C_R   0.949715 0.568925 0.629096 0.216933
C36   C     C_R   0.618867 0.049744 0.870825 0.219308
C37   C     C_R   0.430901 0.381092 0.629212 0.218511
C38   C     C_R   0.568997 0.949896 0.370874 0.216917
C39   C     C_R   0.049738 0.618867 0.129178 0.219312
C40   C     C_R   0.381104 0.430915 0.370793 0.218547
C41   C     C_R   0.568966 0.949802 0.129112 0.216926
C42   C     C_R   0.049842 0.618915 0.370844 0.219276
C43   C     C_R   0.381108 0.430890 0.129215 0.218517
C44   C     C_R   0.975484 0.586477 0.913335 -0.111199
C45   C     C_R   0.876357 0.432414 0.810613 0.557336
C46   C     C_R   0.610610 0.023814 0.586757 -0.100760
C47   C     C_R   0.413429 0.389010 0.913257 -0.103748
C48   C     C_R   0.975399 0.586408 0.586648 -0.111177
C49   C     C_R   0.610614 0.023888 0.913259 -0.100775
C50   C     C_R   0.413433 0.389007 0.586743 -0.103777
C51   C     C_R   0.586508 0.975537 0.413327 -0.111218
C52   C     C_R   0.023878 0.610615 0.086743 -0.100769
C53   C     C_R   0.389002 0.413460 0.413265 -0.103724
C54   C     C_R   0.586470 0.975474 0.086663 -0.111193
C55   C     C_R   0.023989 0.610639 0.413279 -0.100781
C56   C     C_R   0.556041 0.123625 0.689393 0.557440
C57   C     C_R   0.389011 0.413417 0.086746 -0.103751
C58   C     C_R   0.983335 0.507013 0.937065 0.020497
C59   C     C_R   0.523416 0.016150 0.562998 0.021875
C60   C     C_R   0.493368 0.475623 0.937118 0.023953
C61   C     C_R   0.983406 0.506999 0.562942 0.020473
C62   C     C_R   0.523411 0.016227 0.937013 0.021881
C63   C     C_R   0.493335 0.475677 0.562892 0.023955
C64   C     C_R   0.506982 0.983231 0.437077 0.020509
C65   C     C_R   0.016219 0.523414 0.062988 0.021879
C66   C     C_R   0.475630 0.493395 0.437121 0.023953
C67   C     C_R   0.443966 0.567574 0.310593 0.557697
C68   C     C_R   0.507017 0.983353 0.062937 0.020491
C69   C     C_R   0.016220 0.523362 0.437014 0.021877
C70   C     C_R   0.475646 0.493339 0.062888 0.023951
C71   C     C_R   0.973088 0.411938 0.918112 0.103596
C72   C     C_R   0.438779 0.026799 0.581908 0.102489
C73   C     C_R   0.589063 0.559953 0.918302 0.104913
C74   C     C_R   0.973316 0.412017 0.581920 0.103602
C75   C     C_R   0.438768 0.026849 0.918095 0.102481
C76   C     C_R   0.588986 0.560043 0.581719 0.104921
C77   C     C_R   0.411829 0.972842 0.418143 0.103583
C78   C     C_R   0.432414 0.876358 0.189387 0.557362
C79   C     C_R   0.026847 0.438772 0.081905 0.102483
C80   C     C_R   0.559969 0.589074 0.418300 0.104914
C81   C     C_R   0.411958 0.973133 0.081894 0.103599
C82   C     C_R   0.026721 0.438670 0.418076 0.102485
C83   C     C_R   0.559989 0.589020 0.081707 0.104918
C84   C     C_R   0.946956 0.393908 0.875633 -0.125621
C85   C     C_R   0.446955 0.053116 0.624368 -0.126388
C86   C     C_R   0.606697 0.552469 0.875753 -0.127021
C87   C     C_R   0.947160 0.394002 0.624398 -0.125591
C88   C     C_R   0.446946 0.053138 0.875632 -0.126385
C89   C     C_R   0.123628 0.556042 0.310609 0.557422
C90   C     C_R   0.606626 0.552534 0.624266 -0.126981
C91   C     C_R   0.393801 0.946750 0.375662 -0.125637
C92   C     C_R   0.053138 0.446948 0.124368 -0.126378
C93   C     C_R   0.552480 0.606698 0.375751 -0.127056
C94   C     C_R   0.393929 0.946995 0.124373 -0.125614
C95   C     C_R   0.053012 0.446872 0.375612 -0.126332
C96   C     C_R   0.552494 0.606663 0.124254 -0.127010
Cl1   Cl    Cl    0.941503 0.674230 0.843727 -0.543674
Cl2   Cl    Cl    0.674211 0.941454 0.156266 -0.543629
Cl3   Cl    Cl    0.058105 0.732452 0.343675 -0.537160
Cl4   Cl    Cl    0.268378 0.325159 0.156567 -0.539988
Cl5   Cl    Cl    0.732292 0.057824 0.656391 -0.536872
Cl6   Cl    Cl    0.325146 0.268417 0.843428 -0.539984
Cl7   Cl    Cl    0.941199 0.674116 0.656220 -0.543759
Cl8   Cl    Cl    0.732305 0.057869 0.843629 -0.536959
Cl9   Cl    Cl    0.325193 0.268316 0.656553 -0.540066
Cl10  Cl    Cl    0.674322 0.941778 0.343684 -0.543539
Cl11  Cl    Cl    0.057861 0.732304 0.156375 -0.536954
Cl12  Cl    Cl    0.268381 0.325172 0.343443 -0.539897
Cr1   Cr    Cr6+3 0.504240 0.249200 0.750000 1.160062
Cr2   Cr    Cr6+3 0.744960 0.495760 0.750000 1.160573
Cr3   Cr    Cr6+3 0.750800 0.255040 0.750000 1.160167
Cr4   Cr    Cr6+3 0.249200 0.504240 0.250000 1.160070
Cr5   Cr    Cr6+3 0.495760 0.744960 0.250000 1.160549
Cr6   Cr    Cr6+3 0.255040 0.750800 0.250000 1.160181
H1    H     H_    0.013108 0.674329 0.071955 0.156015
H2    H     H_    0.674328 0.013121 0.928049 0.156010
H3    H     H_    0.985776 0.660689 0.571813 0.149117
H4    H     H_    0.338634 0.325571 0.927968 0.152806
H5    H     H_    0.066439 0.383916 0.138233 0.187244
H6    H     H_    0.317554 0.933633 0.361779 0.187460
H7    H     H_    0.615394 0.683172 0.138057 0.187916
H8    H     H_    0.066216 0.383795 0.361729 0.187229
H9    H     H_    0.317744 0.934001 0.138274 0.187327
H10   H     H_    0.615376 0.683207 0.361947 0.187816
H11   H     H_    0.383928 0.066433 0.638229 0.187261
H12   H     H_    0.660912 0.986136 0.428129 0.149108
H13   H     H_    0.933943 0.317713 0.861734 0.187337
H14   H     H_    0.683114 0.615454 0.638074 0.187990
H15   H     H_    0.383913 0.066435 0.861765 0.187226
H16   H     H_    0.934263 0.317869 0.638315 0.187278
H17   H     H_    0.683215 0.615359 0.861953 0.187914
H18   H     H_    0.934038 0.301409 0.047940 0.250645
H19   H     H_    0.032821 0.295635 0.075555 0.251399
H20   H     H_    0.367386 0.065679 0.452146 0.250811
H21   H     H_    0.262816 0.967083 0.424475 0.251738
H22   H     H_    0.619860 0.707456 0.037430 0.247014
H23   H     H_    0.325562 0.338631 0.072032 0.152805
H24   H     H_    0.709565 0.731916 0.076267 0.253100
H25   H     H_    0.933781 0.301301 0.452021 0.250586
H26   H     H_    0.032477 0.295409 0.424389 0.251428
H27   H     H_    0.367755 0.066198 0.047917 0.250743
H28   H     H_    0.263117 0.967757 0.075608 0.251722
H29   H     H_    0.619819 0.707540 0.462565 0.246992
H30   H     H_    0.709544 0.731970 0.423738 0.253067
H31   H     H_    0.301417 0.933980 0.547944 0.250661
H32   H     H_    0.295651 0.032785 0.575548 0.251403
H33   H     H_    0.066118 0.367692 0.952089 0.250756
H34   H     H_    0.013313 0.674393 0.428084 0.155986
H35   H     H_    0.967637 0.263062 0.924406 0.251722
H36   H     H_    0.707473 0.620006 0.537463 0.247027
H37   H     H_    0.731801 0.709693 0.576295 0.253139
H38   H     H_    0.301405 0.934038 0.952059 0.250641
H39   H     H_    0.295630 0.032820 0.924443 0.251395
H40   H     H_    0.066536 0.367969 0.547963 0.250678
H41   H     H_    0.968201 0.263289 0.575671 0.251732
H42   H     H_    0.707499 0.619769 0.962578 0.247002
H43   H     H_    0.731986 0.709501 0.923748 0.253096
H44   H     H_    0.660806 0.985948 0.071844 0.149115
H45   H     H_    0.325556 0.338676 0.427980 0.152834
H46   H     H_    0.674320 0.013027 0.571973 0.156034
H47   H     H_    0.985977 0.660825 0.928152 0.149113
H48   H     H_    0.338668 0.325541 0.572024 0.152794
N1    N     N_3   0.016454 0.347900 0.057371 -0.597513
N2    N     N_3   0.347895 0.016454 0.942628 -0.597507
N3    N     N_3   0.984127 0.331710 0.557437 -0.597075
N4    N     N_3   0.669724 0.650659 0.942852 -0.597513
N5    N     N_3   0.331377 0.983288 0.442674 -0.597302
N6    N     N_3   0.650719 0.669663 0.057161 -0.597508
N7    N     N_3   0.016203 0.347716 0.442589 -0.597394
N8    N     N_3   0.331597 0.983796 0.057390 -0.597196
N9    N     N_3   0.650688 0.669732 0.442845 -0.597522
N10   N     N_3   0.347913 0.016401 0.557370 -0.597561
N11   N     N_3   0.983716 0.331561 0.942620 -0.597217
N12   N     N_3   0.669603 0.650810 0.557182 -0.597529
O1    O     O_R   0.480350 0.140770 0.796330 -0.490657
O2    O     O_R   0.140770 0.480350 0.203670 -0.490638
O3    O     O_R   0.519650 0.660420 0.296330 -0.489978
O4    O     O_R   0.339580 0.859230 0.203670 -0.490453
O5    O     O_R   0.514930 0.348530 0.793250 -0.439968
O6    O     O_R   0.833600 0.485070 0.706750 -0.439810
O7    O     O_R   0.651470 0.166400 0.793250 -0.439917
O8    O     O_R   0.514930 0.348530 0.706750 -0.439947
O9    O     O_R   0.833600 0.485070 0.793250 -0.439864
O10   O     O_R   0.651470 0.166400 0.706750 -0.439910
O11   O     O_R   0.348530 0.514930 0.293250 -0.439946
O12   O     O_R   0.660420 0.519650 0.703670 -0.489843
O13   O     O_R   0.485070 0.833600 0.206750 -0.439830
O14   O     O_R   0.166400 0.651470 0.293250 -0.439910
O15   O     O_R   0.348530 0.514930 0.206750 -0.439956
O16   O     O_R   0.485070 0.833600 0.293250 -0.439880
O17   O     O_R   0.166400 0.651470 0.206750 -0.439928
O18   O     O_3   0.666667 0.333333 0.750000 -0.308901
O19   O     O_3   0.333333 0.666667 0.250000 -0.308913
O20   O     O_R   0.859230 0.339580 0.796330 -0.490464
O21   O     O_R   0.480350 0.140770 0.703670 -0.490615
O22   O     O_R   0.660420 0.519650 0.796330 -0.489914
O23   O     O_R   0.859230 0.339580 0.703670 -0.490472
O24   O     O_R   0.140770 0.480350 0.296330 -0.490641
O25   O     O_R   0.519650 0.660420 0.203670 -0.489897
O26   O     O_R   0.339580 0.859230 0.296330 -0.490408

loop_
_geom_bond_atom_site_label_1
_geom_bond_atom_site_label_2
_ccdc_geom_bond_type
Cr1   O8    S    
C19   C56   S    
Cr5   O3    S    
C21   C87   A    
H26   N7    S    
C65   C79   A    
Cr6   O19   S    
H32   N10   S    
C29   C42   A    
C50   H48   S    
C64   C77   A    
C60   C73   A    
C85   H11   S    
C32   Cl5   S    
C93   H10   S    
C7    C70   S    
C29   C89   S    
C72   C85   A    
C55   H34   S    
C39   Cl11  S    
Cr5   O16   S    
H30   N9    S    
C8    C69   S    
C96   H7    S    
C68   C81   A    
C72   N10   S    
C87   H16   S    
C28   C94   A    
C92   H5    S    
C23   O7    A    
C35   Cl7   S    
C42   C55   A    
C86   H17   S    
C23   O1    A    
C63   C76   A    
C35   C48   A    
Cr1   O18   S    
C26   C92   A    
Cr5   O13   S    
C44   H47   S    
C28   C41   A    
Cr3   O7    S    
Cr6   O14   S    
H24   N6    S    
C6    C64   S    
C34   O12   A    
Cr3   O10   S    
C30   C96   A    
C69   C82   A    
C47   C60   A    
C47   H4    S    
Cr2   O12   S    
C44   C58   A    
C7    C17   T    
C20   C86   A    
C18   C84   A    
C12   O23   A    
C2    O15   A    
H40   N3    S    
H25   N7    S    
C49   C62   A    
H42   N4    S    
C57   C70   A    
C82   C95   A    
C28   C78   S    
C5    C13   T    
C59   C72   A    
C40   Cl12  S    
C94   H9    S    
C84   H13   S    
C39   C52   A    
Cr4   O15   S    
H31   N10   S    
Cr3   O18   S    
C8    C16   T    
H37   N12   S    
Cr6   O26   S    
C50   C63   A    
C4    O17   A    
C78   O4    A    
C32   C46   A    
C88   H15   S    
C11   C59   S    
C19   C32   A    
H19   N1    S    
Cr4   O24   S    
C3    O26   A    
C10   C66   S    
C41   C54   A    
C53   H45   S    
C25   C91   A    
C31   C44   A    
H39   N2    S    
C2    O25   A    
C82   N7    S    
C3    C25   S    
C1    O22   A    
C2    C30   S    
C43   Cl4   S    
C5    C65   S    
C67   O3    A    
C3    O16   A    
C6    C11   T    
C29   C95   A    
C38   C51   A    
H22   N6    S    
Cr6   O4    S    
Cr4   O19   S    
C78   O13   A    
C12   C21   S    
C41   Cl2   S    
C24   C34   S    
C33   Cl6   S    
C75   N2    S    
C38   Cl10  S    
Cr3   O20   S    
C37   Cl9   S    
C70   C83   A    
C25   C38   A    
C54   H44   S    
C56   O21   A    
Cr1   O5    S    
Cr2   O6    S    
C27   C40   A    
C46   H46   S    
H33   N11   S    
C24   C37   A    
Cr5   O25   S    
C57   H23   S    
H38   N2    S    
C81   N8    S    
C53   C66   A    
C79   C92   A    
C55   C69   A    
C21   C35   A    
C20   C33   A    
C95   H8    S    
H36   N12   S    
Cr2   O9    S    
C22   C88   A    
Cr2   O22   S    
C74   C87   A    
C89   O14   A    
C30   C43   A    
C27   C93   A    
C16   C61   S    
C62   C75   A    
Cr4   O2    S    
C18   C45   S    
Cr4   O11   S    
C66   C80   A    
C45   O9    A    
C36   C49   A    
C71   C84   A    
C52   H1    S    
C45   O20   A    
C77   C91   A    
C1    C20   S    
H21   N5    S    
Cr6   O17   S    
C12   O6    A    
H20   N5    S    
C51   H12   S    
Cr5   O19   S    
C22   C23   S    
C51   C64   A    
C79   N1    S    
C73   N4    S    
C19   C85   A    
C24   C90   A    
H43   N4    S    
C4    C26   S    
Cr1   O1    S    
C48   H3    S    
C13   C58   S    
C61   C74   A    
C77   N5    S    
C22   C36   A    
C83   N6    S    
H28   N8    S    
C36   Cl8   S    
C76   N12   S    
C9    C15   T    
H18   N1    S    
H29   N9    S    
C42   Cl3   S    
Cr3   O23   S    
C81   C94   A    
C1    O5    A    
C48   C61   A    
C83   C96   A    
H41   N3    S    
C33   C47   A    
C14   C63   S    
C37   C50   A    
H27   N8    S    
C15   C62   S    
C34   O8    A    
Cr1   O21   S    
H35   N11   S    
C31   Cl1   S    
C56   O10   A    
C26   C39   A    
C73   C86   A    
C9    C68   S    
C27   C67   S    
C58   C71   A    
C43   C57   A    
C17   C60   S    
C71   N11   S    
C75   C88   A    
C49   H2    S    
C54   C68   A    
C46   C59   A    
C40   C53   A    
C4    O2    A    
C76   C90   A    
C90   H14   S    
C91   H6    S    
C18   C31   A    
Cr2   O18   S    
C80   N9    S    
C89   O24   A    
C80   C93   A    
C74   N3    S    
C52   C65   A    
C67   O11   A    
C10   C14   T    
