data_mof_unit_68207.cif
_audit_creation_date              2013-03-05T16:03:15-0500
_audit_creation_method            fapswitch 2.2
_symmetry_space_group_name_H-M    P1
_symmetry_Int_Tables_number       1
_space_group_crystal_system       triclinic
_cell_length_a                    7.07996
_cell_length_b                    14.485225
_cell_length_c                    16.576295
_cell_angle_alpha                 90.825165
_cell_angle_beta                  90.580734
_cell_angle_gamma                 90.583677
_cell_volume                      1699.62446736

loop_
_atom_site_label
_atom_site_type_symbol
_atom_site_description
_atom_site_fract_x
_atom_site_fract_y
_atom_site_fract_z
_atom_type_partial_charge
O1    O     O_R   0.361630 0.167340 0.164570 -0.630784
O2    O     O_R   0.638370 0.832660 0.835430 -0.565164
O3    O     O_R   0.690860 0.157560 0.338690 -0.540393
O4    O     O_R   0.309140 0.842440 0.661310 -0.545786
O5    O     O_R   0.861260 0.336420 0.339380 -0.605982
O6    O     O_R   0.138740 0.663580 0.660620 -0.568982
C1    C     C_R   0.521497 0.134297 0.367556 1.049424
C2    C     C_R   0.478435 0.865544 0.632475 1.087313
O7    O     O_R   0.691330 0.156310 0.165190 -0.544891
O8    O     O_R   0.308670 0.843690 0.834810 -0.596569
O9    O     O_R   0.861730 0.335160 0.164640 -0.598750
O10   O     O_R   0.138270 0.664840 0.835360 -0.630585
C3    C     C_R   0.521743 0.134598 0.136270 1.078831
C4    C     C_R   0.479201 0.864833 0.864222 1.065780
O11   O     O_R   0.361150 0.168600 0.339320 -0.585432
O12   O     O_R   0.638850 0.831400 0.660680 -0.578982
O13   O     O_3   0.527950 0.310560 0.252000 -0.363077
O14   O     O_3   0.472050 0.689440 0.748000 -0.369340
V1    V     V_3+5 0.802770 0.240990 0.251980 1.245307
V2    V     V_3+5 0.197230 0.759010 0.748020 1.233495
O15   O     O_R   0.191450 0.346190 0.165260 -0.636761
O16   O     O_R   0.808550 0.653810 0.834740 -0.606642
C5    C     C_R   0.022805 0.371239 0.138949 1.012899
C6    C     C_R   0.979605 0.625557 0.858181 0.986946
O17   O     O_R   0.190980 0.347440 0.338770 -0.616162
O18   O     O_R   0.809020 0.652560 0.661230 -0.623866
C7    C     C_R   0.023785 0.368370 0.368351 1.126182
C8    C     C_R   0.973035 0.632908 0.630887 1.112667
V3    V     V_3+5 0.302780 0.262760 0.251980 1.150350
V4    V     V_3+5 0.697220 0.737240 0.748020 1.185841
O19   O     O_3   0.027730 0.193200 0.251960 -0.279637
O20   O     O_3   0.972270 0.806800 0.748040 -0.285994
C9    C     C_3   0.870621 0.429265 0.507174 0.528853
C10   C     C_3   0.102688 0.571357 0.489557 0.570864
C11   C     C_3   0.018690 0.463273 0.569200 0.631729
C12   C     C_3   0.946439 0.538856 0.429668 0.568256
C13   C     C_3   0.964719 0.564249 0.559118 -0.434393
C14   C     C_3   0.014395 0.438313 0.438950 -0.460278
C15   C     C_3   0.803063 0.531026 0.499523 -0.585424
C16   C     C_3   0.168047 0.470504 0.502282 -0.497499
H1    H     H_    0.655423 0.555195 0.500382 0.191479
H2    H     H_    0.318018 0.457098 0.509034 0.158241
C17   C     C_R   0.989017 0.691214 0.020260 -0.278886
C18   C     C_R   0.037533 0.307080 0.974874 -0.277093
C19   C     C_R   0.012811 0.733104 0.095113 0.215394
C20   C     C_R   0.070516 0.267567 0.899423 0.208689
C21   C     C_R   0.041203 0.677976 0.163004 0.250229
C22   C     C_R   0.113271 0.326149 0.834062 0.227706
C23   C     C_R   0.049127 0.580493 0.154902 0.460508
C24   C     C_R   0.111313 0.423945 0.845956 0.416932
C25   C     C_R   0.018153 0.536857 0.078264 -0.013097
C26   C     C_R   0.044983 0.462766 0.919842 -0.012211
C27   C     C_R   0.996092 0.594943 0.009097 0.030300
C28   C     C_R   0.030478 0.402952 0.987777 0.046156
C29   C     C_R   0.017147 0.438347 0.068057 -0.225904
C30   C     C_R   0.998830 0.558737 0.929022 -0.209238
H3    H     H_    0.970690 0.736717 0.969802 0.207351
H4    H     H_    0.020024 0.260635 0.024702 0.199591
C31   C     C_3   0.339989 0.999664 0.460583 0.441030
C32   C     C_3   0.659180 0.000811 0.540292 0.436953
C33   C     C_3   0.466939 0.914327 0.470309 -0.202070
C34   C     C_3   0.532733 0.086040 0.530573 -0.206939
H5    H     H_    0.436153 0.846100 0.442059 0.212538
H6    H     H_    0.564215 0.153736 0.559431 0.236291
C35   C     C_3   0.490687 0.937505 0.562008 -0.367492
C36   C     C_3   0.508971 0.062961 0.438808 -0.366039
C37   C     C_3   0.360192 0.022573 0.551392 -0.073425
C38   C     C_3   0.639151 0.977969 0.449725 -0.073109
H7    H     H_    0.242292 0.041554 0.590875 0.258774
H8    H     H_    0.764457 0.961021 0.414502 0.264919
C39   C     C_R   0.561334 0.191058 0.967417 0.372077
C40   C     C_R   0.525903 0.807596 0.033623 0.345272
C41   C     C_R   0.553182 0.220276 0.886769 0.098292
C42   C     C_R   0.525957 0.778408 0.114227 0.119362
C43   C     C_R   0.539091 0.154693 0.824208 0.201576
C44   C     C_R   0.519559 0.844323 0.177068 0.268082
C45   C     C_R   0.547802 0.061561 0.840897 0.395837
C46   C     C_R   0.480040 0.935833 0.159971 0.350655
C47   C     C_R   0.521509 0.029623 0.919996 -0.076914
C48   C     C_R   0.494559 0.969027 0.080555 -0.082033
C49   C     C_R   0.529134 0.095936 0.985322 -0.060330
C50   C     C_R   0.505064 0.902951 0.015516 -0.042084
C51   C     C_R   0.499439 0.933382 0.934232 -0.087306
C52   C     C_R   0.510706 0.065841 0.066361 -0.107380
O21   O     O_3   0.019560 0.425671 0.646260 -0.563297
C53   C     C_3   0.834382 0.431153 0.679161 0.127608
H9    H     H_    0.774284 0.361566 0.680507 0.246969
H10   H     H_    0.729122 0.473169 0.646283 0.003287
H11   H     H_    0.837893 0.462602 0.740013 0.137352
O22   O     O_3   0.905854 0.576231 0.354357 -0.562885
C54   C     C_3   0.735732 0.537790 0.322445 0.075161
H12   H     H_    0.630418 0.592529 0.319172 0.172023
H13   H     H_    0.671967 0.480750 0.356750 0.017061
H14   H     H_    0.758483 0.510234 0.260799 0.171726
N1    N     N_R   0.579142 0.824663 0.257889 0.316560
O23   O     O_R   0.535560 0.748333 0.293193 -0.386764
O24   O     O_R   0.691290 0.882764 0.295133 -0.315946
N2    N     N_R   0.510950 0.179320 0.741872 0.285566
O25   O     O_R   0.646951 0.217238 0.702226 -0.346338
O26   O     O_R   0.377004 0.137651 0.700984 -0.322322
O27   O     O_3   0.648376 0.248656 0.024477 -0.631372
C55   C     C_3   0.529572 0.320803 0.049834 0.005709
H15   H     H_    0.381743 0.314436 0.028048 0.099580
H16   H     H_    0.594074 0.388356 0.034601 0.180986
H17   H     H_    0.523803 0.321746 0.115272 0.168450
O28   O     O_3   0.606724 0.749543 0.976875 -0.638022
C56   C     C_3   0.480647 0.679464 0.950530 -0.004876
H18   H     H_    0.333013 0.689261 0.969748 0.112264
H19   H     H_    0.536046 0.610994 0.967564 0.180654
H20   H     H_    0.477480 0.678722 0.885096 0.163781
N3    N     N_R   0.583229 0.315065 0.868186 0.247152
O29   O     O_R   0.482473 0.379613 0.900464 -0.537564
O30   O     O_R   0.721157 0.338138 0.822241 -0.469676
N4    N     N_R   0.537886 0.681835 0.130693 0.247510
O31   O     O_R   0.414593 0.624367 0.100236 -0.538214
O32   O     O_R   0.667550 0.649881 0.177447 -0.435928
O33   O     O_3   0.598745 0.003342 0.778518 -0.673395
C57   C     C_3   0.797743 0.005521 0.775008 0.052302
H21   H     H_    0.864049 0.982737 0.832512 0.154990
H22   H     H_    0.850523 0.074970 0.758915 0.218185
H23   H     H_    0.843178 0.957823 0.727224 0.195820
O34   O     O_3   0.430605 0.992615 0.223704 -0.667828
C58   C     C_3   0.231843 0.996134 0.225269 0.029849
H24   H     H_    0.172445 0.931584 0.247616 0.239296
H25   H     H_    0.167956 0.013917 0.165852 0.155733
H26   H     H_    0.188897 0.049021 0.268954 0.195681
O35   O     O_3   0.783564 0.342712 0.520484 -0.589442
C59   C     C_3   0.591581 0.344074 0.500308 -0.074540
H27   H     H_    0.510904 0.358168 0.556028 0.162631
H28   H     H_    0.548517 0.275052 0.477723 0.134050
H29   H     H_    0.557228 0.391557 0.450631 0.089068
O36   O     O_3   0.219193 0.650436 0.487155 -0.616441
C60   C     C_3   0.343503 0.642333 0.422705 -0.047378
H30   H     H_    0.270671 0.664904 0.367556 0.230624
H31   H     H_    0.398550 0.571513 0.414313 0.025930
H32   H     H_    0.467222 0.687886 0.435032 0.176517
N5    N     N_R   0.136170 0.287798 0.754203 0.294963
O37   O     O_R   0.268623 0.316821 0.706972 -0.335749
O38   O     O_R   0.011388 0.230149 0.724620 -0.251146
N6    N     N_R   0.057105 0.720464 0.240931 0.268180
O39   O     O_R   0.198697 0.774463 0.256429 -0.429345
O40   O     O_R   0.909530 0.728654 0.285652 -0.208055
N7    N     N_R   0.007345 0.832215 0.100662 0.222112
O41   O     O_R   0.920998 0.872464 0.159903 -0.400398
O42   O     O_R   0.060554 0.882095 0.040112 -0.430204
N8    N     N_R   0.062108 0.167930 0.892140 0.219720
O43   O     O_R   0.146898 0.124071 0.834469 -0.419128
O44   O     O_R   0.982296 0.119129 0.947913 -0.411763
O45   O     O_3   0.087845 0.528549 0.222262 -0.655652
C61   C     C_3   0.283516 0.530569 0.238481 -0.088003
H33   H     H_    0.338165 0.601778 0.246352 0.181025
H34   H     H_    0.363272 0.493517 0.190912 0.175071
H35   H     H_    0.311107 0.495309 0.295782 0.125918
O46   O     O_3   0.152383 0.480979 0.782242 -0.658798
C62   C     C_3   0.347890 0.497895 0.777074 0.117055
H36   H     H_    0.431928 0.435176 0.769209 0.174230
H37   H     H_    0.400958 0.537727 0.830221 0.095316
H38   H     H_    0.372891 0.536277 0.721051 0.142216
N9    N     N_R   0.157666 0.996008 0.420126 0.222807
O47   O     O_R   0.090165 0.917125 0.394120 -0.355464
O48   O     O_R   0.054116 0.069542 0.417329 -0.398155
N10   N     N_R   0.842834 0.004093 0.579561 0.221866
O49   O     O_R   0.911805 0.082865 0.605031 -0.346158
O50   O     O_R   0.947691 0.930902 0.579819 -0.406357

loop_
_geom_bond_atom_site_label_1
_geom_bond_atom_site_label_2
_geom_bond_distance
_ccdc_geom_bond_type
C36   C38   1.556935 S    
O27   C55   1.410241 S    
C62   H37   1.106534 S    
C10   C13   1.522658 S    
O13   V3    1.731577 S    
C18   H4    1.080097 S    
N1    O23   1.294419 A    
C48   C52   1.428935 A    
V1    O19   1.743100 S    
C59   H27   1.108458 S    
N4    O31   1.293812 A    
C58   H24   1.092452 S    
C15   H1    1.105893 S    
O21   C53   1.427578 S    
N5    O38   1.297180 A    
C3    C52   1.517995 S    
O9    V1    2.046590 S    
C9    C15   1.560814 S    
C42   C44   1.404268 A    
C34   C37   1.565678 S    
C10   C16   1.553528 S    
C11   C13   1.526589 S    
N6    O40   1.292663 A    
N10   O49   1.299700 A    
O3    C1    1.337291 A    
C31   C36   1.548617 S    
C9    C11   1.533567 S    
C53   H10   1.110567 S    
C58   H25   1.114289 S    
O28   C56   1.406686 S    
C7    C14   1.539226 S    
O12   V4    2.045327 S    
N7    O41   1.296492 A    
C42   N4    1.432292 S    
C9    O35   1.412597 S    
C55   H17   1.085795 S    
C32   C34   1.541707 S    
O7    V1    2.025648 S    
C19   C21   1.403255 A    
C33   H5    1.106215 S    
O7    C3    1.321597 A    
C57   H21   1.114023 S    
C34   H6    1.104509 S    
C31   C37   1.541649 S    
O5    C7    1.319242 A    
C31   N9    1.448739 S    
C17   C27   1.405563 A    
O6    C8    1.337172 A    
N3    O29   1.294711 A    
C18   C20   1.390825 A    
O36   C60   1.395442 S    
C23   C25   1.424734 A    
C61   H35   1.101578 S    
C21   N6    1.425749 S    
C60   H32   1.106845 S    
C32   N10   1.448221 S    
C56   H18   1.105721 S    
N9    O48   1.300319 A    
O3    V1    2.051284 S    
O14   V4    1.731577 S    
V4    O20   2.183434 S    
O14   V2    2.200294 S    
O4    C2    1.336103 A    
C22   C24   1.427664 A    
C39   O27   1.387602 S    
C10   O36   1.405998 S    
C2    C35   1.579164 S    
C2    O12   1.326816 A    
C62   H38   1.104091 S    
C56   H19   1.109505 S    
C4    C51   1.521101 S    
C46   O34   1.379657 S    
C26   C28   1.434553 A    
O11   V3    2.045328 S    
N8    O44   1.301919 A    
C45   C47   1.410140 A    
O17   V3    2.047650 S    
C20   C22   1.418964 A    
C31   C33   1.545077 S    
C34   C36   1.559780 S    
C41   N3    1.425817 S    
N6    O39   1.286771 A    
C21   C23   1.418239 A    
O8    C4    1.328695 A    
O8    V2    2.025649 S    
C54   H12   1.095475 S    
C39   C41   1.408841 A    
C53   H9    1.090723 S    
C58   H26   1.094046 S    
C1    O11   1.327467 A    
C35   C37   1.558548 S    
O15   V3    2.048079 S    
C50   C51   1.423987 A    
C43   N2    1.428159 S    
C25   C27   1.440037 A    
C57   H23   1.096427 S    
O4    V2    2.051288 S    
C61   H34   1.109804 S    
C33   C35   1.558983 S    
C54   H13   1.104976 S    
C19   N7    1.438206 S    
C17   C19   1.381344 A    
C24   C26   1.426174 A    
N9    O47   1.300144 A    
O10   V2    2.046589 S    
O1    V3    2.037088 S    
C46   C48   1.412335 A    
N3    O30   1.288832 A    
C55   H16   1.109121 S    
C44   N1    1.433813 S    
C43   C45   1.382872 A    
C32   C38   1.537483 S    
O46   C62   1.406929 S    
C22   N5    1.439530 S    
C40   C42   1.407197 A    
C40   O28   1.384696 S    
C32   C35   1.545787 S    
O18   V4    2.047652 S    
N2    O26   1.298678 A    
O15   C5    1.323004 A    
C60   H30   1.100442 S    
C56   H20   1.084554 S    
O16   C6    1.338013 A    
O1    C3    1.321119 A    
C41   C43   1.398376 A    
O35   C59   1.396880 S    
C59   H29   1.107242 S    
C49   C52   1.425076 A    
C47   C49   1.437353 A    
N8    O43   1.296067 A    
V2    O20   1.743099 S    
C27   C30   1.420532 A    
C12   O22   1.396236 S    
N7    O42   1.301686 A    
C28   C29   1.423565 A    
O16   V4    2.048079 S    
O18   C8    1.302651 A    
C12   C15   1.552212 S    
C44   C46   1.390126 A    
C16   H2    1.086297 S    
C53   H11   1.100756 S    
C59   H28   1.101550 S    
N4    O32   1.289259 A    
N1    O24   1.296682 A    
C5    C29   1.536293 S    
O5    V1    2.024778 S    
C6    C30   1.538337 S    
O6    V2    2.024780 S    
N5    O37   1.298233 A    
O10   C6    1.315513 A    
C45   O33   1.378081 S    
C9    C14   1.535303 S    
C23   O45   1.382117 S    
O2    V4    2.037084 S    
C12   C14   1.547712 S    
C11   C16   1.544177 S    
V3    O19   2.183435 S    
N10   O50   1.300488 A    
O45   C61   1.408444 S    
C54   H14   1.105613 S    
C14   C16   1.566958 S    
C11   O21   1.395810 S    
C33   C38   1.564430 S    
O22   C54   1.416173 S    
C20   N8    1.447140 S    
C8    C13   1.539862 S    
C24   O46   1.381659 S    
O9    C5    1.326319 A    
O13   V1    2.200293 S    
C48   C50   1.434315 A    
C25   C29   1.434446 A    
C55   H15   1.106233 S    
O2    C4    1.315337 A    
C57   H22   1.106759 S    
C17   H3    1.079933 S    
C47   C51   1.424542 A    
C18   C28   1.403521 A    
C10   C12   1.544215 S    
C13   C15   1.571492 S    
N2    O25   1.293511 A    
C62   H36   1.097980 S    
C60   H31   1.108488 S    
C38   H8    1.094998 S    
C61   H33   1.103472 S    
C37   H7    1.100581 S    
O34   C58   1.409160 S    
O33   C57   1.410741 S    
C40   C50   1.426490 A    
C26   C30   1.437593 A    
C39   C49   1.430148 A    
O17   C7    1.322262 A    
C1    C36   1.583040 S    
