data_mof_unit_32763.cif
_audit_creation_date              2012-12-10T18:05:55-0500
_audit_creation_method            fapswitch 2.2
_symmetry_space_group_name_H-M    P1
_symmetry_Int_Tables_number       1
_space_group_crystal_system       triclinic
_cell_length_a                    12.81407
_cell_length_b                    13.345336
_cell_length_c                    14.845115
_cell_angle_alpha                 94.297141
_cell_angle_beta                  102.151808
_cell_angle_gamma                 83.394011
_cell_volume                      2461.91123173

loop_
_atom_site_label
_atom_site_type_symbol
_atom_type_description
_atom_site_fract_x
_atom_site_fract_y
_atom_site_fract_z
_atom_type_partial_charge
C1    C     C_R   0.442271 0.689923 0.483969 0.824599
C2    C     C_R   0.452234 0.422798 0.080695 0.100291
C3    C     C_R   0.485660 0.692005 0.051523 0.467152
C4    C     C_R   0.491158 0.687854 0.958366 0.430393
C5    C     C_R   0.490003 0.594317 0.907853 -0.056069
C6    C     C_R   0.470638 0.506515 0.946820 -0.063622
C7    C     C_R   0.458939 0.413529 0.893213 0.019691
C8    C     C_R   0.426819 0.331154 0.932580 0.312742
C9    C     C_R   0.426981 0.336005 0.026292 -0.194702
C10   C     C_R   0.505630 0.587749 0.818228 -0.236508
C11   C     C_R   0.501946 0.496295 0.768098 -0.113668
C12   C     C_R   0.501681 0.498008 0.672363 0.881117
C13   C     C_R   0.481501 0.408108 0.804019 0.264541
C14   C     C_R   0.723654 0.068448 0.578385 0.270761
C15   C     C_R   0.594059 0.204580 0.516120 -0.113374
C16   C     C_R   0.305745 0.835544 0.446758 -0.199831
C17   C     C_R   0.276381 0.938788 0.443708 -0.161150
C18   C     C_R   0.354703 0.005505 0.458740 -0.131990
C19   C     C_R   0.464490 0.969596 0.471378 0.133353
C20   C     C_R   0.495421 0.864955 0.471904 0.114085
C21   C     C_R   0.545497 0.035906 0.491578 -0.003091
C22   C     C_R   0.651366 0.000159 0.533705 0.083372
C23   C     C_R   0.559184 0.310551 0.509542 0.984536
C24   C     C_R   0.683143 0.898305 0.522522 -0.201913
C25   C     C_R   0.607412 0.833828 0.482359 -0.146365
C26   C     C_R   0.526066 0.135699 0.468352 0.193702
C27   C     C_R   0.691517 0.171409 0.573675 -0.209717
C28   C     C_R   0.414345 0.797405 0.464757 -0.088315
C29   C     C_R   0.093372 0.331754 0.386494 0.447909
C30   C     C_R   0.793874 0.643754 0.595164 0.024096
C31   C     C_R   0.890462 0.683428 0.603174 -0.263108
C32   C     C_R   0.970954 0.629092 0.565009 -0.079212
C33   C     C_R   0.962785 0.529176 0.528986 0.052736
C34   C     C_R   0.497715 0.502658 0.327195 0.950660
C35   C     C_R   0.858808 0.494233 0.514316 0.082434
C36   C     C_R   0.048502 0.469158 0.494614 -0.223369
C37   C     C_R   0.027305 0.376412 0.446236 -0.212451
C38   C     C_R   0.936357 0.333079 0.453681 0.519051
C39   C     C_R   0.846662 0.396400 0.467846 0.156664
C40   C     C_R   0.156492 0.492570 0.509227 0.559420
C41   C     C_R   0.184670 0.377339 0.383142 0.224521
C42   C     C_R   0.460614 0.422874 0.174835 -0.169312
C43   C     C_R   0.491048 0.507376 0.230049 -0.121994
C44   C     C_R   0.507022 0.596309 0.192174 0.240938
C45   C     C_R   0.486474 0.601122 0.095587 -0.140841
C46   C     C_R   0.468159 0.510671 0.040725 -0.028461
H1    H     H_    0.448477 0.355307 0.206099 0.211265
H2    H     H_    0.766863 0.869335 0.538267 0.182151
H3    H     H_    0.243022 0.785845 0.438210 0.156194
H4    H     H_    0.328997 0.085374 0.464093 0.160521
H5    H     H_    0.192430 0.967294 0.433513 0.140247
H6    H     H_    0.641167 0.761193 0.460188 0.224650
H7    H     H_    0.729278 0.687142 0.621724 0.148384
H8    H     H_    0.033284 0.670718 0.556244 0.135851
H9    H     H_    0.900877 0.758651 0.634027 0.182562
H10   H     H_    0.519261 0.654018 0.785892 0.184225
H11   H     H_    0.406380 0.271530 0.056837 0.200971
H12   H     H_    0.743326 0.225104 0.612490 0.192314
N1    N     N_R   0.222190 0.444670 0.452360 -0.191420
N2    N     N_R   0.776970 0.554790 0.547140 -0.111679
O1    O     O_R   0.366740 0.627160 0.477250 -0.642657
O2    O     O_R   0.544830 0.662520 0.507680 -0.645017
O3    O     O_R   0.410940 0.482340 0.616930 -0.557305
O4    O     O_R   0.589030 0.517700 0.647360 -0.615714
O5    O     O_R   0.455170 0.337480 0.492320 -0.566879
O6    O     O_R   0.633260 0.372840 0.522750 -0.609661
O7    O     O_R   0.410970 0.482300 0.352640 -0.577641
O8    O     O_R   0.589060 0.517660 0.383070 -0.552578
Zn1   Zn    Zn3+2 0.381090 0.476390 0.479680 1.033577
Zn2   Zn    Zn3+2 0.618910 0.523610 0.520320 0.996718
Br1   Br    Br    0.860651 0.024886 0.653086 -0.552085
Br2   Br    Br    0.439257 0.166571 0.349036 -0.481325
Br3   Br    Br    0.244131 0.355038 0.274800 -0.411960
O9    O     O_3   0.926947 0.232247 0.427494 -0.532906
C47   C     C_3   0.961296 0.176742 0.507270 -0.230466
H13   H     H_    0.911703 0.201465 0.559512 0.178884
H14   H     H_    0.047376 0.183506 0.538167 0.148200
H15   H     H_    0.952340 0.095837 0.487818 0.215915
O10   O     O_3   0.056898 0.258448 0.319743 -0.515001
C48   C     C_3   0.120417 0.165830 0.338669 -0.115750
H16   H     H_    0.074956 0.103816 0.302047 0.194223
H17   H     H_    0.139578 0.150865 0.413378 0.101484
H18   H     H_    0.195551 0.162674 0.312405 0.201398
Br4   Br    Br    0.569756 0.703360 0.272894 -0.460573
O11   O     O_3   0.202192 0.531577 0.596446 -0.569603
C49   C     C_3   0.224523 0.633016 0.596718 -0.188683
H19   H     H_    0.310620 0.640454 0.622913 0.185180
H20   H     H_    0.196828 0.667918 0.528917 0.117587
H21   H     H_    0.186500 0.678491 0.649094 0.141779
Br5   Br    Br    0.732286 0.356011 0.370983 -0.363488
O12   O     O_3   0.479180 0.786061 0.097171 -0.520954
C50   C     C_3   0.372836 0.811511 0.109882 -0.184984
H22   H     H_    0.354295 0.765318 0.162644 0.167425
H23   H     H_    0.312547 0.803045 0.044544 0.110422
H24   H     H_    0.364289 0.891793 0.135139 0.218778
O13   O     O_3   0.507834 0.774421 0.919562 -0.557555
C51   C     C_3   0.408768 0.819309 0.871079 -0.228613
H25   H     H_    0.358556 0.763724 0.827733 0.114250
H26   H     H_    0.425184 0.873605 0.824000 0.211992
H27   H     H_    0.363320 0.862795 0.919513 0.192138
Br6   Br    Br    0.508241 0.282321 0.734749 -0.443846
Br7   Br    Br    0.364381 0.216091 0.865557 -0.400646

loop_
_geom_bond_atom_site_label_1
_geom_bond_atom_site_label_2
_ccdc_geom_bond_type
C16   C28   A    
C7    C13   A    
C21   C26   A    
C26   Br2   S    
C14   Br1   S    
C19   C20   A    
C43   C44   A    
C1    O2    A    
C17   H5    S    
C51   H25   S    
C7    C8    A    
O6    Zn2   S    
C45   C46   A    
C2    C46   A    
C5    C6    A    
C23   O6    A    
C36   C37   A    
C19   C21   A    
C2    C42   A    
C30   C31   A    
C12   O4    A    
C49   H20   S    
C20   C25   A    
C33   C36   A    
O2    Zn2   S    
C3    O12   S    
C18   C19   A    
C4    O13   S    
O3    Zn1   S    
C8    C9    A    
C30   N2    A    
C1    C28   S    
O4    Zn2   S    
C14   C27   A    
C10   H10   S    
C39   Br5   S    
C15   C23   S    
C40   N1    A    
C21   C22   A    
C48   H18   S    
C32   H8    S    
C51   H26   S    
C30   H7    S    
O9    C47   S    
C24   H2    S    
C36   C40   A    
C24   C25   A    
C41   N1    A    
C48   H17   S    
C34   O8    A    
O12   C50   S    
C12   O3    A    
C49   H19   S    
C16   C17   A    
C15   C26   A    
C20   C28   A    
O11   C49   S    
C3    C45   A    
C50   H24   S    
C35   N2    A    
O7    Zn1   S    
C40   O11   S    
C35   C39   A    
C47   H13   S    
C37   C38   A    
C15   C27   A    
C31   C32   A    
C29   O10   S    
N2    Zn2   S    
O13   C51   S    
C50   H23   S    
C17   C18   A    
C16   H3    S    
C47   H14   S    
N1    Zn1   S    
C22   C24   A    
C42   C43   A    
C13   Br6   S    
C3    C4    A    
C51   H27   S    
C44   C45   A    
C18   H4    S    
C38   O9    S    
O1    Zn1   S    
C6    C46   A    
C29   C41   A    
C34   C43   S    
C48   H16   S    
C44   Br4   S    
C49   H21   S    
C1    O1    A    
C34   O7    A    
C11   C12   S    
C6    C7    A    
C32   C33   A    
C14   C22   A    
C25   H6    S    
C5    C10   A    
C11   C13   A    
C23   O5    A    
C38   C39   A    
C27   H12   S    
O5    Zn1   S    
C50   H22   S    
C33   C35   A    
C9    H11   S    
C42   H1    S    
C47   H15   S    
C10   C11   A    
C41   Br3   S    
O10   C48   S    
C4    C5    A    
O8    Zn2   S    
C29   C37   A    
C31   H9    S    
C2    C9    A    
C8    Br7   S    
