data_mof_unit_27729.cif
_audit_creation_date              2012-12-11T15:06:35-0500
_audit_creation_method            fapswitch 2.2
_symmetry_space_group_name_H-M    P1
_symmetry_Int_Tables_number       1
_space_group_crystal_system       triclinic
_cell_length_a                    7.216546
_cell_length_b                    15.228275
_cell_length_c                    22.492538
_cell_angle_alpha                 89.669757
_cell_angle_beta                  89.996309
_cell_angle_gamma                 90.000432
_cell_volume                      2471.78870349

loop_
_atom_site_label
_atom_site_type_symbol
_atom_type_description
_atom_site_fract_x
_atom_site_fract_y
_atom_site_fract_z
_atom_type_partial_charge
O1    O     O_R   0.390810 0.844810 0.447340 -0.534270
O2    O     O_R   0.109190 0.155190 0.947340 -0.537234
O3    O     O_R   0.890810 0.655190 0.552660 -0.534269
O4    O     O_R   0.609190 0.344810 0.052660 -0.537234
O5    O     O_R   0.720550 0.655820 0.440420 -0.541064
O6    O     O_R   0.779450 0.344180 0.940420 -0.539755
O7    O     O_R   0.220550 0.844180 0.559580 -0.541056
O8    O     O_R   0.279450 0.155820 0.059580 -0.539751
C1    C     C_R   0.552552 0.628078 0.426172 0.665560
C2    C     C_R   0.947490 0.377254 0.929584 0.676765
C3    C     C_R   0.052547 0.871922 0.573826 0.665551
C4    C     C_R   0.447485 0.122748 0.070419 0.676763
O9    O     O_R   0.720530 0.844130 0.440420 -0.536554
O10   O     O_R   0.779470 0.155870 0.940420 -0.536551
O11   O     O_R   0.220530 0.655870 0.559580 -0.536544
O12   O     O_R   0.279470 0.344130 0.059580 -0.536553
O13   O     O_R   0.890830 0.844810 0.552660 -0.534143
O14   O     O_R   0.609170 0.155190 0.052660 -0.537310
O15   O     O_R   0.390830 0.655190 0.447340 -0.534136
O16   O     O_R   0.109170 0.344810 0.947340 -0.537315
C5    C     C_R   0.550983 0.867003 0.422096 0.673489
C6    C     C_R   0.947651 0.127098 0.925911 0.690057
C7    C     C_R   0.050972 0.633001 0.577905 0.673482
C8    C     C_R   0.447647 0.372903 0.074089 0.690055
O17   O     O_3   0.557310 0.749980 0.536820 -0.376975
O18   O     O_3   0.942690 0.250020 0.036820 -0.376035
O19   O     O_3   0.057310 0.750020 0.463180 -0.376985
O20   O     O_3   0.442690 0.249980 0.963180 -0.376038
V1    V     V_3+5 0.832160 0.749980 0.493170 1.401585
V2    V     V_3+5 0.667840 0.250020 0.993170 1.407162
V3    V     V_3+5 0.332160 0.750020 0.506830 1.401599
V4    V     V_3+5 0.167840 0.249980 0.006830 1.407175
C9    C     C_R   0.111511 0.597404 0.876164 -0.165309
C10   C     C_R   0.598598 0.401768 0.366100 -0.161544
C11   C     C_R   0.611512 0.902604 0.123837 -0.165305
C12   C     C_R   0.098574 0.098255 0.633885 -0.161522
H1    H     H_    0.106864 0.529658 0.959754 0.107526
H2    H     H_    0.624363 0.460826 0.451647 0.103951
H3    H     H_    0.606833 0.970341 0.040244 0.107523
H4    H     H_    0.124317 0.039198 0.548335 0.103941
H5    H     H_    0.188944 0.651923 0.894492 0.109783
H6    H     H_    0.628351 0.336847 0.383706 0.111682
H7    H     H_    0.688946 0.848087 0.105507 0.109782
H8    H     H_    0.128324 0.163187 0.616272 0.111656
C13   C     C_R   0.962854 0.456984 0.891834 -0.035145
C14   C     C_R   0.549165 0.555412 0.384138 -0.018993
C15   C     C_R   0.462840 0.043018 0.108171 -0.035147
C16   C     C_R   0.049143 0.944589 0.615858 -0.018967
C17   C     C_R   0.956990 0.485782 0.603271 -0.145864
C18   C     C_R   0.440420 0.529662 0.095375 -0.167471
C19   C     C_R   0.456996 0.014222 0.396739 -0.145871
C20   C     C_R   0.940431 0.970332 0.904628 -0.167451
C21   C     C_R   0.880295 0.424271 0.641254 -0.140308
C22   C     C_R   0.454673 0.602695 0.131650 -0.124331
C23   C     C_R   0.380294 0.075731 0.358760 -0.140304
C24   C     C_R   0.954650 0.897294 0.868354 -0.124319
C25   C     C_R   0.877572 0.438565 0.701921 -0.162183
C26   C     C_R   0.483265 0.593105 0.192417 -0.153511
C27   C     C_R   0.377578 0.061440 0.298092 -0.162195
C28   C     C_R   0.983227 0.906886 0.807584 -0.153491
C29   C     C_R   0.964165 0.512628 0.727483 0.053028
C30   C     C_R   0.496006 0.509197 0.219246 0.050580
C31   C     C_R   0.464192 0.987385 0.272526 0.053002
C32   C     C_R   0.995986 0.990802 0.780753 0.050583
C33   C     C_R   0.048337 0.577221 0.688431 0.033268
C34   C     C_R   0.480242 0.432755 0.182065 0.042308
C35   C     C_R   0.548391 0.922803 0.311574 0.033314
C36   C     C_R   0.980238 0.067249 0.817933 0.042267
C37   C     C_R   0.977100 0.521084 0.790987 0.069523
C38   C     C_R   0.524366 0.499290 0.282142 0.075539
C39   C     C_R   0.477121 0.978927 0.209021 0.069520
C40   C     C_R   0.024346 0.000712 0.717855 0.075532
C41   C     C_R   0.075798 0.592593 0.814878 0.117927
C42   C     C_R   0.560362 0.414554 0.305538 0.113724
C43   C     C_R   0.575827 0.907422 0.185126 0.117938
C44   C     C_R   0.060349 0.085460 0.694452 0.113733
C45   C     C_R   0.149155 0.656584 0.777742 -0.233878
C46   C     C_R   0.546569 0.341613 0.269594 -0.226939
C47   C     C_R   0.649229 0.843447 0.222261 -0.233899
C48   C     C_R   0.046571 0.158402 0.730397 -0.226916
C49   C     C_R   0.143271 0.649662 0.715699 0.068400
C50   C     C_R   0.489510 0.348760 0.210463 0.096980
C51   C     C_R   0.643382 0.850384 0.284304 0.068439
C52   C     C_R   0.989515 0.151248 0.789534 0.096983
C53   C     C_R   0.905870 0.457946 0.832055 -0.236907
C54   C     C_R   0.515810 0.569816 0.323221 -0.229088
C55   C     C_R   0.405874 0.042058 0.167955 -0.236909
C56   C     C_R   0.015792 0.930179 0.676778 -0.229115
C57   C     C_R   0.063004 0.528309 0.913682 -0.155081
C58   C     C_R   0.594473 0.471884 0.404970 -0.158561
C59   C     C_R   0.562984 0.971693 0.086320 -0.155076
C60   C     C_R   0.094439 0.028133 0.595017 -0.158553
C61   C     C_R   0.033481 0.564010 0.624688 -0.082084
C62   C     C_R   0.454379 0.444615 0.118796 -0.077761
C63   C     C_R   0.533512 0.936003 0.375318 -0.082098
C64   C     C_R   0.954391 0.055386 0.881204 -0.077764
H9    H     H_    0.812145 0.407622 0.818641 0.117855
H10   H     H_    0.481051 0.635810 0.309646 0.091531
H11   H     H_    0.312147 0.092379 0.181372 0.117854
H12   H     H_    0.981048 0.864176 0.690359 0.091504
H13   H     H_    0.945982 0.474525 0.555817 0.108073
H14   H     H_    0.420740 0.539726 0.048030 0.101551
H15   H     H_    0.445973 0.025472 0.444194 0.108076
H16   H     H_    0.920760 0.960265 0.951975 0.101548
H17   H     H_    0.807429 0.389116 0.727615 0.113480
H18   H     H_    0.498692 0.652968 0.217224 0.109744
H19   H     H_    0.307424 0.110884 0.272400 0.113485
H20   H     H_    0.998629 0.847019 0.782777 0.109732
H21   H     H_    0.816098 0.365913 0.623223 0.117621
H22   H     H_    0.445855 0.667835 0.112278 0.118477
H23   H     H_    0.316080 0.134083 0.376793 0.117621
H24   H     H_    0.945816 0.832147 0.887727 0.118459
H25   H     H_    0.225545 0.710133 0.797916 0.124319
H26   H     H_    0.562794 0.277191 0.289898 0.123714
H27   H     H_    0.725631 0.789904 0.202084 0.124300
H28   H     H_    0.062804 0.222828 0.710090 0.123703
C65   C     C_3   0.266829 0.714673 0.683786 -0.352081
C66   C     C_3   0.456195 0.674028 0.670704 -0.623004
H29   H     H_    0.523887 0.653292 0.712890 0.199690
H30   H     H_    0.443307 0.615688 0.641685 0.225869
H31   H     H_    0.546780 0.723449 0.648956 0.213182
H32   H     H_    0.198546 0.742775 0.644790 0.171035
H33   H     H_    0.292273 0.773616 0.711656 0.161492
C67   C     C_3   0.410315 0.266161 0.184889 -0.359823
C68   C     C_3   0.197988 0.270187 0.184987 -0.689128
H34   H     H_    0.145966 0.266491 0.231421 0.205396
H35   H     H_    0.146781 0.332195 0.164732 0.232426
H36   H     H_    0.138726 0.214617 0.159749 0.216886
H37   H     H_    0.469620 0.251445 0.141497 0.168738
H38   H     H_    0.454067 0.209232 0.212085 0.158979
C69   C     C_3   0.767028 0.785419 0.316214 -0.352239
C70   C     C_3   0.956276 0.826141 0.329328 -0.623153
H39   H     H_    0.023991 0.846922 0.287155 0.199743
H40   H     H_    0.943230 0.884456 0.358352 0.225902
H41   H     H_    0.046911 0.776756 0.351085 0.213227
H42   H     H_    0.698766 0.757260 0.355196 0.171108
H43   H     H_    0.792647 0.726524 0.288332 0.161564
C71   C     C_3   0.910322 0.233846 0.815114 -0.359808
C72   C     C_3   0.697995 0.229816 0.815024 -0.689098
H44   H     H_    0.645970 0.233521 0.768594 0.205383
H45   H     H_    0.646787 0.167803 0.835275 0.232420
H46   H     H_    0.638732 0.285380 0.840271 0.216897
H47   H     H_    0.969632 0.248557 0.858505 0.168731
H48   H     H_    0.954074 0.290778 0.787920 0.158973

loop_
_geom_bond_atom_site_label_1
_geom_bond_atom_site_label_2
_ccdc_geom_bond_type
O17   V3    S    
C25   H17   S    
C26   C30   A    
C23   C27   A    
O19   V1    S    
O13   V1    S    
O3    C7    A    
C10   H6    S    
C48   C52   A    
O15   V3    S    
O1    C5    A    
C11   C43   A    
C36   C64   A    
C32   C36   A    
O9    V1    S    
C9    C57   A    
C71   H47   S    
C17   H13   S    
O4    C8    A    
C72   H46   S    
C19   H15   S    
C49   C65   S    
O1    V3    S    
C30   C38   A    
O2    V4    S    
C50   C67   S    
O3    V1    S    
C38   C42   A    
C12   C44   A    
C66   H29   S    
C1    O15   A    
C20   H16   S    
C48   H28   S    
C2    O16   A    
C70   H39   S    
C19   C63   A    
O2    C6    A    
C68   H36   S    
C16   C56   A    
C37   C41   A    
O14   V2    S    
C11   H7    S    
O5    V1    S    
C28   H20   S    
C40   C44   A    
C34   C62   A    
C12   C60   A    
O11   C7    A    
C52   C71   S    
C1    C14   S    
O12   C8    A    
C35   C63   A    
C3    C16   S    
C46   H26   S    
C15   C59   A    
O10   V2    S    
C4    C15   S    
C45   H25   S    
H3    C59   S    
C40   C56   A    
O16   V4    S    
C55   H11   S    
C31   C35   A    
C39   C43   A    
O7    V3    S    
C30   C34   A    
C67   H38   S    
C36   C52   A    
C69   H42   S    
C21   C25   A    
O18   V4    S    
C18   C62   A    
C5    C63   S    
C27   H19   S    
C7    C61   S    
C26   H18   S    
C22   H22   S    
O8    V4    S    
O7    C3    A    
C65   H32   S    
C10   C58   A    
O5    C1    A    
C69   H43   S    
C8    C62   S    
C34   C50   A    
C46   C50   A    
C33   C49   A    
C45   C49   A    
O8    C4    A    
C2    C13   S    
C47   H27   S    
O9    C5    A    
C18   C22   A    
C35   C51   A    
H4    C60   S    
C25   C29   A    
C56   H12   S    
C10   C42   A    
C39   C55   A    
C9    C41   A    
O6    V2    S    
C31   C39   A    
C18   H14   S    
C16   C60   A    
C68   H34   S    
C12   H8    S    
C69   C70   S    
C38   C54   A    
C37   C53   A    
C22   C26   A    
C29   C37   A    
C3    O13   A    
C13   C57   A    
C23   H23   S    
C6    C64   S    
C44   C48   A    
O6    C2    A    
C72   H44   S    
O11   V3    S    
C14   C58   A    
O12   V4    S    
H2    C58   S    
C27   C31   A    
H1    C57   S    
C13   C53   A    
C28   C32   A    
C9    H5    S    
O10   C6    A    
O20   V2    S    
C51   C69   S    
C65   H33   S    
C71   H48   S    
C65   C66   S    
C47   C51   A    
C72   H45   S    
C70   H41   S    
C17   C21   A    
C33   C61   A    
C24   H24   S    
C67   H37   S    
C20   C64   A    
C19   C23   A    
C32   C40   A    
C54   H10   S    
C66   H30   S    
C53   H9    S    
C71   C72   S    
C29   C33   A    
C24   C28   A    
C70   H40   S    
C42   C46   A    
C4    O14   A    
C68   H35   S    
C41   C45   A    
C21   H21   S    
C17   C61   A    
C43   C47   A    
C66   H31   S    
O4    V2    S    
C20   C24   A    
C15   C55   A    
C67   C68   S    
C14   C54   A    
C11   C59   A    
