data_mof_unit_10468.cif
_audit_creation_date              2012-12-10T20:31:07-0500
_audit_creation_method            fapswitch 2.2
_symmetry_space_group_name_H-M    P1
_symmetry_Int_Tables_number       1
_space_group_crystal_system       triclinic
_cell_length_a                    15.005623
_cell_length_b                    10.70569
_cell_length_c                    9.850482
_cell_angle_alpha                 89.787326
_cell_angle_beta                  90.216666
_cell_angle_gamma                 90.062446
_cell_volume                      1582.41294842

loop_
_atom_site_label
_atom_site_type_symbol
_atom_type_description
_atom_site_fract_x
_atom_site_fract_y
_atom_site_fract_z
_atom_type_partial_charge
C1    C     C_R   0.499204 0.260418 0.500114 0.898479
C2    C     C_R   0.184799 0.471069 0.380283 -0.241488
C3    C     C_R   0.230680 0.499538 0.499802 -0.091983
C4    C     C_R   0.326582 0.499958 0.499877 0.887644
C5    C     C_R   0.185144 0.527178 0.619305 -0.257771
C6    C     C_R   0.546041 0.062665 0.596202 0.118455
C7    C     C_R   0.499454 0.128924 0.497912 -0.143965
C8    C     C_R   0.457918 0.067753 0.389750 -0.221966
C9    C     C_R   0.454364 0.938444 0.387749 0.166789
C10   C     C_R   0.495964 0.872082 0.495584 -0.122742
C11   C     C_R   0.544542 0.935189 0.594794 0.080848
C12   C     C_R   0.907636 0.525783 0.620957 0.131654
C13   C     C_3   0.538880 0.927191 0.746246 -0.474912
C14   C     C_3   0.540269 0.068704 0.747357 -0.459013
C15   C     C_R   0.462864 0.402863 0.071346 0.224201
C16   C     C_R   0.496628 0.739771 0.499247 0.895542
C17   C     C_R   0.543986 0.589656 0.071937 -0.142458
C18   C     C_R   0.544034 0.589609 0.927862 -0.137297
C19   C     C_R   0.463062 0.402729 0.928674 0.214574
C20   C     C_3   0.368401 0.361187 0.921783 -0.502167
C21   C     C_3   0.367847 0.362401 0.075787 -0.513028
C22   C     C_R   0.673378 0.499943 0.500211 0.895361
C23   C     C_R   0.952131 0.443193 0.259712 -0.276512
C24   C     C_R   0.815402 0.525757 0.620439 -0.264488
C25   C     C_R   0.769193 0.499152 0.500502 -0.075463
C26   C     C_R   0.814433 0.471748 0.380511 -0.246984
C27   C     C_R   0.906586 0.470875 0.379381 0.094541
C28   C     C_R   0.953545 0.498211 0.499854 0.059643
C29   C     C_3   0.400713 0.876097 0.276725 -0.855667
C30   C     C_R   0.045055 0.442466 0.258212 0.089105
C31   C     C_R   0.092348 0.470336 0.378196 0.111868
C32   C     C_R   0.046302 0.498266 0.499299 0.016449
C33   C     C_R   0.093009 0.526574 0.620096 0.135459
C34   C     C_R   0.047046 0.554130 0.739642 -0.220967
C35   C     C_R   0.954513 0.553392 0.740217 -0.226088
H1    H     H_    0.779737 0.547570 0.712952 0.158621
H2    H     H_    0.323678 0.435725 0.117592 0.218139
H3    H     H_    0.778023 0.450325 0.288113 0.162364
H4    H     H_    0.359862 0.268059 0.121609 0.194249
H5    H     H_    0.915729 0.422187 0.167232 0.146769
H6    H     H_    0.221334 0.448601 0.289360 0.178649
H7    H     H_    0.221270 0.550029 0.711499 0.154686
H8    H     H_    0.082704 0.576396 0.832291 0.140222
H9    H     H_    0.919673 0.574704 0.833487 0.142433
H10   H     H_    0.424383 0.120954 0.310832 0.160448
H11   H     H_    0.352168 0.809488 0.321638 0.239977
H12   H     H_    0.474772 0.886905 0.782212 0.212452
H13   H     H_    0.362223 0.944978 0.215639 0.219083
H14   H     H_    0.445703 0.826396 0.206006 0.253452
H15   H     H_    0.070899 0.478300 0.060907 0.181836
H16   H     H_    0.070808 0.325181 0.103053 0.192695
H17   H     H_    0.599702 0.885056 0.791932 0.193898
H18   H     H_    0.476814 0.110434 0.783327 0.204762
H19   H     H_    0.601714 0.108202 0.793800 0.201075
H20   H     H_    0.578117 0.663271 0.126256 0.149358
H21   H     H_    0.578356 0.662968 0.873380 0.143694
H22   H     H_    0.323757 0.432629 0.875819 0.217846
H23   H     H_    0.361671 0.265933 0.878475 0.194878
N1    N     N_R   0.499390 0.499140 0.142800 -0.108451
N2    N     N_R   0.499390 0.499180 0.857150 -0.107965
N3    N     N_3   0.091020 0.413901 0.134862 -0.479220
O1    O     O_R   0.500010 0.316790 0.614690 -0.618412
O2    O     O_R   0.500000 0.316760 0.385350 -0.623922
O3    O     O_R   0.367850 0.499990 0.614680 -0.626816
O4    O     O_R   0.367840 0.499950 0.385340 -0.629939
O5    O     O_R   0.500000 0.683240 0.614650 -0.625423
O6    O     O_R   0.499990 0.683210 0.385310 -0.619399
O7    O     O_R   0.632160 0.500050 0.614660 -0.624826
O8    O     O_R   0.632150 0.500010 0.385320 -0.624671
Zn1   Zn    Zn3+2 0.500010 0.500020 0.653130 0.940978
Zn2   Zn    Zn3+2 0.499990 0.499980 0.346870 0.940826

loop_
_geom_bond_atom_site_label_1
_geom_bond_atom_site_label_2
_ccdc_geom_bond_type
C23   H5    S    
C8    C9    A    
C10   C16   S    
C5    H7    S    
C6    C7    A    
O3    Zn1   S    
C19   N2    A    
C6    C14   S    
C13   H17   S    
C9    C10   A    
C4    O3    A    
C22   O8    A    
C31   C32   A    
C21   H4    S    
C5    C33   A    
N2    Zn1   S    
C29   H11   S    
C32   C33   A    
C2    C3    A    
C25   C26   A    
C8    H10   S    
C21   H2    S    
C7    C8    A    
C16   O6    A    
C24   H1    S    
C13   C14   S    
C24   C25   A    
C12   C35   A    
C15   C19   A    
C35   H9    S    
C11   C13   S    
C30   C31   A    
C22   O7    A    
C26   C27   A    
O5    Zn1   S    
C15   C21   S    
C17   N1    A    
C1    O2    A    
C18   N2    A    
C14   H19   S    
O2    Zn2   S    
C17   C18   A    
O6    Zn2   S    
C23   C27   A    
C6    C11   A    
C4    O4    A    
C9    C29   S    
C16   O5    A    
C10   C11   A    
C2    H6    S    
C20   H23   S    
C3    C4    S    
C23   C30   A    
O8    Zn2   S    
C28   C32   A    
C14   H18   S    
C33   C34   A    
C20   C21   S    
O1    Zn1   S    
C1    O1    A    
O7    Zn1   S    
C34   C35   A    
C30   N3    S    
N1    Zn2   S    
C27   C28   A    
C13   H12   S    
H15   N3    S    
C17   H20   S    
C18   H21   S    
C26   H3    S    
C29   H14   S    
C12   C24   A    
C29   H13   S    
C12   C28   A    
C20   H22   S    
C1    C7    S    
C15   N1    A    
C34   H8    S    
C19   C20   S    
O4    Zn2   S    
C2    C31   A    
C3    C5    A    
C22   C25   S    
H16   N3    S    
