data_mof_unit_16676.cif
_audit_creation_date              2012-12-11T15:39:38-0500
_audit_creation_method            fapswitch 2.2
_symmetry_space_group_name_H-M    P1
_symmetry_Int_Tables_number       1
_space_group_crystal_system       triclinic
_cell_length_a                    17.477978
_cell_length_b                    24.630793
_cell_length_c                    15.109886
_cell_angle_alpha                 89.795941
_cell_angle_beta                  125.73965
_cell_angle_gamma                 91.093496
_cell_volume                      5278.58210236

loop_
_atom_site_label
_atom_site_type_symbol
_atom_type_description
_atom_site_fract_x
_atom_site_fract_y
_atom_site_fract_z
_atom_type_partial_charge
C1    C     C_R   0.316513 0.366992 0.905662 0.440022
C2    C     C_R   0.653949 0.351433 0.089595 0.427178
C3    C     C_R   0.824167 0.860613 0.907066 0.375909
C4    C     C_R   0.182258 0.868454 0.089644 0.511124
C5    C     C_R   0.360936 0.673067 0.001925 -0.144336
C6    C     C_R   0.605307 0.687251 0.994940 -0.112663
C7    C     C_R   0.864047 0.174520 0.000830 -0.136169
C8    C     C_R   0.112785 0.185739 0.999011 -0.105413
C9    C     C_R   0.467692 0.499377 0.291576 0.042038
C10   C     C_R   0.436059 0.497602 0.636510 0.003990
C11   C     C_R   0.965396 0.999207 0.289033 0.053851
C12   C     C_R   0.937074 0.997766 0.636635 0.030126
C13   C     C_R   0.205025 0.497366 0.629665 0.037954
C14   C     C_R   0.827666 0.498943 0.304145 0.074661
C15   C     C_R   0.676503 0.998494 0.721892 -0.011240
C16   C     C_R   0.299784 0.999626 0.364371 0.000602
C17   C     C_R   0.082916 0.544829 0.468238 -0.140459
C18   C     C_R   0.984698 0.547272 0.400307 -0.125840
C19   C     C_R   0.551002 0.030938 0.547107 -0.124418
C20   C     C_R   0.458576 0.033363 0.461112 -0.129081
C21   C     C_R   0.126999 0.495868 0.514509 0.110881
C22   C     C_R   0.930561 0.498629 0.367792 0.121213
C23   C     C_R   0.578417 0.000139 0.638095 0.138394
C24   C     C_R   0.391865 0.002192 0.462338 0.127224
C25   C     C_R   0.074664 0.447355 0.471027 -0.141466
C26   C     C_R   0.977297 0.448731 0.399081 -0.130982
C27   C     C_R   0.511389 0.972264 0.644705 -0.154026
C28   C     C_R   0.416866 0.972952 0.555233 -0.143478
C29   C     C_3   0.988043 0.589121 0.329662 0.637107
C30   C     C_3   0.093997 0.580049 0.395176 0.697101
C31   C     C_3   0.481464 0.035407 0.379098 0.667292
C32   C     C_3   0.585005 0.029705 0.476072 0.665926
C33   C     C_R   0.221154 0.715307 0.959484 -0.175642
C34   C     C_R   0.687173 0.776642 0.084667 -0.196583
C35   C     C_R   0.709929 0.200827 0.944226 -0.189939
C36   C     C_R   0.195753 0.274482 0.091257 -0.190250
C37   C     C_R   0.651769 0.237685 0.943477 -0.121678
C38   C     C_R   0.254493 0.312872 0.091871 -0.165329
C39   C     C_R   0.174204 0.760525 0.953624 -0.113592
C40   C     C_R   0.754359 0.809703 0.088678 -0.149007
C41   C     C_R   0.691415 0.286178 0.000135 0.170599
C42   C     C_R   0.241310 0.325787 0.993762 0.156915
C43   C     C_R   0.223631 0.809903 0.992771 0.147864
C44   C     C_R   0.747581 0.818831 0.992588 0.147680
C45   C     C_R   0.433049 0.647400 0.091837 0.417329
C46   C     C_R   0.555315 0.651551 0.907681 0.406634
C47   C     C_R   0.932691 0.147642 0.091139 0.420266
C48   C     C_R   0.059819 0.151085 0.909686 0.390780
C49   C     C_R   0.787204 0.299421 0.055068 -0.141446
C50   C     C_R   0.154709 0.311363 0.895986 -0.093084
C51   C     C_R   0.319233 0.815068 0.036956 -0.097922
C52   C     C_R   0.661778 0.805681 0.892780 -0.108611
C53   C     C_R   0.366128 0.769666 0.040821 -0.083428
C54   C     C_R   0.599210 0.769722 0.891761 -0.084443
C55   C     C_R   0.844964 0.263061 0.053912 -0.077484
C56   C     C_R   0.100267 0.270033 0.897138 -0.091938
C57   C     C_R   0.316429 0.720231 0.002702 0.177589
C58   C     C_R   0.625553 0.745925 0.989942 0.138620
C59   C     C_R   0.805897 0.213921 0.999508 0.159980
C60   C     C_R   0.133535 0.244212 0.995933 0.153522
C61   C     C_R   0.496706 0.532432 0.543089 -0.132756
C62   C     C_R   0.505831 0.532644 0.460094 -0.173968
C63   C     C_R   0.989038 0.035882 0.536185 -0.150201
C64   C     C_R   0.997904 0.035965 0.453025 -0.181722
C65   C     C_R   0.445076 0.500907 0.368117 0.044255
C66   C     C_R   0.428906 0.498960 0.537431 0.038519
C67   C     C_R   0.941819 0.001126 0.364727 0.051707
C68   C     C_R   0.927568 0.998915 0.535725 0.044158
C69   C     C_R   0.369279 0.470306 0.354000 0.186520
C70   C     C_R   0.363519 0.467042 0.443638 0.188163
C71   C     C_R   0.870464 0.967602 0.354216 0.190605
C72   C     C_R   0.867238 0.963498 0.445498 0.129113
C73   C     C_R   0.497291 0.454385 0.266560 -0.123775
C74   C     C_R   0.455575 0.453237 0.700463 -0.122791
C75   C     C_R   0.995505 0.954206 0.264644 -0.143453
C76   C     C_R   0.955512 0.953403 0.700290 -0.113206
C77   C     C_R   0.249407 0.543146 0.692738 -0.123297
C78   C     C_R   0.771578 0.543674 0.277669 -0.092596
C79   C     C_R   0.732784 0.044118 0.752519 -0.066640
C80   C     C_R   0.253673 0.044087 0.305253 -0.080152
C81   C     C_R   0.487765 0.544914 0.255697 -0.122936
C82   C     C_R   0.446496 0.543278 0.694670 -0.017784
C83   C     C_R   0.985798 0.044644 0.253502 -0.131500
C84   C     C_R   0.947717 0.043473 0.695232 0.002501
C85   C     C_R   0.249803 0.453614 0.694714 -0.096502
C86   C     C_R   0.768338 0.454067 0.261360 -0.111775
C87   C     C_R   0.730814 0.953749 0.746103 -0.046741
C88   C     C_R   0.253174 0.954688 0.303341 0.028600
C89   C     C_R   0.338306 0.646224 0.909866 0.133129
C90   C     C_R   0.642013 0.654554 0.087138 0.177618
C91   C     C_R   0.843365 0.148600 0.909571 0.115752
C92   C     C_R   0.146027 0.153170 0.090159 0.191297
C93   C     C_R   0.405088 0.368190 0.088038 -0.144491
C94   C     C_R   0.567279 0.353639 0.907078 -0.173030
C95   C     C_R   0.909705 0.864177 0.088920 -0.154557
C96   C     C_R   0.091637 0.871584 0.906585 -0.176503
C97   C     C_R   0.317224 0.352681 0.995006 -0.065970
C98   C     C_R   0.633343 0.325384 0.998116 -0.056280
C99   C     C_R   0.825627 0.844571 0.996131 -0.027646
C100  C     C_R   0.175709 0.854153 0.997005 -0.093876
H1    H     H_    0.183590 0.676598 0.929983 0.142140
H2    H     H_    0.692539 0.769887 0.158562 0.147028
H3    H     H_    0.680746 0.162126 0.902577 0.129300
H4    H     H_    0.206549 0.266221 0.167102 0.146326
H5    H     H_    0.577129 0.228489 0.900457 0.145608
H6    H     H_    0.312504 0.329214 0.169510 0.110599
H7    H     H_    0.100313 0.756911 0.921596 0.155268
H8    H     H_    0.812676 0.825346 0.166907 0.115494
H9    H     H_    0.816340 0.338122 0.096777 0.130616
H10   H     H_    0.131215 0.329012 0.818825 0.178200
H11   H     H_    0.356659 0.853679 0.068356 0.163430
H12   H     H_    0.644489 0.820579 0.815970 0.170448
H13   H     H_    0.439964 0.772857 0.072669 0.151297
H14   H     H_    0.534899 0.758459 0.814543 0.179701
H15   H     H_    0.919012 0.273075 0.094457 0.160036
H16   H     H_    0.036713 0.256731 0.820879 0.170993
H17   H     H_    0.547084 0.556372 0.615419 0.183294
H18   H     H_    0.563212 0.556349 0.469607 0.164660
H19   H     H_    0.036130 0.062409 0.605430 0.181932
H20   H     H_    0.052029 0.062010 0.460132 0.162145
H21   H     H_    0.504599 0.414085 0.298244 0.107827
H22   H     H_    0.448387 0.410993 0.678149 0.116692
H23   H     H_    0.001598 0.913742 0.295101 0.106713
H24   H     H_    0.946414 0.911244 0.676840 0.119490
H25   H     H_    0.243264 0.582519 0.659242 0.166978
H26   H     H_    0.797873 0.581206 0.321697 0.144347
H27   H     H_    0.708417 0.084630 0.735553 0.143566
H28   H     H_    0.266992 0.083151 0.342359 0.126799
H29   H     H_    0.478138 0.585875 0.270035 0.191501
H30   H     H_    0.420911 0.582683 0.659388 0.184644
H31   H     H_    0.974599 0.085318 0.266641 0.191578
H32   H     H_    0.924810 0.083426 0.661382 0.178277
H33   H     H_    0.245864 0.413326 0.664985 0.163671
H34   H     H_    0.787560 0.412401 0.269655 0.153633
H35   H     H_    0.704716 0.912888 0.720487 0.181793
H36   H     H_    0.263514 0.914086 0.334348 0.162913
H37   H     H_    0.433694 0.356907 0.170339 0.127056
H38   H     H_    0.532997 0.342527 0.822470 0.132922
H39   H     H_    0.938684 0.853409 0.171679 0.128788
H40   H     H_    0.061200 0.862132 0.822266 0.134396
H41   H     H_    0.106729 0.408282 0.501749 0.143734
H42   H     H_    0.939601 0.410224 0.373946 0.138573
H43   H     H_    0.532495 0.948765 0.716086 0.121327
H44   H     H_    0.364490 0.949566 0.556661 0.127730
N1    N     N_R   0.394180 0.396910 0.943210 -0.081618
N2    N     N_R   0.605820 0.396910 0.056790 -0.086583
N3    N     N_R   0.894180 0.896910 0.943210 -0.082214
N4    N     N_R   0.105820 0.896910 0.056790 -0.092861
N5    N     N_R   0.450950 0.603070 0.056740 -0.107939
N6    N     N_R   0.549050 0.603070 0.943260 -0.086322
N7    N     N_R   0.950950 0.103070 0.056740 -0.105805
N8    N     N_R   0.049050 0.103070 0.943260 -0.086422
N9    N     N_R   0.525650 0.471570 0.206150 -0.038938
N10   N     N_R   0.474350 0.471570 0.793850 -0.042658
N11   N     N_R   0.025650 0.971570 0.206150 -0.048035
N12   N     N_R   0.974350 0.971570 0.793850 -0.042199
N13   N     N_R   0.319480 0.528420 0.793810 -0.054403
N14   N     N_R   0.680520 0.528420 0.206190 -0.047043
N15   N     N_R   0.819480 0.028420 0.793810 -0.048246
N16   N     N_R   0.180520 0.028420 0.206190 -0.042361
N17   N     N_R   0.525640 0.528390 0.206120 -0.046369
N18   N     N_R   0.474360 0.528390 0.793880 -0.042451
N19   N     N_R   0.025640 0.028390 0.206120 -0.046695
N20   N     N_R   0.974360 0.028390 0.793880 -0.048328
N21   N     N_R   0.319490 0.471590 0.793840 -0.052048
N22   N     N_R   0.680510 0.471590 0.206160 -0.041987
N23   N     N_R   0.819490 0.971590 0.793840 -0.044632
N24   N     N_R   0.180510 0.971590 0.206160 -0.056321
N25   N     N_R   0.394130 0.603080 0.943110 -0.086500
N26   N     N_R   0.605870 0.603080 0.056890 -0.076057
N27   N     N_R   0.894130 0.103080 0.943110 -0.088773
N28   N     N_R   0.105870 0.103080 0.056890 -0.078387
N29   N     N_R   0.450990 0.396900 0.056840 -0.056509
N30   N     N_R   0.549010 0.396900 0.943160 -0.059090
N31   N     N_R   0.950990 0.896900 0.056840 -0.062117
N32   N     N_R   0.049010 0.896900 0.943160 -0.055245
Ni1   Ni    Ni4+2 0.434860 0.434850 0.869700 0.247611
Ni2   Ni    Ni4+2 0.565140 0.434850 0.130300 0.280818
Ni3   Ni    Ni4+2 0.934860 0.934850 0.869700 0.278765
Ni4   Ni    Ni4+2 0.065140 0.934850 0.130300 0.256824
Ni5   Ni    Ni4+2 0.565130 0.565140 0.130240 0.239817
Ni6   Ni    Ni4+2 0.434870 0.565140 0.869760 0.222535
Ni7   Ni    Ni4+2 0.065130 0.065140 0.130240 0.230062
Ni8   Ni    Ni4+2 0.934870 0.065140 0.869760 0.233769
Cl1   Cl    Cl    0.256632 0.331823 0.780418 -0.684721
Cl2   Cl    Cl    0.697883 0.319352 0.214415 -0.629100
Cl3   Cl    Cl    0.781896 0.819951 0.790644 -0.622157
Cl4   Cl    Cl    0.253568 0.835730 0.215633 -0.588551
Cl5   Cl    Cl    0.919075 0.571727 0.187326 -0.551250
Cl6   Cl    Cl    0.170483 0.637592 0.465263 -0.564268
Cl7   Cl    Cl    0.431313 0.980470 0.281655 -0.538014
Cl8   Cl    Cl    0.662935 0.085543 0.502891 -0.598464
Cl9   Cl    Cl    0.960228 0.654726 0.352803 -0.627523
Cl10  Cl    Cl    0.132045 0.543133 0.325734 -0.613671
Cl11  Cl    Cl    0.453470 0.099424 0.312018 -0.577249
Cl12  Cl    Cl    0.636237 0.966307 0.482470 -0.611145
C101  C     C_3   0.294782 0.444931 0.242857 -0.439308
C102  C     C_3   0.233915 0.488300 0.159241 -0.731537
H45   H     H_    0.198282 0.512157 0.187090 0.304770
H46   H     H_    0.276986 0.516239 0.146225 0.244057
H47   H     H_    0.179270 0.468503 0.080033 0.238257
H48   H     H_    0.328954 0.421218 0.213335 0.183193
H49   H     H_    0.246535 0.416032 0.244313 0.214112
C103  C     C_3   0.288830 0.431768 0.439397 -0.335541
C104  C     C_3   0.311030 0.371265 0.448997 -0.929324
H50   H     H_    0.307070 0.356066 0.377490 0.254267
H51   H     H_    0.382806 0.363418 0.522661 0.259065
H52   H     H_    0.259341 0.347615 0.454670 0.278893
H53   H     H_    0.282075 0.442697 0.505633 0.198929
H54   H     H_    0.218126 0.439053 0.363274 0.241786
C105  C     C_3   0.797211 0.940142 0.244734 -0.424321
C106  C     C_3   0.732214 0.981795 0.159216 -0.790453
H55   H     H_    0.695328 0.004556 0.186848 0.280153
H56   H     H_    0.772452 0.010884 0.143885 0.251905
H57   H     H_    0.678641 0.960596 0.081286 0.241850
H58   H     H_    0.832315 0.917265 0.215444 0.184735
H59   H     H_    0.751505 0.910093 0.248355 0.212185
C107  C     C_3   0.801166 0.922795 0.446358 -0.299367
C108  C     C_3   0.833565 0.864302 0.456243 -0.884689
H60   H     H_    0.831082 0.851582 0.384339 0.248677
H61   H     H_    0.906998 0.859864 0.529552 0.253555
H62   H     H_    0.786880 0.836329 0.463379 0.292771
H63   H     H_    0.796658 0.930562 0.515020 0.250757
H64   H     H_    0.727955 0.927229 0.372493 0.240621
Cl13  Cl    Cl    0.508230 0.678138 0.221133 -0.687321
Cl14  Cl    Cl    0.539213 0.658619 0.782070 -0.676959
Cl15  Cl    Cl    0.002372 0.177400 0.221932 -0.725479
Cl16  Cl    Cl    0.053078 0.156750 0.789176 -0.689517
C109  C     C_3   0.274620 0.667806 0.795678 -0.405106
C110  C     C_3   0.329056 0.682472 0.748735 -0.728648
H65   H     H_    0.385262 0.713110 0.801890 0.232316
H66   H     H_    0.360971 0.645936 0.741574 0.259568
H67   H     H_    0.280699 0.700295 0.666707 0.298301
H68   H     H_    0.215603 0.638888 0.743775 0.206481
H69   H     H_    0.240615 0.705516 0.795007 0.205053
C111  C     C_3   0.734554 0.666102 0.193250 -0.331843
C112  C     C_3   0.725273 0.675488 0.286409 -0.773184
H70   H     H_    0.686889 0.713342 0.273595 0.279823
H71   H     H_    0.686863 0.641005 0.292515 0.272564
H72   H     H_    0.796382 0.679553 0.364625 0.274706
H73   H     H_    0.779266 0.632462 0.205151 0.239314
H74   H     H_    0.776311 0.699245 0.190844 0.235475
C113  C     C_3   0.792638 0.177179 0.800084 -0.425270
C114  C     C_3   0.829203 0.166055 0.732298 -0.702865
H75   H     H_    0.893425 0.191157 0.763927 0.244706
H76   H     H_    0.843455 0.122665 0.731794 0.261713
H77   H     H_    0.776072 0.178837 0.647055 0.289123
H78   H     H_    0.715582 0.169380 0.752210 0.196574
H79   H     H_    0.800188 0.221818 0.814891 0.201204
C115  C     C_3   0.234674 0.163852 0.201931 -0.346955
C116  C     C_3   0.215609 0.181475 0.284252 -0.829094
H80   H     H_    0.173945 0.218877 0.259289 0.280380
H81   H     H_    0.174997 0.149577 0.292592 0.286740
H82   H     H_    0.283572 0.188761 0.365020 0.257190
H83   H     H_    0.276074 0.127000 0.227550 0.239967
H84   H     H_    0.283404 0.192756 0.201140 0.220433

loop_
_geom_bond_atom_site_label_1
_geom_bond_atom_site_label_2
_ccdc_geom_bond_type
N5    Ni5   S    
C29   Cl9   S    
C3    N3    A    
C113  H79   S    
C55   C59   A    
N21   Ni1   S    
C6    C58   S    
C1    N1    A    
C19   C20   A    
C86   N22   A    
C32   Cl12  S    
C29   Cl5   S    
C2    Cl2   S    
C116  H80   S    
N6    Ni6   S    
C34   C58   A    
N6    N26   A    
C104  H50   S    
C111  C112  S    
C2    C98   A    
C39   H7    S    
C12   C68   S    
C74   N10   A    
N4    N32   A    
C34   C40   A    
C15   C87   A    
C85   N21   A    
C35   C37   A    
C38   C42   A    
C35   H3    S    
C69   C70   A    
C79   N15   A    
N8    N28   A    
N12   Ni3   S    
C95   C99   A    
C116  H81   S    
C92   C115  S    
C52   H12   S    
C113  C114  S    
C4    N4    A    
C31   Cl7   S    
C50   H10   S    
C14   C78   A    
N7    N27   A    
C114  H75   S    
C32   Cl8   S    
C110  H67   S    
C35   C59   A    
C111  H74   S    
C109  H68   S    
C95   N31   A    
C13   C85   A    
C114  H76   S    
C83   N19   A    
N9    Ni2   S    
C33   C39   A    
C61   C66   A    
C78   N14   A    
N32   Ni3   S    
C87   N23   A    
C75   H23   S    
C11   C67   S    
C88   N24   A    
C86   H34   S    
C103  H53   S    
C8    C60   S    
C27   H43   S    
C102  H45   S    
N22   Ni2   S    
C23   C27   A    
N15   Ni8   S    
C82   H30   S    
C29   C30   S    
C6    C46   A    
N16   Ni7   S    
C67   C71   A    
C84   N20   A    
C28   H44   S    
C40   H8    S    
C44   C52   A    
C15   C23   S    
C105  H58   S    
C76   N12   A    
C73   H21   S    
N4    Ni4   S    
C112  H70   S    
C69   C101  S    
C17   C30   S    
C61   C62   A    
N3    N31   A    
C9    C73   A    
C19   C32   S    
C7    C59   S    
C93   N29   A    
C53   H13   S    
C9    C65   S    
C10   C66   S    
C70   C103  S    
C105  H59   S    
C13   C77   A    
C45   Cl13  S    
C61   H17   S    
C72   C107  S    
C76   H24   S    
C64   C67   A    
C87   H35   S    
N27   Ni8   S    
C107  H63   S    
C93   H37   S    
C43   C100  S    
C14   C86   A    
C91   C113  S    
C42   C97   S    
N13   N21   A    
C108  H60   S    
C53   C57   A    
C20   C31   S    
C116  H82   S    
C39   C43   A    
C54   H14   S    
C82   N18   A    
C12   C84   A    
N11   N19   A    
C115  C116  S    
N24   Ni4   S    
C5    C45   A    
C84   H32   S    
C110  H65   S    
C17   C21   A    
C56   C60   A    
N9    N17   A    
C51   C53   A    
C7    C47   A    
C111  H73   S    
C109  H69   S    
C19   C23   A    
C8    C48   A    
C37   H5    S    
C109  C110  S    
N20   Ni8   S    
C3    C99   A    
C108  H61   S    
C63   H19   S    
C30   Cl10  S    
C81   H29   S    
C105  C106  S    
C106  H57   S    
C68   C72   A    
C7    C91   A    
C38   H6    S    
C90   N26   A    
C102  H47   S    
C17   C18   A    
C56   H16   S    
C90   C111  S    
C101  H48   S    
C18   C29   S    
C34   H2    S    
C103  C104  S    
C110  H66   S    
N30   Ni1   S    
C88   H36   S    
C42   C50   A    
C8    C92   A    
C46   N6    A    
N1    N29   A    
N23   Ni3   S    
C73   N9    A    
C71   C105  S    
C91   N27   A    
C112  H71   S    
C48   N8    A    
C94   H38   S    
N5    N25   A    
C112  H72   S    
N8    Ni8   S    
N13   Ni6   S    
C1    C97   A    
C78   H26   S    
C93   C97   A    
C89   C109  S    
C77   H25   S    
N11   Ni4   S    
N14   N22   A    
C49   H9    S    
C54   C58   A    
C104  H52   S    
C115  H83   S    
C48   Cl16  S    
C21   C25   A    
C63   C68   A    
C33   C57   A    
C96   N32   A    
C62   C65   A    
C74   H22   S    
C18   C22   A    
C81   N17   A    
N7    Ni7   S    
C94   N30   A    
C31   C32   S    
C25   H41   S    
C24   C28   A    
C47   N7    A    
C102  H46   S    
C36   C60   A    
C49   C55   A    
C3    Cl3   S    
N10   N18   A    
C96   H40   S    
C10   C82   A    
C75   N11   A    
N18   Ni6   S    
N31   Ni4   S    
N1    Ni1   S    
C15   C79   A    
C2    N2    A    
C41   C49   A    
C80   H28   S    
C96   C100  A    
C95   H39   S    
C51   H11   S    
C64   H20   S    
C114  H77   S    
C5    C57   S    
C36   H4    S    
C11   C83   A    
C1    Cl1   S    
C14   C22   S    
C33   H1    S    
C12   C76   A    
C83   H31   S    
C25   C26   A    
C79   H27   S    
C71   C72   A    
N26   Ni5   S    
C6    C90   A    
C13   C21   S    
C108  H62   S    
C31   Cl11  S    
C10   C74   A    
N28   Ni7   S    
C43   C51   A    
C107  C108  S    
C66   C70   A    
C115  H84   S    
C55   H15   S    
N29   Ni2   S    
C92   N28   A    
C65   C69   A    
N2    N30   A    
C30   Cl6   S    
C36   C38   A    
C44   C99   S    
N15   N23   A    
C52   C54   A    
C101  H49   S    
C45   N5    A    
C107  H64   S    
N16   N24   A    
N19   Ni7   S    
C37   C41   A    
C101  C102  S    
N14   Ni5   S    
C50   C56   A    
N25   Ni6   S    
C62   H18   S    
C103  H54   S    
C80   N16   A    
C106  H56   S    
C89   N25   A    
C63   C64   A    
N3    Ni3   S    
C40   C44   A    
C46   Cl14  S    
C47   Cl15  S    
C106  H55   S    
N12   N20   A    
C16   C24   S    
C113  H78   S    
C22   C26   A    
N10   Ni1   S    
C85   H33   S    
C27   C28   A    
C16   C88   A    
C94   C98   A    
C41   C98   S    
C77   N13   A    
C11   C75   A    
C16   C80   A    
C26   H42   S    
C104  H51   S    
C20   C24   A    
N17   Ni5   S    
C5    C89   A    
C4    Cl4   S    
C9    C81   A    
C4    C100  A    
N2    Ni2   S    
