data_mof_unit_40201.cif
_audit_creation_date              2012-10-26T21:08:07-0400
_audit_creation_method            fapswitch 2.2
_symmetry_space_group_name_H-M    P1
_symmetry_Int_Tables_number       1
_space_group_crystal_system       triclinic
_cell_length_a                    15.844562
_cell_length_b                    10.854432
_cell_length_c                    9.61731
_cell_angle_alpha                 89.268736
_cell_angle_beta                  88.942267
_cell_angle_gamma                 92.919427
_cell_volume                      1651.43708265

loop_
_atom_site_label
_atom_site_type_symbol
_atom_type_description
_atom_site_fract_x
_atom_site_fract_y
_atom_site_fract_z
_atom_type_partial_charge
C1    C     C_R   0.501871 0.261951 0.502317 0.550048
C2    C     C_R   0.453579 0.040844 0.886366 -0.137288
C3    C     C_R   0.416088 0.923892 0.869366 -0.112342
C4    C     C_R   0.339987 0.499703 0.501071 0.549110
C5    C     C_R   0.420266 0.868175 0.740146 -0.086067
C6    C     C_R   0.461302 0.930180 0.625202 0.026077
C7    C     C_R   0.483734 0.057127 0.635454 0.026769
C8    C     C_R   0.501216 0.126577 0.509436 -0.006997
C9    C     C_R   0.508905 0.064698 0.383299 -0.167172
C10   C     C_R   0.502112 0.937592 0.380034 -0.170303
C11   C     C_R   0.481635 0.869154 0.500837 -0.010475
C12   C     C_3   0.082986 0.502342 0.502385 0.080584
C13   C     C_R   0.589863 0.699302 0.130969 0.048396
C14   C     C_R   0.598022 0.809141 0.052315 -0.154646
C15   C     C_R   0.607974 0.800277 0.910035 -0.172216
C16   C     C_R   0.492337 0.736263 0.499802 0.526726
C17   C     C_R   0.591801 0.687223 0.848436 -0.080651
C18   C     C_R   0.545720 0.591927 0.921601 0.139520
C19   C     C_R   0.545464 0.594320 0.070777 0.158101
C20   C     C_R   0.456162 0.412249 0.076510 -0.012032
C21   C     C_R   0.455552 0.413028 0.928878 -0.021226
C22   C     C_R   0.659965 0.499257 0.499058 0.533466
C23   C     C_3   0.974119 0.612957 0.538205 -0.105315
C24   C     C_3   0.967152 0.414211 0.590436 -0.105350
C25   C     C_3   0.024449 0.392512 0.462846 0.298989
C26   C     C_1   0.250267 0.500585 0.503258 -0.022507
C27   C     C_1   0.749714 0.499528 0.496985 -0.047337
C28   C     C_3   0.026126 0.526587 0.629732 -0.145764
C29   C     C_3   0.989726 0.194335 0.392852 -0.008370
C30   C     C_3   0.025168 0.070798 0.356711 -0.370119
C31   C     C_3   0.668021 0.686073 0.215981 -0.336429
C32   C     C_3   0.069244 0.686514 0.312273 -0.412280
C33   C     C_3   0.916976 0.500552 0.497805 0.000121
C34   C     C_3   0.031897 0.587432 0.411817 -0.001880
C35   C     C_3   0.973386 0.476595 0.369238 -0.089794
C36   C     C_1   0.174699 0.501443 0.503598 -0.021137
C37   C     C_1   0.825319 0.499966 0.496666 -0.070929
C38   C     C_R   0.487700 0.106756 0.771419 -0.111554
Cu1   Cu    Cu3+1 0.499990 0.499990 0.640660 0.912467
Cu2   Cu    Cu3+1 0.500010 0.500010 0.359340 0.932493
H1    H     H_    0.386812 0.874273 0.957485 0.117987
H2    H     H_    0.950946 0.456493 0.262828 0.093317
H3    H     H_    0.951963 0.704469 0.568312 0.109484
H4    H     H_    0.048955 0.547515 0.735712 0.109303
H5    H     H_    0.522402 0.114466 0.286397 0.131658
H6    H     H_    0.520792 0.192664 0.794597 0.147294
H7    H     H_    0.455804 0.081137 0.988750 0.101178
H8    H     H_    0.954685 0.227427 0.301529 0.123322
H9    H     H_    0.945276 0.179380 0.483194 0.121996
H10   H     H_    0.059760 0.034342 0.446516 0.158665
H11   H     H_    0.972796 0.003517 0.330985 0.086019
H12   H     H_    0.390384 0.776906 0.731136 0.144895
H13   H     H_    0.069096 0.081886 0.265562 0.160624
H14   H     H_    0.694400 0.594658 0.198875 0.150431
H15   H     H_    0.721074 0.751526 0.182020 0.084330
H16   H     H_    0.655656 0.708786 0.326156 0.158192
H17   H     H_    0.017527 0.734303 0.261389 0.125644
H18   H     H_    0.108870 0.754691 0.370517 0.132315
H19   H     H_    0.108780 0.643618 0.231643 0.140091
H20   H     H_    0.513512 0.892839 0.282457 0.141458
H21   H     H_    0.419916 0.340405 0.133465 0.120341
H22   H     H_    0.621883 0.893868 0.099473 0.110671
H23   H     H_    0.634371 0.878142 0.849306 0.125064
H24   H     H_    0.615122 0.678909 0.744348 0.180560
H25   H     H_    0.418260 0.342379 0.876195 0.118888
H26   H     H_    0.939235 0.342567 0.663395 0.099711
N1    N     N_R   0.500800 0.501210 0.147910 -0.238268
N2    N     N_R   0.500830 0.501290 0.852040 -0.246380
O1    O     O_R   0.499990 0.319640 0.618810 -0.514583
O2    O     O_R   0.500000 0.319660 0.381240 -0.504725
O3    O     O_R   0.379070 0.499980 0.618770 -0.497908
O4    O     O_R   0.379080 0.500000 0.381190 -0.488231
O5    O     O_R   0.500000 0.680340 0.618760 -0.530102
O6    O     O_R   0.500010 0.680360 0.381190 -0.502606
O7    O     O_R   0.620920 0.500000 0.618810 -0.511803
O8    O     O_R   0.620930 0.500020 0.381230 -0.508879
O9    O     O_3   0.056942 0.278714 0.425079 -0.552639

loop_
_geom_bond_atom_site_label_1
_geom_bond_atom_site_label_2
_ccdc_geom_bond_type
C30   H11   S    
C9    H5    S    
C1    C8    S    
Cu1   N2    S    
C20   N1    A    
C32   H18   S    
C7    C8    A    
C29   H9    S    
Cu2   O2    S    
C12   C28   S    
C16   O6    A    
C32   H17   S    
C18   C19   A    
C17   H24   S    
C5    C6    A    
C18   N2    A    
C14   H22   S    
C23   H3    S    
C34   C35   S    
C20   H21   S    
C35   H2    S    
C8    C9    A    
C23   C33   S    
Cu2   N1    S    
C5    H12   S    
C19   N1    A    
Cu1   O7    S    
C31   H16   S    
C12   C36   S    
C9    C10   A    
C24   H26   S    
C30   H10   S    
C13   C14   A    
C22   O7    A    
C22   O8    A    
C30   H13   S    
C13   C19   A    
C29   H8    S    
C16   O5    A    
C24   C28   S    
C24   C25   S    
C6    C11   A    
C28   H4    S    
C33   C37   S    
Cu2   O8    S    
C32   C34   S    
C10   H20   S    
C29   C30   S    
C11   C16   S    
C2    C38   A    
C23   C34   S    
C17   C18   A    
Cu1   O1    S    
C23   C28   S    
C25   C35   S    
C26   C36   T    
C22   C27   S    
C21   N2    A    
C25   O9    S    
C12   C34   S    
C4    O4    A    
C15   C17   A    
C3    H1    S    
C15   H23   S    
Cu2   O4    S    
C21   H25   S    
C13   C31   S    
C1    O2    A    
C3    C5    A    
C4    C26   S    
C6    C7    A    
C2    H7    S    
C24   C33   S    
C12   C25   S    
C2    C3    A    
C27   C37   T    
C33   C35   S    
C7    C38   A    
Cu2   O6    S    
Cu1   O5    S    
C31   H14   S    
C1    O1    A    
C38   H6    S    
C10   C11   A    
Cu1   Cu2   S    
C29   O9    S    
C20   C21   A    
Cu1   O3    S    
C14   C15   A    
C32   H19   S    
C31   H15   S    
C4    O3    A    
