data_mof_unit_29015.cif
_audit_creation_date              2012-10-26T18:29:52-0400
_audit_creation_method            fapswitch 2.2
_symmetry_space_group_name_H-M    P1
_symmetry_Int_Tables_number       1
_space_group_crystal_system       triclinic
_cell_length_a                    10.928653
_cell_length_b                    13.10611
_cell_length_c                    11.855808
_cell_angle_alpha                 100.414553
_cell_angle_beta                  94.541254
_cell_angle_gamma                 92.457645
_cell_volume                      1662.07834431

loop_
_atom_site_label
_atom_site_type_symbol
_atom_type_description
_atom_site_fract_x
_atom_site_fract_y
_atom_site_fract_z
_atom_type_partial_charge
C1    C     C_R   0.494801 0.299068 0.478035 0.547691
C2    C     C_R   0.529840 0.029990 0.546510 0.057435
C3    C     C_R   0.445630 0.968462 0.460439 -0.026615
C4    C     C_R   0.260655 0.506426 0.499905 0.632651
C5    C     C_R   0.423844 0.861662 0.463453 0.037937
C6    C     C_R   0.581991 0.876011 0.623891 0.055135
C7    C     C_R   0.589739 0.984617 0.633852 0.276033
C8    C     C_R   0.393424 0.390406 0.020619 0.211097
C9    C     C_R   0.397503 0.406845 0.143430 0.351936
C10   C     C_R   0.541129 0.550027 0.157969 0.218662
C11   C     C_R   0.536977 0.539431 0.035431 -0.039700
C12   C     C_3   0.878465 0.501411 0.499850 0.125991
C13   C     C_R   0.462062 0.459305 0.965396 -0.021219
C14   C     C_R   0.458302 0.449374 0.842254 0.229509
C15   C     C_R   0.599908 0.595500 0.860517 0.367490
C16   C     C_R   0.501496 0.700483 0.522156 0.548283
C17   C     C_R   0.606904 0.607591 0.981887 0.285403
C18   C     C_R   0.739811 0.498779 0.499979 0.616396
C19   C     C_3   0.075269 0.412728 0.554423 0.200174
C20   C     C_3   0.929067 0.404925 0.548784 0.384119
C21   C     C_3   0.081009 0.616310 0.568979 0.296569
C22   C     C_3   0.061014 0.497469 0.367261 0.296204
C23   C     C_3   0.937183 0.605465 0.581545 0.402234
C24   C     C_3   0.121845 0.508887 0.497929 0.113415
C25   C     C_3   0.915540 0.497848 0.370675 0.304280
C26   C     C_R   0.502056 0.814339 0.536793 0.035953
C27   C     C_R   0.483736 0.184541 0.465741 -0.030265
C28   C     C_R   0.387674 0.015818 0.372876 0.150068
C29   C     C_R   0.402985 0.122846 0.378762 0.091848
C30   C     C_R   0.552918 0.136309 0.544379 0.090060
Cu1   Cu    Cu3+1 0.509350 0.507730 0.615930 0.962920
Cu2   Cu    Cu3+1 0.490650 0.492270 0.384070 1.029200
H1    H     H_    0.111409 0.359739 0.709291 0.266147
H2    H     H_    0.232475 0.933825 0.289897 0.261631
H3    H     H_    0.368870 0.894421 0.235836 0.265157
H4    H     H_    0.674847 0.010114 0.790148 0.325560
H5    H     H_    0.398170 0.192605 0.240776 0.283602
H6    H     H_    0.286357 0.227282 0.332985 0.294397
H7    H     H_    0.707866 0.227885 0.558444 0.244263
H8    H     H_    0.629687 0.246520 0.678995 0.261160
H9    H     H_    0.451200 0.301196 0.753881 0.247980
H10   H     H_    0.343618 0.376791 0.701933 0.304820
H11   H     H_    0.074590 0.283863 0.416630 0.294339
H12   H     H_    0.085954 0.484894 0.730338 0.326657
H13   H     H_    0.121239 0.257504 0.543880 0.221873
H14   H     H_    0.674218 0.640685 0.734499 0.406546
H15   H     H_    0.326955 0.247913 0.995189 0.327758
H16   H     H_    0.713383 0.736501 0.005470 0.368333
H17   H     H_    0.246319 0.323473 0.144556 0.329388
H18   H     H_    0.655235 0.625498 0.297009 0.322655
H19   H     H_    0.540191 0.697416 0.247485 0.250932
H20   H     H_    0.903366 0.253534 0.516643 0.337347
H21   H     H_    0.808911 0.371720 0.655835 0.360396
H22   H     H_    0.116595 0.709761 0.730892 0.229607
H23   H     H_    0.917680 0.649489 0.363564 0.403621
H24   H     H_    0.241316 0.670157 0.671890 0.256945
H25   H     H_    0.916517 0.673349 0.741206 0.355912
H26   H     H_    0.193423 0.573881 0.285209 0.271430
H27   H     H_    0.052815 0.579122 0.231577 0.245678
H28   H     H_    0.071048 0.403258 0.219445 0.325202
H29   H     H_    0.853115 0.418043 0.206966 0.252356
H30   H     H_    0.896268 0.336947 0.294206 0.278501
H31   H     H_    0.093100 0.764512 0.557619 0.354360
H32   H     H_    0.794996 0.692080 0.573395 0.342467
H33   H     H_    0.240344 0.841316 0.432826 0.251764
H34   H     H_    0.305400 0.729581 0.414755 0.284775
H35   H     H_    0.749743 0.854783 0.700422 0.255540
H36   H     H_    0.629651 0.845907 0.782853 0.257366
N1    N     N_R   0.523430 0.519360 0.790130 -0.276531
N2    N     N_3   0.124651 0.315754 0.494284 -0.587925
N3    N     N_3   0.603694 0.641355 0.225907 -0.494248
N4    N     N_3   0.151892 0.644468 0.682849 -0.591472
N5    N     N_3   0.104879 0.582935 0.310374 -0.548314
N6    N     N_3   0.853646 0.406183 0.291969 -0.508197
N7    N     N_R   0.476570 0.480640 0.209880 -0.233004
N8    N     N_3   0.127152 0.427436 0.676148 -0.554235
N9    N     N_3   0.316540 0.805012 0.399674 -0.629452
N10   N     N_3   0.658364 0.827396 0.699949 -0.622439
N11   N     N_3   0.319806 0.957428 0.271148 -0.565636
N12   N     N_3   0.335372 0.166421 0.292639 -0.564896
N13   N     N_3   0.657593 0.191647 0.612351 -0.535872
N14   N     N_3   0.391232 0.360146 0.774483 -0.515505
O1    O     O_R   0.506640 0.354460 0.582000 -0.551756
O2    O     O_3   0.105655 0.696831 0.507972 -0.715784
O3    O     O_3   0.880785 0.693470 0.552055 -0.722745
O4    O     O_3   0.657055 0.047823 0.726362 -0.662472
O5    O     O_3   0.677751 0.660809 0.817442 -0.713378
O6    O     O_3   0.322550 0.307856 0.954908 -0.680332
O7    O     O_3   0.687327 0.683213 0.049406 -0.643205
O8    O     O_3   0.317712 0.353372 0.198720 -0.664061
O9    O     O_3   0.879552 0.311859 0.478016 -0.761443
O10   O     O_3   0.892189 0.405713 0.660983 -0.653909
O11   O     O_3   0.916793 0.601358 0.697076 -0.646256
O12   O     O_R   0.490840 0.341410 0.386200 -0.454334
O13   O     O_3   0.095585 0.403892 0.302042 -0.710582
O14   O     O_R   0.325590 0.506510 0.597900 -0.505787
O15   O     O_R   0.309790 0.493450 0.402100 -0.438492
O16   O     O_R   0.509160 0.658590 0.613800 -0.506938
O17   O     O_R   0.493360 0.645540 0.418000 -0.553564
O18   O     O_R   0.690210 0.506550 0.597900 -0.515484
O19   O     O_R   0.674410 0.493490 0.402100 -0.460236
O20   O     O_3   0.868378 0.584843 0.329776 -0.678871

loop_
_geom_bond_atom_site_label_1
_geom_bond_atom_site_label_2
_ccdc_geom_bond_type
Cu2   O12   S    
C8    C13   A    
C27   C29   A    
C22   O13   S    
C2    C7    A    
H10   N14   S    
H17   O8    S    
Cu2   N7    S    
C20   O10   S    
C12   C23   S    
C18   O18   A    
C28   C29   A    
C4    C24   S    
C25   O20   S    
C6    N10   S    
C7    O4    S    
Cu1   O14   S    
Cu1   O1    S    
Cu2   O15   S    
C25   N6    S    
Cu1   O16   S    
H12   N8    S    
C28   N11   S    
C4    O14   A    
C11   C17   A    
C19   C20   S    
C1    O12   A    
H24   N4    S    
C22   C25   S    
H27   N5    S    
C10   N3    S    
H25   O11   S    
C13   C14   A    
C27   C30   A    
H36   N10   S    
C19   N8    S    
H35   N10   S    
H19   N3    S    
C20   O9    S    
C16   C26   S    
C15   N1    A    
H5    N12   S    
H33   N9    S    
C21   N4    S    
C17   O7    S    
H7    N13   S    
C8    C9    A    
H4    O4    S    
C23   O11   S    
C8    O6    S    
C18   O19   A    
H18   N3    S    
C4    O15   A    
H2    N11   S    
C10   N7    A    
H1    N8    S    
Cu1   Cu2   S    
H23   O20   S    
C21   O2    S    
C12   C20   S    
H21   O10   S    
Cu1   O18   S    
H11   N2    S    
H16   O7    S    
C21   C23   S    
C14   N1    A    
C22   C24   S    
C14   N14   S    
C5    N9    S    
H32   O3    S    
C15   O5    S    
H14   O5    S    
C15   C17   A    
H34   N9    S    
C3    C28   A    
H13   N2    S    
H8    N13   S    
C3    C5    A    
C9    O8    S    
C16   O17   A    
C6    C7    A    
H29   N6    S    
C1    O1    A    
H31   O2    S    
Cu2   O17   S    
C12   C25   S    
C2    C30   A    
H15   O6    S    
C30   N13   S    
C2    C3    A    
C11   C13   A    
C16   O16   A    
C6    C26   A    
C29   N12   S    
H6    N12   S    
H9    N14   S    
H3    N11   S    
C19   C24   S    
C10   C11   A    
C5    C26   A    
H28   O13   S    
Cu1   N1    S    
H22   N4    S    
C23   O3    S    
C21   C24   S    
C12   C18   S    
C1    C27   S    
Cu2   O19   S    
H30   N6    S    
H20   O9    S    
C9    N7    A    
C22   N5    S    
C19   N2    S    
H26   N5    S    
