data_mof_unit_35502.cif
_audit_creation_date              2012-12-10T17:33:52-0500
_audit_creation_method            fapswitch 2.2
_symmetry_space_group_name_H-M    P1
_symmetry_Int_Tables_number       1
_space_group_crystal_system       triclinic
_cell_length_a                    10.692009
_cell_length_b                    12.012569
_cell_length_c                    12.926514
_cell_angle_alpha                 93.115942
_cell_angle_beta                  91.458006
_cell_angle_gamma                 86.869325
_cell_volume                      1654.91265712

loop_
_atom_site_label
_atom_site_type_symbol
_atom_type_description
_atom_site_fract_x
_atom_site_fract_y
_atom_site_fract_z
_atom_type_partial_charge
C1    C     C_R   0.496607 0.521472 0.700154 0.867989
C2    C     C_R   0.514009 0.445435 0.974162 0.024992
C3    C     C_R   0.512668 0.552965 0.024613 0.009416
C4    C     C_R   0.742513 0.500754 0.500925 0.855297
C5    C     C_R   0.526149 0.563484 0.131438 0.380093
C6    C     C_R   0.518079 0.361126 0.138646 -0.404674
C7    C     C_R   0.522000 0.348574 0.030842 0.482611
C8    C     C_R   0.404904 0.952394 0.386864 -0.508101
C9    C     C_R   0.409959 0.834853 0.398585 0.684270
C10   C     C_R   0.531514 0.861686 0.555160 -0.063520
C11   C     C_R   0.531291 0.978081 0.543324 0.022240
C12   C     C_3   0.122679 0.502746 0.513601 -0.088525
C13   C     C_R   0.466959 0.023348 0.458197 0.044173
C14   C     C_R   0.463215 0.140023 0.448265 -0.017521
C15   C     C_R   0.589374 0.165072 0.600336 0.028441
C16   C     C_R   0.505745 0.478789 0.299650 0.930038
C17   C     C_R   0.594695 0.050589 0.613950 -0.313489
C18   C     C_R   0.258976 0.501300 0.510049 0.837394
C19   C     C_3   0.932838 0.422421 0.587350 -0.491335
C20   C     C_3   0.077546 0.407551 0.579998 -0.241827
C21   C     C_3   0.935431 0.457737 0.396789 -0.147404
C22   C     C_3   0.922222 0.622964 0.532025 0.325755
C23   C     C_3   0.075922 0.481860 0.399496 -0.333765
C24   C     C_3   0.879608 0.501969 0.502917 -0.103896
C25   C     C_3   0.151150 0.785656 0.615168 0.127414
C26   C     C_3   0.161672 0.904081 0.581292 -0.835710
C27   C     C_2   0.865725 0.500038 0.301807 0.468925
C28   C     C_3   0.654678 0.706315 0.177133 0.139468
C29   C     C_3   0.648764 0.833413 0.178832 -0.899075
C30   C     C_3   0.611594 0.168835 0.016255 0.105994
C31   C     C_3   0.634182 0.073949 0.934955 -0.841765
C32   C     C_3   0.296960 0.797340 0.240419 0.172061
C33   C     C_3   0.162861 0.846668 0.246332 -0.903975
C34   C     C_3   0.062648 0.616685 0.561835 0.315515
C35   C     C_2   0.584605 0.818280 0.652295 0.425934
C36   C     C_2   0.143733 0.401636 0.685519 0.373274
C37   C     C_3   0.845432 0.796720 0.472770 0.227431
C38   C     C_3   0.881493 0.880171 0.396169 -0.879799
C39   C     C_R   0.517923 0.467511 0.188485 -0.221191
C40   C     C_R   0.495597 0.533335 0.811092 -0.060934
C41   C     C_R   0.494561 0.648885 0.967654 -0.165250
C42   C     C_R   0.485290 0.638930 0.861232 -0.192142
C43   C     C_R   0.507212 0.437003 0.867230 -0.187728
H1    H     H_    0.894250 0.338210 0.577299 0.207439
H2    H     H_    0.351368 0.990463 0.324922 0.163920
H3    H     H_    0.648999 0.020071 0.679249 0.138197
H4    H     H_    0.100097 0.325779 0.537925 0.163478
H5    H     H_    0.928284 0.365420 0.390351 0.115316
H6    H     H_    0.128899 0.409474 0.360682 0.147758
H7    H     H_    0.871024 0.655918 0.602160 0.080323
H8    H     H_    0.070485 0.610726 0.647842 0.019078
H9    H     H_    0.243228 0.755125 0.647728 0.148236
H10   H     H_    0.080418 0.790405 0.677436 0.106768
H11   H     H_    0.067308 0.946964 0.576082 0.229557
H12   H     H_    0.094195 0.556836 0.356399 0.265195
H13   H     H_    0.219453 0.952011 0.638729 0.210527
H14   H     H_    0.205117 0.903231 0.504619 0.277774
H15   H     H_    0.767834 0.483183 0.289918 0.005381
H16   H     H_    0.706724 0.674202 0.106935 0.156091
H17   H     H_    0.707734 0.679923 0.247248 0.198507
H18   H     H_    0.616051 0.868713 0.255170 0.255235
H19   H     H_    0.742997 0.863259 0.165039 0.222693
H20   H     H_    0.583776 0.864149 0.117137 0.246128
H21   H     H_    0.581205 0.132259 0.088076 0.144849
H22   H     H_    0.702056 0.209533 0.031697 0.141461
H23   H     H_    0.511638 0.288143 0.183352 0.183426
H24   H     H_    0.666764 0.107452 0.862510 0.248600
H25   H     H_    0.706847 0.012892 0.963815 0.212358
H26   H     H_    0.546267 0.030541 0.918013 0.254618
H27   H     H_    0.294764 0.722848 0.185803 0.201835
H28   H     H_    0.360690 0.854078 0.205217 0.129611
H29   H     H_    0.156673 0.920922 0.301030 0.241321
H30   H     H_    0.129740 0.871835 0.168491 0.221841
H31   H     H_    0.101032 0.782934 0.272627 0.310239
H32   H     H_    0.552191 0.855556 0.725790 0.027052
H33   H     H_    0.243803 0.381709 0.689706 0.096861
H34   H     H_    0.486204 0.731736 0.004718 0.168169
H35   H     H_    0.873364 0.829337 0.551863 0.136742
H36   H     H_    0.742745 0.791379 0.466834 0.179531
H37   H     H_    0.867333 0.845618 0.315793 0.271967
H38   H     H_    0.823227 0.959081 0.407735 0.208738
H39   H     H_    0.981243 0.898492 0.408139 0.273608
H40   H     H_    0.471051 0.713626 0.818569 0.146331
H41   H     H_    0.511882 0.355138 0.827503 0.201929
H42   H     H_    0.411453 0.177161 0.384596 0.123325
H43   H     H_    0.902614 0.458382 0.664387 0.224840
H44   H     H_    0.637088 0.220283 0.655194 0.134802
N1    N     N_R   0.523380 0.207800 0.519350 -0.107338
N2    N     N_R   0.476620 0.792180 0.480650 -0.155870
O1    O     O_R   0.506240 0.421700 0.658830 -0.651188
O2    O     O_2   0.917668 0.549478 0.236323 -0.585902
O3    O     O_3   0.531639 0.669167 0.179867 -0.621922
O4    O     O_3   0.516783 0.244229 0.979156 -0.613995
O5    O     O_3   0.339577 0.760272 0.337903 -0.550191
O6    O     O_2   0.670447 0.747599 0.652147 -0.604533
O7    O     O_2   0.087368 0.416989 0.766483 -0.562806
O8    O     O_3   0.901952 0.690553 0.445176 -0.563166
O9    O     O_R   0.491240 0.609310 0.646410 -0.606151
O10   O     O_R   0.692710 0.406190 0.506230 -0.637810
O11   O     O_R   0.677700 0.593810 0.493810 -0.584645
O12   O     O_R   0.508760 0.390690 0.353590 -0.643862
O13   O     O_R   0.493760 0.578300 0.341170 -0.534036
O14   O     O_R   0.322300 0.406190 0.506190 -0.650523
O15   O     O_R   0.307290 0.593810 0.493770 -0.534760
O16   O     O_3   0.117462 0.714145 0.529103 -0.534656
Zn1   Zn    Zn3+2 0.510020 0.374730 0.508290 0.923712
Zn2   Zn    Zn3+2 0.489980 0.625270 0.491710 1.030892

loop_
_geom_bond_atom_site_label_1
_geom_bond_atom_site_label_2
_ccdc_geom_bond_type
C32   O5    S    
C29   H20   S    
C1    O1    A    
C30   H21   S    
C41   C42   A    
C19   C20   S    
C19   H43   S    
C37   O8    S    
C25   O16   S    
C31   H24   S    
C37   H36   S    
C12   C23   S    
C35   H32   S    
C34   H8    S    
C8    C13   A    
C16   O12   A    
C28   C29   S    
C25   H10   S    
C30   O4    S    
C41   H34   S    
C30   C31   S    
C4    C24   S    
C23   H6    S    
C8    H2    S    
C36   H33   S    
C1    C40   S    
C40   C43   A    
C11   C17   A    
C2    C7    A    
C10   N2    A    
C8    C9    A    
C27   O2    D    
C10   C35   S    
C33   H29   S    
C22   H7    S    
C21   H5    S    
C40   C42   A    
C21   C27   S    
C22   O8    S    
C13   C14   A    
C38   H39   S    
C43   H41   S    
N2    Zn2   S    
C22   C34   S    
C26   H11   S    
C32   H28   S    
C28   H17   S    
C31   H25   S    
C7    O4    S    
C29   H18   S    
C30   H22   S    
C17   H3    S    
O1    Zn1   S    
C9    N2    A    
C32   H27   S    
C25   C26   S    
O9    Zn2   S    
C37   C38   S    
N1    Zn1   S    
C36   O7    D    
C31   H26   S    
C2    C43   A    
C12   C20   S    
O13   Zn2   S    
C28   O3    S    
C18   O15   A    
C16   O13   A    
C5    C39   A    
C38   H38   S    
C22   C24   S    
C21   C24   S    
C12   C34   S    
C19   H1    S    
C15   H44   S    
C28   H16   S    
C33   H30   S    
O12   Zn1   S    
C15   C17   A    
O10   Zn1   S    
C29   H19   S    
C3    C41   A    
O11   Zn2   S    
C34   O16   S    
C42   H40   S    
C14   H42   S    
C3    C5    A    
C27   H15   S    
C26   H13   S    
C1    O9    A    
C23   H12   S    
C6    C7    A    
C35   O6    D    
C37   H35   S    
C4    O11   A    
C32   C33   S    
C21   C23   S    
C2    C3    A    
C25   H9    S    
C14   N1    A    
C11   C13   A    
C38   H37   S    
C19   C24   S    
O14   Zn1   S    
C18   O14   A    
C26   H14   S    
C5    O3    S    
C10   C11   A    
C16   C39   S    
C20   C36   S    
C33   H31   S    
C6    H23   S    
C4    O10   A    
C12   C18   S    
C6    C39   A    
C9    O5    S    
O15   Zn2   S    
C20   H4    S    
C15   N1    A    
