data_mof_unit_52067.cif
_audit_creation_date              2012-10-26T18:54:55-0400
_audit_creation_method            fapswitch 2.2
_symmetry_space_group_name_H-M    P1
_symmetry_Int_Tables_number       1
_space_group_crystal_system       triclinic
_cell_length_a                    10.850572
_cell_length_b                    9.671499
_cell_length_c                    10.838807
_cell_angle_alpha                 90.303889
_cell_angle_beta                  94.810329
_cell_angle_gamma                 90.429624
_cell_volume                      1133.38017109

loop_
_atom_site_label
_atom_site_type_symbol
_atom_type_description
_atom_site_fract_x
_atom_site_fract_y
_atom_site_fract_z
_atom_type_partial_charge
C1    C     C_R   0.263375 0.500008 0.507659 0.535640
C2    C     C_R   0.472746 0.621363 0.934971 0.018281
C3    C     C_R   0.480068 0.497917 0.127934 0.003962
C4    C     C_R   0.484773 0.498379 0.869596 0.004772
C5    C     C_R   0.474963 0.372196 0.061734 -0.167915
C6    C     C_R   0.476745 0.372443 0.933096 -0.165283
C7    C     C_3   0.551430 0.748511 0.938827 -0.277728
C8    C     C_3   0.544089 0.750340 0.077450 -0.270157
C9    C     C_R   0.063156 0.377059 0.499967 -0.169187
C10   C     C_R   0.935399 0.377830 0.495984 -0.168801
C11   C     C_R   0.872007 0.503752 0.491775 0.011767
C12   C     C_R   0.737269 0.501003 0.494484 0.540832
C13   C     C_R   0.129921 0.501089 0.517412 0.013462
C14   C     C_R   0.940243 0.629778 0.493458 -0.002164
C15   C     C_R   0.065905 0.625947 0.534942 0.000576
C16   C     C_3   0.893465 0.758332 0.423436 -0.246925
C17   C     C_3   0.875211 0.728472 0.284091 -0.289735
C18   C     C_3   0.851111 0.861490 0.210798 -0.464474
C19   C     C_3   0.123641 0.749782 0.607119 -0.244913
C20   C     C_3   0.176068 0.709125 0.737756 -0.276766
C21   C     C_3   0.227027 0.835462 0.810738 -0.449794
C22   C     C_3   0.326525 0.143703 0.327995 -0.342556
C23   C     C_R   0.418645 0.073069 0.420003 0.123898
C24   C     C_3   0.672342 0.148650 0.673434 -0.339892
C25   C     C_3   0.323053 0.851939 0.330689 -0.342287
C26   C     C_3   0.677193 0.857262 0.668337 -0.350412
C27   C     C_R   0.581264 0.075483 0.580060 0.125059
C28   C     C_R   0.418084 0.924714 0.420419 0.118852
C29   C     C_R   0.582032 0.927194 0.579229 0.117232
C30   C     C_R   0.495428 0.499539 0.262364 0.535384
C31   C     C_R   0.498208 0.499978 0.737322 0.529539
C32   C     C_R   0.468305 0.621302 0.061837 0.009614
Cu1   Cu    Cu3+1 0.500000 0.640660 0.500000 0.884525
Cu2   Cu    Cu3+1 0.500000 0.359340 0.500000 0.894850
H1    H     H_    0.476815 0.273909 0.109158 0.130874
H2    H     H_    0.931404 0.933324 0.226065 0.147020
H3    H     H_    0.837443 0.836895 0.110369 0.135506
H4    H     H_    0.959779 0.679510 0.252851 0.160321
H5    H     H_    0.796515 0.655363 0.264635 0.169391
H6    H     H_    0.808057 0.800152 0.456729 0.178962
H7    H     H_    0.961933 0.844122 0.435297 0.120088
H8    H     H_    0.304267 0.882890 0.764228 0.162514
H9    H     H_    0.153274 0.913336 0.818321 0.141129
H10   H     H_    0.261725 0.804080 0.905630 0.144887
H11   H     H_    0.101617 0.660995 0.787994 0.150723
H12   H     H_    0.478647 0.274206 0.884881 0.134041
H13   H     H_    0.251297 0.632836 0.733225 0.188930
H14   H     H_    0.194747 0.801959 0.556220 0.174912
H15   H     H_    0.052236 0.828919 0.620645 0.119146
H16   H     H_    0.327181 0.255548 0.328155 0.202919
H17   H     H_    0.344408 0.114259 0.232141 0.081805
H18   H     H_    0.230757 0.113595 0.345692 0.082695
H19   H     H_    0.673461 0.260440 0.672797 0.203750
H20   H     H_    0.651839 0.121316 0.768896 0.085301
H21   H     H_    0.768409 0.118793 0.658095 0.083703
H22   H     H_    0.228218 0.877699 0.353801 0.081840
H23   H     H_    0.646373 0.727165 0.912698 0.125340
H24   H     H_    0.333937 0.884678 0.234538 0.081837
H25   H     H_    0.326418 0.740204 0.326551 0.205637
H26   H     H_    0.771970 0.884259 0.645369 0.079364
H27   H     H_    0.667239 0.893133 0.763790 0.081551
H28   H     H_    0.672915 0.745465 0.672783 0.204430
H29   H     H_    0.491177 0.839391 0.109521 0.131250
H30   H     H_    0.503649 0.837197 0.891594 0.135671
H31   H     H_    0.633923 0.732285 0.130393 0.149038
H32   H     H_    0.109422 0.278994 0.491812 0.130624
H33   H     H_    0.886405 0.279699 0.490885 0.133513
H34   H     H_    0.767051 0.913357 0.239708 0.158583
N1    N     N_R   0.500000 0.852070 0.500000 -0.229555
N2    N     N_R   0.500000 0.147940 0.500000 -0.225788
O1    O     O_R   0.319640 0.618740 0.499990 -0.522903
O2    O     O_R   0.680360 0.618740 0.500010 -0.521558
O3    O     O_R   0.319620 0.381170 0.499990 -0.519435
O4    O     O_R   0.680380 0.381170 0.500010 -0.517074
O5    O     O_R   0.499990 0.618810 0.319660 -0.511806
O6    O     O_R   0.500010 0.618810 0.680340 -0.512834
O7    O     O_R   0.499960 0.381240 0.319650 -0.516331
O8    O     O_R   0.500040 0.381240 0.680350 -0.519267

loop_
_geom_bond_atom_site_label_1
_geom_bond_atom_site_label_2
_ccdc_geom_bond_type
C12   O4    A    
C27   C29   A    
C19   C20   S    
C25   H22   S    
C7    C8    S    
C10   H33   S    
C24   H21   S    
C15   C19   S    
C1    O1    A    
C26   H27   S    
Cu2   O7    S    
C5    C6    A    
C11   C14   A    
C18   H34   S    
C24   H20   S    
C2    C32   A    
C17   H5    S    
C9    C13   A    
C9    H32   S    
Cu1   O2    S    
C21   H9    S    
C30   O7    A    
Cu1   O5    S    
C2    C7    S    
C16   C17   S    
C24   C27   S    
C9    C10   A    
Cu2   N2    S    
C20   H11   S    
Cu1   N1    S    
C22   H16   S    
C12   O2    A    
C8    H31   S    
C23   N2    A    
Cu1   Cu2   S    
C29   N1    A    
C8    C32   S    
C4    C6    A    
C19   H14   S    
Cu2   O3    S    
C24   H19   S    
C25   C28   S    
C3    C30   S    
C2    C4    A    
C21   H10   S    
C19   H15   S    
Cu1   O6    S    
C28   N1    A    
C17   C18   S    
C23   C28   A    
C27   N2    A    
C16   H6    S    
Cu2   O4    S    
C13   C15   A    
C14   C16   S    
C1    C13   S    
C25   H24   S    
C31   O8    A    
C22   H18   S    
C6    H12   S    
C22   C23   S    
C18   H3    S    
C3    C5    A    
C11   C12   S    
C1    O3    A    
C26   H28   S    
Cu2   O8    S    
C30   O5    A    
C31   O6    A    
C18   H2    S    
C5    H1    S    
C17   H4    S    
C3    C32   A    
C7    H30   S    
C4    C31   S    
C10   C11   A    
Cu1   O1    S    
C8    H29   S    
C21   H8    S    
C20   C21   S    
C26   C29   S    
C14   C15   A    
C25   H25   S    
C26   H26   S    
C16   H7    S    
C7    H23   S    
C20   H13   S    
C22   H17   S    
