data_mof_unit_52108.cif
_audit_creation_date              2013-03-05T16:48:44-0500
_audit_creation_method            fapswitch 2.2
_symmetry_space_group_name_H-M    P1
_symmetry_Int_Tables_number       1
_space_group_crystal_system       triclinic
_cell_length_a                    27.811239
_cell_length_b                    8.986284
_cell_length_c                    8.083039
_cell_angle_alpha                 89.805139
_cell_angle_beta                  90.007508
_cell_angle_gamma                 89.987878
_cell_volume                      2020.09887206

loop_
_atom_site_label
_atom_site_type_symbol
_atom_site_description
_atom_site_fract_x
_atom_site_fract_y
_atom_site_fract_z
_atom_type_partial_charge
O1    O     O_R   0.500000 0.285350 0.636850 -0.617752
O2    O     O_R   0.500000 0.714650 0.363150 -0.617833
O3    O     O_R   0.500000 0.714650 0.636850 -0.611699
O4    O     O_R   0.500000 0.285350 0.363150 -0.611742
C1    C     C_R   0.500042 0.217811 0.500184 0.935279
C2    C     C_R   0.500041 0.782189 0.499816 0.935025
O5    O     O_R   0.428760 0.500000 0.636860 -0.619485
O6    O     O_R   0.571240 0.500000 0.363140 -0.618766
O7    O     O_R   0.571240 0.500000 0.636860 -0.619003
O8    O     O_R   0.428760 0.500000 0.363140 -0.619489
C3    C     C_R   0.405560 0.500040 0.499988 0.890088
C4    C     C_R   0.594155 0.499978 0.500018 0.891910
Zn1   Zn    Zn3+2 0.500000 0.500000 0.682780 0.984541
Zn2   Zn    Zn3+2 0.500000 0.500000 0.317220 0.984553
C5    C     C_R   0.175905 0.368636 0.517782 0.562378
C6    C     C_R   0.822630 0.629479 0.536963 0.565516
C7    C     C_R   0.175921 0.632668 0.481634 0.562396
C8    C     C_R   0.822625 0.372381 0.462407 0.565472
O9    O     O_2   0.200515 0.239577 0.530441 -0.536734
O10   O     O_2   0.797872 0.753468 0.577057 -0.543341
O11   O     O_2   0.200547 0.761668 0.469043 -0.536735
O12   O     O_2   0.797860 0.248403 0.422423 -0.543337
N1    N     N_R   0.199995 0.500626 0.499765 -0.348538
N2    N     N_R   0.798643 0.500923 0.499794 -0.348303
C9    C     C_R   0.276461 0.559314 0.365338 -0.091436
C10   C     C_R   0.722439 0.408320 0.609388 -0.087509
C11   C     C_R   0.276419 0.441667 0.634458 -0.091336
C12   C     C_R   0.722301 0.593280 0.390875 -0.087785
C13   C     C_R   0.326592 0.563273 0.364475 0.108007
C14   C     C_R   0.672310 0.405515 0.610011 0.100970
C15   C     C_R   0.326548 0.437385 0.635414 0.108083
C16   C     C_R   0.672171 0.595506 0.390298 0.100610
C17   C     C_R   0.251468 0.500553 0.499864 0.193586
C18   C     C_R   0.747274 0.500877 0.500055 0.192924
C19   C     C_R   0.100349 0.500735 0.499569 -0.070940
C20   C     C_R   0.898191 0.500913 0.499492 -0.069262
C21   C     C_R   0.125664 0.366655 0.521235 -0.095720
C22   C     C_R   0.872876 0.632559 0.534636 -0.096036
C23   C     C_R   0.125679 0.634760 0.477992 -0.095652
C24   C     C_R   0.872871 0.369286 0.464439 -0.096024
C25   C     C_R   0.100340 0.234805 0.550604 -0.241755
C26   C     C_R   0.898225 0.762671 0.571350 -0.241730
C27   C     C_R   0.100369 0.766664 0.448539 -0.241838
C28   C     C_R   0.898211 0.239156 0.427604 -0.241733
C29   C     C_R   0.352442 0.500214 0.499951 -0.082351
C30   C     C_R   0.646780 0.500280 0.500068 -0.069058
H1    H     H_    0.256274 0.397597 0.738432 0.163060
H2    H     H_    0.742344 0.663896 0.306594 0.165377
H3    H     H_    0.256349 0.603507 0.261321 0.163093
H4    H     H_    0.742592 0.337907 0.693613 0.165241
H5    H     H_    0.119043 0.132243 0.579779 0.215667
H6    H     H_    0.879579 0.863224 0.607858 0.217866
H7    H     H_    0.119085 0.869188 0.419430 0.215662
H8    H     H_    0.879557 0.138624 0.391144 0.217843
C31   C     C_R   0.974091 0.364993 0.482712 -0.054131
C32   C     C_R   0.024420 0.637238 0.490544 -0.056522
C33   C     C_R   0.974098 0.636732 0.516144 -0.054129
C34   C     C_R   0.024410 0.364388 0.508378 -0.056576
C35   C     C_R   0.948895 0.500883 0.499434 -0.068922
C36   C     C_R   0.049625 0.500787 0.499490 -0.071550
C37   C     C_R   0.948144 0.236991 0.434733 0.737674
C38   C     C_R   0.050395 0.767318 0.450271 0.744776
C39   C     C_R   0.948156 0.764776 0.564121 0.737699
C40   C     C_R   0.050368 0.234258 0.548727 0.744860
C41   C     C_1   0.500077 0.065055 0.500261 -0.190619
C42   C     C_1   0.500077 0.934944 0.499739 -0.190675
N3    N     N_1   0.500000 0.500000 0.073640 -0.038646
N4    N     N_1   0.500000 0.500000 0.926360 -0.038690
C43   C     C_3   0.350764 0.361635 0.780402 -0.823031
H9    H     H_    0.376071 0.275090 0.735520 0.245420
H10   H     H_    0.370177 0.444816 0.856350 0.249994
H11   H     H_    0.324432 0.305439 0.862971 0.234293
C44   C     C_3   0.646888 0.702884 0.275436 -0.825129
H12   H     H_    0.620622 0.770955 0.345940 0.233125
H13   H     H_    0.672553 0.780706 0.214872 0.240425
H14   H     H_    0.628035 0.640739 0.176287 0.256375
C45   C     C_3   0.350861 0.638973 0.219591 -0.822812
H15   H     H_    0.376221 0.725302 0.264633 0.245365
H16   H     H_    0.370228 0.555697 0.143568 0.249989
H17   H     H_    0.324564 0.695480 0.137040 0.234245
C46   C     C_3   0.647188 0.297984 0.725069 -0.825999
H18   H     H_    0.621381 0.228482 0.654415 0.233317
H19   H     H_    0.673005 0.221683 0.787130 0.240535
H20   H     H_    0.627855 0.359979 0.823168 0.256575
F1    F     F_    0.970615 0.114752 0.375593 -0.547696
F2    F     F_    0.027982 0.890114 0.391734 -0.542072
F3    F     F_    0.970635 0.886980 0.623242 -0.547653
F4    F     F_    0.027939 0.111522 0.607233 -0.542041

loop_
_geom_bond_atom_site_label_1
_geom_bond_atom_site_label_2
_geom_bond_distance
_ccdc_geom_bond_type
O5    Zn1   2.015693 S    
C31   C35   1.414666 A    
C44   H12   1.111233 S    
C20   C35   1.410141 A    
C46   H18   1.110801 S    
C45   H15   1.110799 S    
C11   C17   1.393150 A    
O5    C3    1.280672 A    
C38   F2    1.351352 S    
C7    N1    1.369725 A    
C2    C42   1.372701 S    
O1    C1    1.262229 A    
C19   C21   1.405789 A    
C22   C26   1.398141 A    
C10   H4    1.083893 S    
C33   C35   1.414674 A    
C34   C36   1.413888 A    
C32   C33   1.414770 A    
C7    C23   1.397728 A    
C43   H10   1.109183 S    
O7    Zn1   2.015786 S    
C5    C21   1.397671 A    
C8    C24   1.397776 A    
C5    O9    1.350114 S    
C27   H7    1.083456 S    
N1    C17   1.431517 S    
Zn2   N3    1.968867 S    
C8    N2    1.368421 A    
O3    Zn1   1.963067 S    
C6    O10   1.350085 S    
O3    C2    1.261223 A    
C5    N1    1.369701 A    
C12   C18   1.394738 A    
C6    N2    1.368395 A    
C21   C25   1.398117 A    
C44   H13   1.111832 S    
O2    C2    1.262228 A    
C46   H19   1.111142 S    
C10   C18   1.394737 A    
C33   C39   1.413377 A    
C9    H3    1.083965 S    
C45   H16   1.109395 S    
C9    C13   1.394687 A    
C11   C15   1.394684 A    
N3    N4    1.190469 T    
C20   C24   1.406341 A    
C4    C30   1.463553 S    
O8    Zn2   2.015789 S    
C16   C44   1.510284 S    
C23   C27   1.398160 A    
C34   C40   1.411390 A    
N2    C18   1.428621 S    
C32   C36   1.413907 A    
C13   C29   1.425668 A    
C19   C36   1.410708 A    
C43   H11   1.111198 S    
C19   C23   1.405778 A    
C15   C43   1.511486 S    
C12   C16   1.394335 A    
O6    C4    1.276745 A    
C37   F1    1.352444 S    
C1    C41   1.372704 S    
C10   C14   1.394389 A    
C44   H14   1.110013 S    
C32   C38   1.411408 A    
C3    C29   1.477256 S    
O1    Zn1   1.965548 S    
C46   H20   1.109599 S    
C45   H17   1.111475 S    
C11   H1    1.083970 S    
C12   H2    1.083883 S    
O6    Zn2   2.015690 S    
C39   F3    1.352391 S    
C8    O12   1.350093 S    
C16   C30   1.418951 A    
C14   C30   1.418984 A    
O4    C1    1.261222 A    
C28   C37   1.389993 A    
C14   C46   1.510343 S    
C20   C22   1.406358 A    
C31   C37   1.413356 A    
C25   H5    1.083464 S    
O4    Zn2   1.963068 S    
C43   H9    1.110656 S    
O2    Zn2   1.965547 S    
O7    C4    1.276636 A    
C7    O11   1.350091 S    
C9    C17   1.393134 A    
O8    C3    1.280656 A    
C28   H8    1.083568 S    
C24   C28   1.398158 A    
C13   C45   1.511553 S    
C41   C42   1.169240 T    
C15   C29   1.425654 A    
C31   C34   1.414707 A    
C6    C22   1.397831 A    
C25   C40   1.389860 A    
C26   C39   1.390012 A    
C40   F4    1.351306 S    
C27   C38   1.389923 A    
C26   H6    1.083570 S    
Zn1   N4    1.968867 S    
