data_mof_unit_65033.cif
_audit_creation_date              2012-12-10T18:24:50-0500
_audit_creation_method            fapswitch 2.2
_symmetry_space_group_name_H-M    P1
_symmetry_Int_Tables_number       1
_space_group_crystal_system       triclinic
_cell_length_a                    16.055421
_cell_length_b                    16.049388
_cell_length_c                    19.487876
_cell_angle_alpha                 95.468599
_cell_angle_beta                  90.597843
_cell_angle_gamma                 84.102246
_cell_volume                      4972.31378773

loop_
_atom_site_label
_atom_site_type_symbol
_atom_type_description
_atom_site_fract_x
_atom_site_fract_y
_atom_site_fract_z
_atom_type_partial_charge
C1    C     C_R   0.275784 0.510898 0.490991 0.507602
C2    C     C_2   0.491760 0.530929 0.984285 0.117990
C3    C     C_2   0.525045 0.464705 0.015975 0.100418
C4    C     C_R   0.724070 0.489229 0.508979 0.507506
C5    C     C_R   0.515783 0.482462 0.235464 0.041836
C6    C     C_1   0.186331 0.516045 0.486845 0.021717
C7    C     C_2   0.020995 0.525707 0.478548 0.000123
C8    C     C_2   0.978738 0.479499 0.517740 0.133795
C9    C     C_1   0.888685 0.482261 0.515162 -0.024532
C10   C     C_1   0.111119 0.520448 0.483127 0.000898
C11   C     C_1   0.813497 0.485172 0.512532 0.009476
C12   C     C_R   0.491152 0.528445 0.908897 0.010677
C13   C     C_1   0.516242 0.184916 0.486958 0.022917
C14   C     C_2   0.524393 0.018890 0.480135 0.109875
C15   C     C_2   0.474849 0.981194 0.519732 0.110689
C16   C     C_R   0.511675 0.274882 0.490832 0.505992
C17   C     C_1   0.479323 0.890790 0.516131 -0.003022
C18   C     C_1   0.520015 0.109292 0.483785 -0.001618
C19   C     C_1   0.483270 0.815159 0.512989 0.019916
C20   C     C_R   0.488160 0.725180 0.509139 0.511941
C21   C     C_R   0.510603 0.489225 0.311213 0.518321
C22   C     C_R   0.489633 0.509973 0.688725 0.523638
C23   C     C_R   0.414777 0.542588 0.874463 0.103842
C24   C     C_R   0.487962 0.517015 0.764490 -0.001208
C25   C     C_R   0.564306 0.504690 0.799975 0.109636
C26   C     C_R   0.565881 0.510727 0.871534 0.111427
C27   C     C_3   0.977120 0.583056 0.429589 -0.396655
C28   C     C_3   0.672188 0.502732 0.239237 -0.366787
C29   C     C_3   0.368323 0.438208 0.083825 -0.366315
C30   C     C_3   0.328401 0.547839 0.766101 -0.345650
C31   C     C_R   0.412063 0.536485 0.802084 -0.041739
C32   C     C_R   0.445638 0.457547 0.124691 0.008432
C33   C     C_R   0.443580 0.465896 0.196897 0.115028
C34   C     C_R   0.591769 0.489207 0.200980 -0.039339
C35   C     C_R   0.593107 0.481200 0.128937 -0.101558
C36   C     C_R   0.520903 0.466807 0.091082 0.027929
F1    F     F_    0.638037 0.488629 0.765275 -0.147557
F2    F     F_    0.020671 0.428429 0.561280 -0.165115
F3    F     F_    0.419411 0.027530 0.564133 -0.170728
F4    F     F_    0.579839 0.972546 0.435745 -0.171490
F5    F     F_    0.370473 0.459904 0.229832 -0.165314
F6    F     F_    0.561810 0.394160 0.979551 -0.167847
F7    F     F_    0.342923 0.559994 0.911740 -0.171993
F8    F     F_    0.452595 0.599664 0.021625 -0.169012
F9    F     F_    0.640667 0.500643 0.904526 -0.156018
H1    H     H_    0.650478 0.487359 0.101821 0.137024
H2    H     H_    0.382835 0.380395 0.048215 0.144191
H3    H     H_    0.321470 0.492958 0.728000 0.137095
H4    H     H_    0.274949 0.552975 0.802409 0.155063
H5    H     H_    0.323557 0.606330 0.739573 0.168729
H6    H     H_    0.022818 0.615506 0.402175 0.143671
H7    H     H_    0.941576 0.545951 0.390552 0.138942
H8    H     H_    0.933273 0.631619 0.458557 0.144725
H9    H     H_    0.685744 0.454021 0.275767 0.142145
H10   H     H_    0.726379 0.498370 0.203633 0.123691
H11   H     H_    0.667087 0.566293 0.267722 0.171836
H12   H     H_    0.315667 0.427470 0.117221 0.157535
H13   H     H_    0.346848 0.491351 0.053369 0.161610
O1    O     O_3   0.500000 0.500000 0.500000 -0.448485
O2    O     O_R   0.462330 0.445560 0.340470 -0.516925
O3    O     O_R   0.440930 0.559110 0.655640 -0.551815
O4    O     O_R   0.554010 0.538050 0.348260 -0.552242
O5    O     O_R   0.542730 0.457290 0.655630 -0.511606
O6    O     O_R   0.555880 0.314540 0.535300 -0.531799
O7    O     O_R   0.439840 0.689760 0.546310 -0.532063
O8    O     O_R   0.320170 0.458170 0.449830 -0.526572
O9    O     O_R   0.684110 0.537530 0.468570 -0.545477
O10   O     O_R   0.310830 0.559620 0.535340 -0.539969
O11   O     O_R   0.684890 0.444680 0.546270 -0.521825
O12   O     O_R   0.463420 0.314900 0.449800 -0.533712
O13   O     O_R   0.540870 0.680800 0.468590 -0.529852
Zn1   Zn    Zn3+2 0.569660 0.430340 0.558290 0.975502
Zn2   Zn    Zn3+2 0.437560 0.430860 0.436130 0.969440
Zn3   Zn    Zn3+2 0.568560 0.563000 0.447270 0.943838
Zn4   Zn    Zn3+2 0.424220 0.575810 0.558310 0.949177

loop_
_geom_bond_atom_site_label_1
_geom_bond_atom_site_label_2
_ccdc_geom_bond_type
C30   H4    S    
C6    C10   T    
O11   Zn1   S    
C2    F8    S    
C27   H8    S    
C3    F6    S    
O10   Zn4   S    
C16   O12   A    
O13   Zn3   S    
C14   C18   S    
C35   C36   A    
O7    Zn4   S    
O1    Zn1   S    
O8    Zn2   S    
C25   C26   A    
C2    C12   S    
C5    C34   A    
O12   Zn2   S    
C28   H9    S    
C1    O8    A    
C28   H11   S    
C24   C31   A    
C28   C34   S    
C7    C8    D    
C20   O13   A    
O9    Zn3   S    
C24   C25   A    
C22   O3    A    
C9    C11   T    
O1    Zn3   S    
C15   F3    S    
C21   O4    A    
C8    F2    S    
C3    C36   S    
C29   H2    S    
C32   C36   A    
C30   H3    S    
C4    O11   A    
C17   C19   T    
C28   H10   S    
C27   H6    S    
C2    C3    D    
C29   C32   S    
C5    C33   A    
O6    Zn1   S    
C30   H5    S    
C30   C31   S    
C22   C24   S    
O5    Zn1   S    
C13   C16   S    
C20   O7    A    
C14   F4    S    
C1    C6    S    
O1    Zn4   S    
O2    Zn2   S    
C1    O10   A    
C7    C27   S    
C27   H7    S    
C19   C20   S    
C21   O2    A    
C13   C18   T    
C34   C35   A    
C7    C10   S    
C12   C26   A    
C15   C17   S    
O1    Zn2   S    
C14   C15   D    
O4    Zn3   S    
C12   C23   A    
C16   O6    A    
C26   F9    S    
C25   F1    S    
C22   O5    A    
C23   F7    S    
C35   H1    S    
C33   F5    S    
O3    Zn4   S    
C4    O9    A    
C29   H13   S    
C32   C33   A    
C29   H12   S    
C8    C9    S    
C4    C11   S    
C5    C21   S    
C23   C31   A    
