data_mof_unit_7289.cif
_audit_creation_date              2012-12-11T14:34:11-0500
_audit_creation_method            fapswitch 2.2
_symmetry_space_group_name_H-M    P1
_symmetry_Int_Tables_number       1
_space_group_crystal_system       triclinic
_cell_length_a                    13.862581
_cell_length_b                    13.983842
_cell_length_c                    27.324015
_cell_angle_alpha                 89.932295
_cell_angle_beta                  90.136391
_cell_angle_gamma                 119.615528
_cell_volume                      4604.83485248

loop_
_atom_site_label
_atom_site_type_symbol
_atom_type_description
_atom_site_fract_x
_atom_site_fract_y
_atom_site_fract_z
_atom_type_partial_charge
C1    C     C_R   0.234203 0.787007 0.568860 0.539902
C2    C     C_1   0.713338 0.864276 0.859247 -0.050473
C3    C     C_1   0.113046 0.880494 0.852761 -0.048472
C4    C     C_1   0.111126 0.230990 0.852273 -0.050247
C5    C     C_1   0.632756 0.815114 0.658221 -0.072372
C6    C     C_1   0.179036 0.817848 0.656884 -0.072720
C7    C     C_1   0.177389 0.359505 0.656479 -0.073392
C8    C     C_1   0.603437 0.796872 0.616154 -0.012572
C9    C     C_1   0.200340 0.805375 0.615569 -0.012266
C10   C     C_1   0.192828 0.393871 0.615272 -0.012136
C11   C     C_R   0.064954 0.150445 0.095973 0.573923
C12   C     C_R   0.212603 0.446621 0.568773 0.542906
C13   C     C_R   0.777676 0.884123 0.088417 0.549631
C14   C     C_R   0.116445 0.893701 0.088165 0.562751
C15   C     C_R   0.069088 0.160272 0.943281 0.535924
C16   C     C_R   0.780119 0.887321 0.950636 0.548998
C17   C     C_R   0.090563 0.929714 0.943415 0.532446
C18   C     C_R   0.618131 0.895485 0.361454 -0.132882
C19   C     C_R   0.097277 0.732524 0.362866 -0.134414
C20   C     C_R   0.264384 0.357984 0.363763 -0.135058
C21   C     C_R   0.644739 0.911229 0.311863 0.014148
C22   C     C_R   0.080680 0.744027 0.313204 0.014306
C23   C     C_R   0.553239 0.765448 0.568846 0.539566
C24   C     C_R   0.241477 0.307179 0.317674 0.014006
C25   C     C_R   0.681536 0.929276 0.210413 0.016763
C26   C     C_R   0.060765 0.760026 0.211556 0.016744
C27   C     C_R   0.200911 0.226322 0.220987 0.017186
C28   C     C_R   0.232515 0.788334 0.431827 0.547487
C29   C     C_R   0.211714 0.444585 0.431369 0.549328
C30   C     C_R   0.555489 0.767180 0.431895 0.548233
C31   C     C_R   0.653606 0.000723 0.234444 -0.137591
C32   C     C_R   0.977799 0.670853 0.237581 -0.127403
C33   C     C_R   0.303224 0.257322 0.243594 -0.123379
C34   C     C_3   0.683812 0.741241 0.787717 -0.014172
C35   C     C_R   0.635015 0.991604 0.284907 -0.131011
C36   C     C_R   0.988318 0.662205 0.288071 -0.128795
C37   C     C_R   0.323495 0.297765 0.291553 -0.128519
C38   C     C_R   0.704458 0.939611 0.160160 -0.148979
C39   C     C_R   0.050879 0.771164 0.161180 -0.134091
C40   C     C_R   0.183094 0.195510 0.171529 -0.127661
C41   C     C_R   0.729521 0.865059 0.137213 -0.001995
C42   C     C_R   0.135363 0.861422 0.136285 -0.003621
C43   C     C_R   0.082980 0.172721 0.148632 -0.009249
C44   C     C_R   0.659078 0.745221 0.364246 -0.131288
C45   C     C_3   0.247062 0.953657 0.783531 -0.014579
C46   C     C_R   0.265716 0.910911 0.362014 -0.128418
C47   C     C_R   0.076365 0.328211 0.367949 -0.130112
C48   C     C_R   0.683538 0.758206 0.314743 0.013413
C49   C     C_R   0.253945 0.920613 0.312308 0.013821
C50   C     C_R   0.052921 0.279239 0.321894 0.011791
C51   C     C_R   0.673884 0.839806 0.288117 0.064140
C52   C     C_R   0.162218 0.836030 0.287481 0.063555
C53   C     C_R   0.136369 0.270727 0.296103 0.062752
C54   C     C_R   0.709219 0.685266 0.290838 -0.126818
C55   C     C_R   0.337017 0.009872 0.286598 -0.127314
C56   C     C_3   0.037993 0.295831 0.783089 -0.015860
C57   C     C_R   0.949484 0.245194 0.299986 -0.128994
C58   C     C_R   0.721465 0.690480 0.240385 -0.126673
C59   C     C_R   0.331215 0.013659 0.236005 -0.129328
C60   C     C_R   0.930517 0.207888 0.251823 -0.121999
C61   C     C_R   0.711310 0.770665 0.213754 0.010689
C62   C     C_R   0.240373 0.930256 0.211030 0.013815
C63   C     C_R   0.013636 0.201773 0.225363 0.016879
C64   C     C_3   0.562867 0.840381 0.737393 -0.202569
C65   C     C_3   0.136245 0.729481 0.738954 -0.204832
C66   C     C_3   0.263218 0.402934 0.738841 -0.200553
C67   C     C_3   0.656244 0.726047 0.732057 -0.209332
C68   C     C_R   0.689402 0.847035 0.237448 0.065262
C69   C     C_R   0.154218 0.842085 0.236689 0.063844
C70   C     C_R   0.116384 0.231130 0.247736 0.062187
C71   C     C_R   0.725960 0.777237 0.163772 -0.121609
C72   C     C_R   0.232515 0.936264 0.160861 -0.131053
C73   C     C_R   0.997441 0.171884 0.176179 -0.128539
C74   C     C_R   0.618538 0.807952 0.386742 -0.003099
C75   C     C_R   0.193392 0.813142 0.386447 -0.003557
C76   C     C_R   0.183328 0.372744 0.388096 -0.004689
C77   C     C_3   0.768883 0.932188 0.722251 -0.227726
C78   C     C_3   0.266775 0.932099 0.729710 -0.209430
C79   C     C_3   0.062066 0.854674 0.713980 -0.225631
C80   C     C_3   0.136717 0.206484 0.713595 -0.225371
C81   C     C_3   0.788617 0.946324 0.778405 -0.247781
C82   C     C_3   0.041123 0.866362 0.768768 -0.249503
C83   C     C_3   0.117791 0.172159 0.768121 -0.249860
C84   C     C_1   0.738155 0.874518 0.901880 0.006853
C85   C     C_1   0.102097 0.901318 0.894385 0.008552
C86   C     C_1   0.094470 0.199510 0.894026 0.004030
C87   C     C_3   0.655654 0.828806 0.711037 0.040534
C88   C     C_3   0.160806 0.832979 0.708500 0.039761
C89   C     C_3   0.058820 0.333002 0.728491 -0.208268
C90   C     C_3   0.159399 0.325840 0.707983 0.039480
C91   C     C_3   0.584567 0.854413 0.793252 -0.197286
C92   C     C_3   0.118392 0.746399 0.793691 -0.197843
C93   C     C_3   0.245833 0.366328 0.793179 -0.196050
C94   C     C_3   0.691369 0.850585 0.806297 0.035237
C95   C     C_3   0.130493 0.861787 0.801369 0.038368
C96   C     C_3   0.127983 0.266987 0.800833 0.036041
C97   C     C_2   0.604468 0.640794 0.816888 0.563698
C98   C     C_2   0.341669 0.969581 0.816715 0.565238
C99   C     C_2   0.029445 0.379746 0.815115 0.566445
Cr1   Cr    Cr6+3 0.164410 0.584450 0.499910 1.019581
Cr2   Cr    Cr6+3 0.415550 0.579960 0.499910 1.020205
Cr3   Cr    Cr6+3 0.420040 0.835590 0.499910 1.016978
Cr4   Cr    Cr6+3 0.155170 0.075460 0.019960 1.041628
Cr5   Cr    Cr6+3 0.924540 0.079710 0.019960 1.029860
Cr6   Cr    Cr6+3 0.920290 0.844830 0.019960 1.032043
H1    H     H_    0.594373 0.935076 0.804728 0.133096
H2    H     H_    0.767680 0.749963 0.792251 0.097043
H3    H     H_    0.246014 0.032519 0.783861 0.093899
H4    H     H_    0.956099 0.218819 0.784863 0.095496
H5    H     H_    0.706274 0.006662 0.139459 0.108392
H6    H     H_    0.975955 0.713359 0.141989 0.116957
H7    H     H_    0.248320 0.193508 0.150522 0.123685
H8    H     H_    0.588101 0.945220 0.379035 0.127679
H9    H     H_    0.040034 0.657822 0.381988 0.123382
H10   H     H_    0.346801 0.391220 0.379309 0.124880
H11   H     H_    0.646087 0.063458 0.214242 0.100516
H12   H     H_    0.034021 0.681633 0.805076 0.129929
H13   H     H_    0.905831 0.607106 0.218791 0.100301
H14   H     H_    0.368826 0.253787 0.223644 0.102166
H15   H     H_    0.611788 0.046430 0.302733 0.100055
H16   H     H_    0.924912 0.591219 0.307349 0.101042
H17   H     H_    0.404374 0.324658 0.307682 0.102307
H18   H     H_    0.743600 0.718016 0.146207 0.131858
H19   H     H_    0.298427 0.005537 0.141552 0.126624
H20   H     H_    0.919263 0.151570 0.158718 0.118677
H21   H     H_    0.738937 0.631959 0.222169 0.099926
H22   H     H_    0.397144 0.082202 0.216455 0.096265
H23   H     H_    0.309161 0.343240 0.803905 0.130439
H24   H     H_    0.852445 0.187857 0.234648 0.111420
H25   H     H_    0.716296 0.622107 0.310920 0.101490
H26   H     H_    0.408144 0.074779 0.305430 0.097387
H27   H     H_    0.884865 0.251704 0.319385 0.103402
H28   H     H_    0.558932 0.912663 0.722693 0.126717
H29   H     H_    0.060833 0.656292 0.724457 0.128405
H30   H     H_    0.337597 0.401789 0.724318 0.127726
H31   H     H_    0.661461 0.679106 0.384025 0.128088
H32   H     H_    0.338508 0.975033 0.380307 0.131208
H33   H     H_    0.012694 0.337516 0.386752 0.130210
H34   H     H_    0.480664 0.766370 0.730407 0.139569
H35   H     H_    0.837095 0.924401 0.704730 0.113229
H36   H     H_    0.079995 0.931242 0.694100 0.115317
H37   H     H_    0.062252 0.149384 0.691853 0.114321
H38   H     H_    0.770723 0.006732 0.706791 0.123815
H39   H     H_    0.985824 0.785851 0.697528 0.122978
H40   H     H_    0.208210 0.199626 0.699332 0.123223
H41   H     H_    0.797613 0.026575 0.790031 0.131629
H42   H     H_    0.957217 0.799340 0.779216 0.125930
H43   H     H_    0.179178 0.147854 0.779911 0.122976
H44   H     H_    0.867346 0.947745 0.787633 0.097368
H45   H     H_    0.206383 0.712426 0.735762 0.145362
H46   H     H_    0.041797 0.944832 0.774571 0.096727
H47   H     H_    0.033794 0.100148 0.772321 0.097936
H48   H     H_    0.574223 0.651692 0.725093 0.146124
H49   H     H_    0.337467 0.915668 0.727022 0.143395
H50   H     H_    0.074001 0.418560 0.724165 0.147425
H51   H     H_    0.719349 0.713046 0.712617 0.097474
H52   H     H_    0.289514 0.007017 0.707430 0.099241
H53   H     H_    0.983261 0.279158 0.706614 0.098412
H54   H     H_    0.448411 0.539210 0.839118 0.337810
H55   H     H_    0.428932 0.905191 0.847465 0.336751
H56   H     H_    0.279759 0.489213 0.736270 0.153388
H57   H     H_    0.098577 0.536408 0.838760 0.339922
H58   H     H_    0.511906 0.790087 0.813349 0.195149
H59   H     H_    0.177760 0.735395 0.816995 0.188620
H60   H     H_    0.259111 0.435854 0.817072 0.188786
O1    O     O_R   0.137150 0.468200 0.553200 -0.510559
O2    O     O_R   0.140110 0.470540 0.446010 -0.521587
O3    O     O_R   0.529460 0.669570 0.446010 -0.521544
O4    O     O_R   0.330430 0.859890 0.446010 -0.523893
O5    O     O_R   0.176710 0.690910 0.450560 -0.502190
O6    O     O_R   0.309090 0.485800 0.450560 -0.501417
O7    O     O_R   0.514200 0.823290 0.450560 -0.504270
O8    O     O_3   0.333333 0.666667 0.499990 -0.264569
O9    O     O_R   0.176750 0.985260 0.074180 -0.528867
O10   O     O_R   0.014740 0.191490 0.074180 -0.489222
O11   O     O_R   0.808510 0.823250 0.074180 -0.515667
O12   O     O_R   0.531800 0.668950 0.553200 -0.510366
O13   O     O_R   0.146100 0.172630 0.068980 -0.476967
O14   O     O_R   0.827370 0.973470 0.068980 -0.518654
O15   O     O_R   0.026530 0.853900 0.068980 -0.489833
O16   O     O_3   0.000000 0.000000 0.020040 -0.300126
O17   O     O_R   0.148270 0.170520 0.969620 -0.485297
O18   O     O_R   0.829480 0.977750 0.969620 -0.521681
O19   O     O_R   0.022250 0.851730 0.969620 -0.477847
O20   O     O_2   0.640613 0.591783 0.841126 -0.499316
O21   O     O_R   0.490709 0.603916 0.816340 -0.729384
O22   O     O_2   0.394446 0.056120 0.839029 -0.501277
O23   O     O_R   0.331050 0.862850 0.553200 -0.508987
O24   O     O_R   0.368631 0.886220 0.822130 -0.732102
O25   O     O_2   0.947195 0.351129 0.840560 -0.497808
O26   O     O_R   0.114075 0.489567 0.815298 -0.726378
O27   O     O_R   0.179100 0.982980 0.967000 -0.481577
O28   O     O_R   0.017020 0.196120 0.967000 -0.460743
O29   O     O_R   0.803880 0.820900 0.967000 -0.494547
O30   O     O_R   0.173970 0.688730 0.549930 -0.500332
O31   O     O_R   0.311270 0.485240 0.549930 -0.499501
O32   O     O_R   0.514760 0.826030 0.549930 -0.498527

loop_
_geom_bond_atom_site_label_1
_geom_bond_atom_site_label_2
_ccdc_geom_bond_type
C44   H31   S    
C13   O11   A    
C26   C32   A    
C55   C59   A    
C65   C92   S    
C18   C21   A    
C56   H4    S    
C57   H27   S    
Cr2   O8    S    
C17   O19   A    
C77   H35   S    
C8    C23   S    
C6    C9    T    
C13   C41   S    
C82   H42   S    
C16   O18   A    
C89   H53   S    
C40   H7    S    
C29   C76   S    
C66   H30   S    
C27   C33   A    
Cr3   O8    S    
C97   O20   D    
C46   C49   A    
C60   C63   A    
C17   C85   S    
C34   H2    S    
C32   C36   A    
H54   O21   S    
C71   H18   S    
C1    O30   A    
H55   O24   S    
C45   C98   S    
C80   C83   S    
C12   O1    A    
C30   C74   S    
C73   H20   S    
C26   C39   A    
C89   H50   S    
Cr5   O14   S    
C4    C86   T    
C59   H22   S    
Cr4   O17   S    
C15   O17   A    
C16   C84   S    
C34   C97   S    
C6    C88   S    
C20   C76   A    
Cr1   O1    S    
C7    C10   T    
C65   H45   S    
C79   C88   S    
C52   C69   A    
C4    C96   S    
C2    C84   T    
C43   C73   A    
C40   C43   A    
C20   C24   A    
Cr6   O11   S    
Cr5   O28   S    
C11   C43   S    
C45   C78   S    
C47   C50   A    
C64   C87   S    
C82   H46   S    
Cr2   O31   S    
C41   C71   A    
C92   H59   S    
C58   C61   A    
C39   H6    S    
Cr5   O16   S    
C93   H60   S    
C18   C74   A    
C72   H19   S    
C12   O31   A    
C91   H1    S    
C91   H58   S    
C35   H15   S    
Cr6   O29   S    
C25   C68   A    
C98   O24   S    
C53   C70   A    
C18   H8    S    
H57   O26   S    
C39   C42   A    
C79   C82   S    
C48   C51   A    
C17   O27   A    
Cr3   O7    S    
C97   O21   S    
C54   H25   S    
C77   C87   S    
C50   C53   A    
Cr1   O5    S    
C2    C94   S    
C19   C22   A    
C1    C9    S    
C38   C41   A    
C66   C90   S    
Cr3   O32   S    
C78   H49   S    
C57   C60   A    
C63   C73   A    
C19   H9    S    
C24   C53   A    
C13   O14   A    
C7    C90   S    
Cr4   O9    S    
C33   C37   A    
C83   H43   S    
C66   H56   S    
C67   H51   S    
C15   O28   A    
C34   C67   S    
Cr2   O3    S    
C48   C54   A    
C92   H12   S    
C77   H38   S    
C98   O22   D    
C25   C38   A    
C99   O25   D    
C78   H52   S    
C79   H39   S    
C63   C70   A    
C77   C81   S    
C27   C40   A    
C49   C52   A    
C42   C72   A    
C24   C37   A    
C62   C72   A    
C11   O13   A    
C29   O6    A    
C44   C74   A    
C30   O7    A    
C27   C70   A    
C10   C12   S    
C66   C93   S    
C28   O5    A    
C56   C89   S    
C1    O23   A    
C33   H14   S    
C93   C96   S    
C55   H26   S    
C46   H32   S    
C31   C35   A    
C3    C85   T    
C5    C8    T    
C38   H5    S    
Cr6   O15   S    
C45   C95   S    
C31   H11   S    
C21   C51   A    
C65   C88   S    
C22   C52   A    
C83   H47   S    
C54   C58   A    
Cr1   O30   S    
C78   C88   S    
C46   C75   A    
C56   C96   S    
C64   H28   S    
C80   H40   S    
C59   C62   A    
C82   C95   S    
Cr4   O16   S    
C50   C57   A    
C11   O10   A    
C25   C31   A    
C34   C94   S    
C32   H13   S    
C60   H24   S    
C47   C76   A    
C20   H10   S    
C15   C86   S    
C45   H3    S    
C58   H21   S    
C21   C35   A    
C22   C36   A    
C23   O32   A    
C80   H37   S    
C56   C99   S    
C14   C42   S    
C67   H48   S    
Cr4   O13   S    
C29   O2    A    
C19   C75   A    
C36   H16   S    
C93   H23   S    
C30   O3    A    
C14   O9    A    
C49   C55   A    
C91   C94   S    
C99   O26   S    
C81   C94   S    
C61   C68   A    
C61   C71   A    
C79   H36   S    
Cr3   O4    S    
C81   H44   S    
C83   C96   S    
C47   H33   S    
Cr1   O2    S    
Cr5   O10   S    
Cr2   O6    S    
C65   H29   S    
C51   C68   A    
C92   C95   S    
Cr6   O19   S    
C80   C90   S    
Cr3   O23   S    
C23   O12   A    
C16   O29   A    
C37   H17   S    
C5    C87   S    
C28   O4    A    
Cr5   O18   S    
C62   C69   A    
C81   H41   S    
Cr1   O8    S    
C26   C69   A    
C3    C95   S    
Cr4   O27   S    
C64   C91   S    
Cr6   O16   S    
C89   C90   S    
C28   C75   S    
Cr2   O12   S    
C14   O15   A    
C44   C48   A    
C67   C87   S    
C64   H34   S    
