data_mof_unit_7062.cif
_audit_creation_date              2013-03-05T15:52:47-0500
_audit_creation_method            fapswitch 2.2
_symmetry_space_group_name_H-M    P1
_symmetry_Int_Tables_number       1
_space_group_crystal_system       triclinic
_cell_length_a                    6.943316
_cell_length_b                    14.77448
_cell_length_c                    21.30307
_cell_angle_alpha                 74.864001
_cell_angle_beta                  90.233327
_cell_angle_gamma                 90.633817
_cell_volume                      2109.40844121

loop_
_atom_site_label
_atom_site_type_symbol
_atom_site_description
_atom_site_fract_x
_atom_site_fract_y
_atom_site_fract_z
_atom_type_partial_charge
O1    O     O_R   0.648150 0.130050 0.214300 -0.597228
O2    O     O_R   0.351850 0.869950 0.785700 -0.597228
O3    O     O_R   0.320490 0.006660 0.340150 -0.601461
O4    O     O_R   0.679510 0.993340 0.659850 -0.601461
O5    O     O_R   0.146100 0.869940 0.285700 -0.585140
O6    O     O_R   0.853900 0.130060 0.714300 -0.585140
C1    C     C_R   0.489183 0.001585 0.367144 0.902413
C2    C     C_R   0.510817 0.998415 0.632856 0.902413
O7    O     O_R   0.318690 0.137980 0.218120 -0.596160
O8    O     O_R   0.681310 0.862020 0.781880 -0.596161
O9    O     O_R   0.144280 0.002190 0.162800 -0.594693
O10   O     O_R   0.855720 0.997810 0.837200 -0.594693
C3    C     C_R   0.488202 0.175528 0.205855 0.922866
C4    C     C_R   0.511798 0.824471 0.794145 0.922866
O11   O     O_R   0.649960 0.997790 0.337200 -0.599159
O12   O     O_R   0.350040 0.002210 0.662800 -0.599158
O13   O     O_3   0.479300 0.955290 0.231990 -0.256947
O14   O     O_3   0.520700 0.044710 0.768010 -0.256946
V1    V     V_3+5 0.206040 0.008290 0.253340 1.174817
V2    V     V_3+5 0.793960 0.991710 0.746660 1.174818
O15   O     O_R   0.814320 0.993320 0.159850 -0.592266
O16   O     O_R   0.185680 0.006680 0.840150 -0.592265
C5    C     C_R   0.982927 0.998401 0.132843 0.929652
C6    C     C_R   0.017073 0.001599 0.867157 0.929651
O17   O     O_R   0.816120 0.862000 0.281880 -0.588266
O18   O     O_R   0.183880 0.138000 0.718120 -0.588266
C7    C     C_R   0.983923 0.824365 0.294028 0.946930
C8    C     C_R   0.016077 0.175635 0.705972 0.946929
V3    V     V_3+5 0.705540 0.991700 0.246660 1.186345
V4    V     V_3+5 0.294460 0.008300 0.753340 1.186345
O19   O     O_3   0.982150 0.044700 0.268010 -0.282445
O20   O     O_3   0.017850 0.955300 0.731990 -0.282445
C9    C     C_R   0.987341 0.722857 0.321511 -0.122326
C10   C     C_R   0.012659 0.277143 0.678489 -0.122324
C11   C     C_R   0.928624 0.566845 0.309866 -0.137067
C12   C     C_R   0.071378 0.433155 0.690134 -0.137063
C13   C     C_R   0.943999 0.662987 0.282362 -0.067570
C14   C     C_R   0.056003 0.337013 0.717638 -0.067569
C15   C     C_R   0.014795 0.686650 0.388426 -0.246849
C16   C     C_R   0.985204 0.313350 0.611574 -0.246849
C17   C     C_R   0.995082 0.589285 0.418102 0.110255
C18   C     C_R   0.004918 0.410715 0.581898 0.110254
C19   C     C_R   0.951781 0.529709 0.377178 0.162356
C20   C     C_R   0.048220 0.470291 0.622822 0.162356
C21   C     C_R   0.012978 0.549482 0.486790 0.068004
C22   C     C_R   0.987022 0.450517 0.513210 0.068004
C23   C     C_R   0.945009 0.394675 0.470052 -0.202316
C24   C     C_R   0.054991 0.605325 0.529948 -0.202316
C25   C     C_R   0.928488 0.433637 0.403606 -0.230571
C26   C     C_R   0.071514 0.566363 0.596394 -0.230570
H1    H     H_    0.895189 0.387904 0.372553 0.130553
H2    H     H_    0.104813 0.612096 0.627447 0.130552
H3    H     H_    0.955245 0.262960 0.584215 0.100976
H4    H     H_    0.044752 0.737040 0.415785 0.100977
H5    H     H_    0.079964 0.309119 0.769355 0.150210
H6    H     H_    0.920039 0.690880 0.230645 0.150216
H7    H     H_    0.894585 0.521530 0.278612 0.124260
H8    H     H_    0.105418 0.478470 0.721388 0.124258
H9    H     H_    0.922874 0.319991 0.485841 0.124628
H10   H     H_    0.077128 0.680009 0.514159 0.124628
C27   C     C_3   0.820775 0.992854 0.977800 -0.082308
C28   C     C_3   0.179224 0.007146 0.022200 -0.082308
C29   C     C_3   0.918318 0.919337 0.033948 -0.129548
C30   C     C_3   0.081682 0.080663 0.966052 -0.129546
H11   H     H_    0.851243 0.852812 0.062354 0.167280
H12   H     H_    0.148757 0.147188 0.937646 0.167277
H13   H     H_    0.672627 0.986978 0.959318 0.125453
H14   H     H_    0.327373 0.013022 0.040682 0.125452
C31   C     C_3   0.992394 0.998992 0.062229 -0.109131
C32   C     C_3   0.007606 0.001008 0.937771 -0.109130
C33   C     C_3   0.894953 0.072537 0.006884 -0.125424
C34   C     C_3   0.105048 0.927463 0.993115 -0.125424
H15   H     H_    0.808035 0.132292 0.012992 0.120406
H16   H     H_    0.191965 0.867708 0.987007 0.120405
C35   C     C_3   0.681200 0.995600 0.479133 -0.098885
C36   C     C_3   0.318800 0.004400 0.520867 -0.098885
C37   C     C_3   0.601987 0.074035 0.507709 -0.130032
C38   C     C_3   0.398013 0.925965 0.492291 -0.130033
H17   H     H_    0.686017 0.135146 0.514556 0.098853
H18   H     H_    0.313983 0.864854 0.485444 0.098853
H19   H     H_    0.830731 0.992045 0.461691 0.111175
H20   H     H_    0.169269 0.007955 0.538309 0.111175
C39   C     C_3   0.502737 0.998991 0.562260 -0.079370
C40   C     C_3   0.497263 0.001009 0.437739 -0.079371
C41   C     C_3   0.581990 0.920570 0.534503 -0.140859
C42   C     C_3   0.418010 0.079430 0.465497 -0.140859
H21   H     H_    0.649325 0.855003 0.563436 0.105217
H22   H     H_    0.350675 0.144997 0.436564 0.105217
C43   C     C_R   0.499098 0.276851 0.178210 -0.085745
C44   C     C_R   0.500902 0.723148 0.821789 -0.085745
C45   C     C_R   0.526306 0.433093 0.192006 -0.092238
C46   C     C_R   0.473690 0.566907 0.807994 -0.092235
C47   C     C_R   0.521339 0.336576 0.218584 -0.200936
C48   C     C_R   0.478656 0.663424 0.781416 -0.200935
C49   C     C_R   0.487879 0.313284 0.110918 -0.206752
C50   C     C_R   0.512125 0.686716 0.889082 -0.206752
C51   C     C_R   0.498572 0.411210 0.082039 0.117620
C52   C     C_R   0.501433 0.588789 0.917961 0.117621
C53   C     C_R   0.509649 0.471736 0.124233 -0.014941
C54   C     C_R   0.490353 0.528264 0.875767 -0.014939
C55   C     C_R   0.497769 0.450375 0.012981 0.020070
C56   C     C_R   0.502237 0.549625 0.987019 0.020069
C57   C     C_R   0.503078 0.606814 0.030858 -0.310466
C58   C     C_R   0.496929 0.393185 0.969141 -0.310468
C59   C     C_R   0.506376 0.569532 0.098091 0.324683
C60   C     C_R   0.493630 0.430467 0.901909 0.324675
H23   H     H_    0.531372 0.737279 0.916999 0.095878
H24   H     H_    0.468636 0.262721 0.083001 0.095878
H25   H     H_    0.466815 0.691552 0.729223 0.103055
H26   H     H_    0.533176 0.308448 0.270777 0.103055
H27   H     H_    0.545451 0.476876 0.225118 0.158349
H28   H     H_    0.454540 0.523124 0.774881 0.158349
H29   H     H_    0.495258 0.681959 0.014666 0.165176
H30   H     H_    0.504751 0.318041 0.985333 0.165179
N1    N     N_R   0.499179 0.632803 0.139130 0.227320
O21   O     O_R   0.602844 0.709324 0.125056 -0.445487
O22   O     O_R   0.365209 0.622907 0.183032 -0.422221
N2    N     N_R   0.500830 0.367197 0.860869 0.227321
O23   O     O_R   0.397182 0.290669 0.874946 -0.445484
O24   O     O_R   0.634791 0.377099 0.816964 -0.422223

loop_
_geom_bond_atom_site_label_1
_geom_bond_atom_site_label_2
_geom_bond_distance
_ccdc_geom_bond_type
C27   C32   1.541546 S    
C29   H11   1.109362 S    
C55   C56   1.425721 A    
O11   V3    1.993658 S    
C2    C39   1.502519 S    
O13   V3    1.708723 S    
C5    C31   1.503737 S    
O4    C2    1.296986 A    
V1    O19   1.707010 S    
C58   C60   1.394032 A    
C6    C32   1.503738 S    
C23   C25   1.386649 A    
C21   C22   1.432614 A    
C7    C9    1.461038 S    
O9    V1    1.998846 S    
C9    C15   1.398691 A    
C10   C16   1.398690 A    
C57   H29   1.075041 S    
C36   C38   1.549580 S    
O3    C1    1.296986 A    
C38   H18   1.110547 S    
C35   C40   1.539914 S    
C15   H4    1.076770 S    
C37   C39   1.539953 S    
O12   V4    1.993658 S    
N1    O21   1.301111 A    
C31   C33   1.539228 S    
C18   C22   1.432887 A    
C30   C33   1.550236 S    
C45   H27   1.081361 S    
C27   C29   1.549310 S    
O7    C3    1.293701 A    
N2    O23   1.301121 A    
C4    C44   1.459797 S    
C28   C30   1.549309 S    
O5    C7    1.294344 A    
C13   H6    1.083617 S    
C35   C41   1.549699 S    
O6    C8    1.294344 A    
C14   H5    1.083618 S    
C29   C31   1.538456 S    
O8    V2    2.016687 S    
N1    O22   1.301528 A    
C50   C52   1.417900 A    
C26   H2    1.084599 S    
O3    V1    2.004306 S    
O14   V4    1.708722 S    
C30   C32   1.538456 S    
C11   C19   1.404380 A    
O14   V2    2.155404 S    
C47   H26   1.083701 S    
C24   H10   1.075701 S    
C27   C33   1.549196 S    
C41   H21   1.110301 S    
C1    C40   1.502519 S    
C8    C10   1.461038 S    
C2    O12   1.296963 A    
C60   N2    1.438355 S    
C17   C19   1.420561 A    
C18   C20   1.420560 A    
C36   C39   1.539915 S    
O1    V3    2.022885 S    
O18   C8    1.292426 A    
C51   C53   1.425199 A    
O7    V1    2.016687 S    
C44   C48   1.390849 A    
C37   H17   1.110547 S    
O17   V3    2.025214 S    
C53   C59   1.406692 A    
C19   C25   1.391469 A    
C34   H16   1.110395 S    
O8    C4    1.293701 A    
C36   H20   1.110542 S    
C33   H15   1.110395 S    
C35   H19   1.110543 S    
C1    O11   1.296962 A    
C25   H1    1.084599 S    
C52   C56   1.433382 A    
O15   V3    1.994717 S    
C9    C13   1.394948 A    
C28   C31   1.541546 S    
C30   H12   1.109364 S    
C43   C49   1.395668 A    
C45   C47   1.390195 A    
C27   H13   1.110514 S    
O10   V2    1.998846 S    
C46   C48   1.390197 A    
C28   C34   1.549196 S    
C57   C59   1.394030 A    
C24   C26   1.386649 A    
C35   C37   1.549580 S    
C58   H30   1.075043 S    
C38   C41   1.549916 S    
C39   C41   1.539292 S    
C50   H23   1.076466 S    
C37   C42   1.549916 S    
O18   V4    2.025214 S    
C55   C58   1.413546 A    
C52   C54   1.425199 A    
O15   C5    1.299292 A    
O16   C6    1.299293 A    
C12   C20   1.404380 A    
O1    C3    1.291884 A    
O2    V4    2.022886 S    
C36   C42   1.549699 S    
C46   C54   1.411891 A    
V2    O20   1.707012 S    
C21   C24   1.414098 A    
C20   C26   1.391470 A    
C22   C23   1.414099 A    
O16   V4    1.994713 S    
C3    C43   1.459796 S    
C10   C14   1.394951 A    
C54   C60   1.406696 A    
C59   N1    1.438348 S    
C46   H28   1.081361 S    
C40   C42   1.539292 S    
C16   C18   1.417447 A    
C49   C51   1.417897 A    
C44   C50   1.395666 A    
O5    V1    2.018471 S    
O17   C7    1.292426 A    
O6    V2    2.018471 S    
O10   C6    1.294986 A    
C48   H25   1.083704 S    
C12   H8    1.084165 S    
C28   H14   1.110514 S    
C11   H7    1.084164 S    
C12   C14   1.391007 A    
C11   C13   1.391007 A    
V3    O19   2.157381 S    
V4    O20   2.157380 S    
O9    C5    1.294987 A    
O13   V1    2.155406 S    
C42   H22   1.110301 S    
C43   C47   1.390849 A    
C56   C57   1.413543 A    
O2    C4    1.291882 A    
N2    O24   1.301528 A    
C49   H24   1.076465 S    
C23   H9    1.075701 S    
O4    V2    2.004309 S    
C38   C40   1.539953 S    
C29   C34   1.550236 S    
C15   C17   1.417447 A    
C16   H3    1.076772 S    
C17   C21   1.432887 A    
C32   C34   1.539227 S    
C45   C53   1.411891 A    
C51   C55   1.433382 A    
