data_mof_unit_25507.cif
_audit_creation_date              2012-10-26T20:33:16-0400
_audit_creation_method            fapswitch 2.2
_symmetry_space_group_name_H-M    P1
_symmetry_Int_Tables_number       1
_space_group_crystal_system       triclinic
_cell_length_a                    17.703139
_cell_length_b                    10.837652
_cell_length_c                    9.538524
_cell_angle_alpha                 90.266303
_cell_angle_beta                  90.157737
_cell_angle_gamma                 90.406474
_cell_volume                      1829.9926785

loop_
_atom_site_label
_atom_site_type_symbol
_atom_type_description
_atom_site_fract_x
_atom_site_fract_y
_atom_site_fract_z
_atom_type_partial_charge
C1    C     C_R   0.497656 0.262322 0.499543 0.573982
C2    C     C_R   0.113445 0.496662 0.494756 -0.065658
C3    C     C_R   0.491907 0.064332 0.624390 -0.040721
C4    C     C_R   0.355344 0.499633 0.499953 0.587728
C5    C     C_R   0.488537 0.129293 0.498727 -0.043338
C6    C     C_R   0.473243 0.063471 0.373856 0.380599
C7    C     C_R   0.473410 0.934730 0.374171 0.388072
C8    C     C_R   0.489036 0.870720 0.499385 -0.047427
C9    C     C_R   0.492282 0.937379 0.624766 -0.036411
C10   C     C_3   0.548589 0.933246 0.741444 -0.262143
C11   C     C_3   0.547906 0.073229 0.741254 -0.239383
C12   C     C_R   0.884351 0.491291 0.492669 -0.004331
C13   C     C_R   0.530099 0.597259 0.074772 0.180575
C14   C     C_R   0.462339 0.411616 0.073718 0.026937
C15   C     C_R   0.462247 0.411687 0.924775 0.001390
C16   C     C_R   0.497987 0.737737 0.499981 0.555515
C17   C     C_R   0.531846 0.595800 0.927660 0.187196
C18   C     C_3   0.612265 0.640757 0.927342 0.126381
C19   C     C_3   0.608476 0.645934 0.086693 -0.238785
C20   C     C_R   0.644206 0.498063 0.500005 0.562572
C21   C     C_R   0.845927 0.414473 0.586217 -0.125723
C22   C     C_R   0.765843 0.412957 0.590016 0.273301
C23   C     C_1   0.965051 0.492993 0.491694 -0.018535
C24   C     C_R   0.726824 0.493331 0.499309 0.040512
C25   C     C_R   0.766295 0.568350 0.404688 -0.190175
C26   C     C_R   0.844711 0.567441 0.401537 -0.133746
C27   C     C_3   0.735979 0.601638 0.871530 -0.095979
C28   C     C_3   0.763844 0.247887 0.750821 -0.117158
C29   C     C_3   0.260570 0.506411 0.847744 -0.068341
C30   C     C_1   0.032775 0.494625 0.492292 -0.018166
C31   C     C_R   0.151711 0.459958 0.615367 -0.113724
C32   C     C_R   0.230855 0.463229 0.620328 0.212302
C33   C     C_R   0.271876 0.499297 0.499701 0.031041
C34   C     C_R   0.232116 0.535984 0.378504 0.334398
C35   C     C_R   0.153433 0.534966 0.376857 -0.087365
Cu1   Cu    Cu3+1 0.500000 0.499980 0.640670 1.026932
Cu2   Cu    Cu3+1 0.500000 0.500020 0.359330 1.057849
F1    F     F_    0.462033 0.874203 0.250807 -0.580017
F2    F     F_    0.268998 0.574527 0.261823 -0.619980
F3    F     F_    0.461959 0.122278 0.250291 -0.604985
H1    H     H_    0.879385 0.357509 0.655055 0.094665
H2    H     H_    0.610011 0.741610 0.129117 0.115123
H3    H     H_    0.736279 0.629502 0.334800 0.109881
H4    H     H_    0.874462 0.626964 0.328935 0.122345
H5    H     H_    0.120146 0.427763 0.705438 0.133949
H6    H     H_    0.123676 0.563712 0.283216 0.145027
H7    H     H_    0.752593 0.652225 0.968870 0.083885
H8    H     H_    0.739716 0.663831 0.779367 0.109517
H9    H     H_    0.777432 0.526601 0.857117 0.156353
H10   H     H_    0.802025 0.291090 0.829955 0.113830
H11   H     H_    0.795092 0.187296 0.676879 0.104430
H12   H     H_    0.524134 0.893081 0.838417 0.170599
H13   H     H_    0.723637 0.188428 0.809037 0.141413
H14   H     H_    0.201214 0.511891 0.884896 0.121240
H15   H     H_    0.281528 0.599355 0.816192 0.136488
H16   H     H_    0.295551 0.475860 0.937602 0.174876
H17   H     H_    0.603585 0.894138 0.707808 0.116127
H18   H     H_    0.523000 0.113647 0.837828 0.179245
H19   H     H_    0.602372 0.115166 0.707754 0.154522
H20   H     H_    0.432792 0.339100 0.128892 0.188701
H21   H     H_    0.432692 0.339116 0.868454 0.148328
H22   H     H_    0.618447 0.732118 0.875980 0.077694
H23   H     H_    0.647255 0.580537 0.139256 0.164928
N1    N     N_R   0.500470 0.500930 0.147930 -0.234976
N2    N     N_R   0.500480 0.500890 0.852020 -0.221161
O1    O     O_R   0.500000 0.319640 0.618810 -0.507697
O2    O     O_3   0.722389 0.338309 0.678598 -0.532670
O3    O     O_3   0.267985 0.419728 0.737878 -0.557629
O4    O     O_R   0.500010 0.319680 0.381230 -0.457369
O5    O     O_R   0.391250 0.499990 0.618840 -0.486727
O6    O     O_R   0.391260 0.500020 0.381250 -0.439204
O7    O     O_R   0.499990 0.680320 0.618770 -0.528057
O8    O     O_R   0.500000 0.680360 0.381190 -0.440551
O9    O     O_R   0.608740 0.499980 0.618750 -0.412967
O10   O     O_R   0.608750 0.500010 0.381160 -0.539431
O11   O     O_3   0.662947 0.549284 0.881014 -0.499917

loop_
_geom_bond_atom_site_label_1
_geom_bond_atom_site_label_2
_ccdc_geom_bond_type
C27   H8    S    
C2    C35   A    
Cu2   O4    S    
C16   O7    A    
C10   H12   S    
C25   H3    S    
C4    O5    A    
C26   H4    S    
C7    C8    A    
C12   C23   S    
C1    C5    S    
Cu1   Cu2   S    
C18   C19   S    
C5    C6    A    
C28   H11   S    
Cu1   O1    S    
C29   H14   S    
C15   N2    A    
C34   C35   A    
C28   H10   S    
C20   C24   S    
C19   H23   S    
C8    C9    A    
C11   H18   S    
C9    C10   S    
C19   H2    S    
C32   O3    S    
Cu2   O10   S    
C8    C16   S    
C21   C22   A    
C11   H19   S    
Cu1   O5    S    
C33   C34   A    
C13   C19   S    
C34   F2    S    
C23   C30   T    
C28   O2    S    
C24   C25   A    
Cu1   N2    S    
C18   H22   S    
C29   H15   S    
C25   C26   A    
C12   C21   A    
C1    O4    A    
C16   O8    A    
C20   O10   A    
C12   C26   A    
C2    C31   A    
C1    O1    A    
C3    C9    A    
C29   O3    S    
C31   C32   A    
C14   N1    A    
C10   H17   S    
C17   C18   S    
C15   H21   S    
C20   O9    A    
Cu1   O9    S    
C21   H1    S    
Cu2   O6    S    
C6    F3    S    
C27   O11   S    
Cu2   N1    S    
C27   H7    S    
Cu2   O8    S    
C4    C33   S    
C18   O11   S    
C3    C5    A    
C28   H13   S    
C6    C7    A    
C29   H16   S    
C14   H20   S    
C17   N2    A    
C13   C17   A    
C2    C30   S    
C32   C33   A    
C13   N1    A    
C7    F1    S    
C22   C24   A    
C22   O2    S    
C3    C11   S    
C10   C11   S    
C27   H9    S    
C31   H5    S    
C14   C15   A    
C35   H6    S    
C4    O6    A    
Cu1   O7    S    
