data_mof_unit_38291.cif
_audit_creation_date              2012-12-10T17:50:14-0500
_audit_creation_method            fapswitch 2.2
_symmetry_space_group_name_H-M    P1
_symmetry_Int_Tables_number       1
_space_group_crystal_system       triclinic
_cell_length_a                    10.63532
_cell_length_b                    14.692503
_cell_length_c                    14.806649
_cell_angle_alpha                 64.440442
_cell_angle_beta                  103.527687
_cell_angle_gamma                 102.942352
_cell_volume                      2009.28065344

loop_
_atom_site_label
_atom_site_type_symbol
_atom_type_description
_atom_site_fract_x
_atom_site_fract_y
_atom_site_fract_z
_atom_type_partial_charge
C1    C     C_R   0.476884 0.120277 0.312182 0.810553
C2    C     C_R   0.522551 0.879889 0.687700 0.807712
C3    C     C_R   0.492659 0.292768 0.174955 -0.162172
C4    C     C_R   0.481985 0.709422 0.826224 -0.170074
C5    C     C_R   0.431964 0.366137 0.086935 0.092683
C6    C     C_R   0.481842 0.645236 0.929393 0.104076
C7    C     C_R   0.340532 0.330738 0.018583 0.134921
C8    C     C_R   0.553265 0.683908 0.001694 0.133340
C9    C     C_R   0.461815 0.473098 0.063340 -0.024281
C10   C     C_R   0.420779 0.541901 0.962292 -0.021402
C11   C     C_R   0.319196 0.504742 0.899181 -0.035805
C12   C     C_R   0.527937 0.515370 0.135751 -0.008413
C13   C     C_R   0.283515 0.399924 0.927256 -0.263369
C14   C     C_R   0.571589 0.619635 0.103574 -0.260705
C15   C     C_R   0.737559 0.293816 0.651233 -0.305223
C16   C     C_R   0.259028 0.703174 0.353645 -0.298001
C17   C     C_R   0.698258 0.210229 0.625303 0.086976
C18   C     C_R   0.304397 0.791018 0.371913 0.092837
C19   C     C_R   0.506217 0.277921 0.522447 0.025781
C20   C     C_R   0.484655 0.716070 0.488839 0.023871
C21   C     C_R   0.541444 0.366055 0.544748 -0.042937
C22   C     C_R   0.444716 0.624634 0.472707 -0.015281
C23   C     C_R   0.259713 0.000580 0.499739 0.854877
C24   C     C_R   0.740270 0.999578 0.500017 0.840270
C25   C     C_R   0.660752 0.372650 0.610048 0.153158
C26   C     C_R   0.327867 0.619412 0.404529 0.153865
C27   C     C_R   0.466699 0.449250 0.501158 0.081333
C28   C     C_R   0.515445 0.538975 0.521365 0.078931
C29   C     C_R   0.633914 0.540438 0.588423 -0.218944
C30   C     C_R   0.346015 0.446439 0.436891 -0.167191
C31   C     C_R   0.704169 0.458587 0.632257 -0.175107
C32   C     C_R   0.279390 0.530367 0.388538 -0.177264
C33   C     C_3   0.015716 0.013347 0.406342 -0.290012
C34   C     C_3   0.984295 0.987058 0.593068 -0.289645
C35   C     C_3   0.963157 0.087042 0.432311 0.468302
C36   C     C_3   0.036803 0.913374 0.567079 0.463101
C37   C     C_3   0.876626 0.998494 0.500309 -0.063386
C38   C     C_3   0.123350 0.001896 0.499124 -0.065171
C39   C     C_3   0.927912 0.922562 0.475990 -0.261884
C40   C     C_3   0.072075 0.077854 0.523409 -0.248300
C41   C     C_R   0.444604 0.189035 0.205383 -0.057860
C42   C     C_R   0.533670 0.812695 0.795860 -0.051689
C43   C     C_R   0.302531 0.225733 0.044167 -0.179229
C44   C     C_R   0.606016 0.787082 0.971433 -0.176835
C45   C     C_R   0.351418 0.155355 0.138332 -0.203466
C46   C     C_R   0.593914 0.851534 0.869229 -0.192747
Cu1   Cu    Cu3+1 0.465750 0.918270 0.475680 0.959236
Cu2   Cu    Cu3+1 0.534250 0.081730 0.524320 0.970060
H1    H     H_    0.569458 0.725763 0.541771 0.117925
H2    H     H_    0.418277 0.266820 0.472805 0.158242
H3    H     H_    0.250082 0.855073 0.334262 0.119843
H4    H     H_    0.758068 0.149732 0.656390 0.125310
H5    H     H_    0.828596 0.297602 0.701861 0.145045
H6    H     H_    0.169786 0.700273 0.301001 0.144847
H7    H     H_    0.676373 0.604499 0.608062 0.129196
H8    H     H_    0.300111 0.380174 0.421841 0.155370
H9    H     H_    0.031266 0.026237 0.329910 0.150497
H10   H     H_    0.968832 0.974167 0.669519 0.151770
H11   H     H_    0.867908 0.857956 0.458894 0.161243
H12   H     H_    0.132132 0.142456 0.540493 0.158509
H13   H     H_    0.206972 0.371767 0.878943 0.173633
H14   H     H_    0.621064 0.651228 0.158852 0.172248
H15   H     H_    0.444261 0.679345 0.768719 0.153827
H16   H     H_    0.576776 0.314318 0.222194 0.163614
H17   H     H_    0.634996 0.931081 0.847627 0.153567
H18   H     H_    0.313272 0.075287 0.159868 0.149928
H19   H     H_    0.230607 0.198247 0.993087 0.136081
H20   H     H_    0.657584 0.817762 0.026845 0.136909
H21   H     H_    0.795286 0.463658 0.682483 0.150887
H22   H     H_    0.188404 0.525301 0.338199 0.155108
N1    N     N_R   0.585750 0.204560 0.560800 -0.184699
N2    N     N_R   0.414250 0.795440 0.439200 -0.180762
O1    O     O_R   0.454850 0.022100 0.338110 -0.596153
O2    O     O_R   0.545150 0.977900 0.661890 -0.592413
O3    O     O_R   0.512700 0.160150 0.379180 -0.553720
O4    O     O_R   0.487300 0.839850 0.620820 -0.579977
O5    O     O_R   0.287930 0.931000 0.479440 -0.565140
O6    O     O_R   0.712070 0.069000 0.520560 -0.569191
O7    O     O_R   0.345780 0.069050 0.520520 -0.602235
O8    O     O_R   0.654220 0.930950 0.479480 -0.602591
O9    O     O_3   0.919339 0.178310 0.361385 -0.722694
H23   H     H_    0.996532 0.221128 0.329835 0.320016
O10   O     O_3   0.080621 0.822114 0.637925 -0.691579
H24   H     H_    0.003175 0.778923 0.668855 0.324653
C47   C     C_2   0.232460 0.571025 0.812922 0.832777
O11   O     O_2   0.202901 0.644926 0.816791 -0.558005
O12   O     O_R   0.180795 0.546792 0.728762 -0.772218
H25   H     H_    0.122429 0.597150 0.675467 0.346455
C48   C     C_2   0.540671 0.458499 0.246711 0.820548
O13   O     O_2   0.448269 0.399617 0.285020 -0.623928
O14   O     O_R   0.658772 0.474005 0.307294 -0.762313
H26   H     H_    0.659399 0.427949 0.381446 0.340078

loop_
_geom_bond_atom_site_label_1
_geom_bond_atom_site_label_2
_ccdc_geom_bond_type
C25   C31   A    
C38   C40   S    
O12   H25   S    
C26   C32   A    
C40   H12   S    
C34   C37   S    
C19   N1    A    
O9    H23   S    
C35   O9    S    
C3    H16   S    
C4    H15   S    
C33   C39   S    
C34   C40   S    
C15   H5    S    
Cu2   O7    S    
C28   C29   A    
C35   C37   S    
C11   C47   S    
Cu1   O4    S    
C15   C25   A    
C36   O10   S    
C14   H14   S    
C42   C46   A    
Cu2   O6    S    
C24   O8    A    
Cu1   Cu2   S    
C8    C14   A    
C7    C43   A    
C48   O14   S    
C9    C10   A    
C2    O2    A    
C21   C27   A    
C22   C28   A    
C27   C30   A    
C16   C26   A    
Cu2   O3    S    
Cu1   O8    S    
C17   H4    S    
C44   C46   A    
C18   H3    S    
C47   O12   S    
C18   N2    A    
C1    O3    A    
Cu2   O2    S    
C12   C48   S    
Cu1   O1    S    
C46   H17   S    
C4    C6    A    
O14   H26   S    
C5    C7    A    
C32   H22   S    
C29   H7    S    
C47   O11   D    
C30   H8    S    
C43   H19   S    
C5    C9    A    
C20   H1    S    
O10   H24   S    
C7    C13   A    
C29   C31   A    
C39   H11   S    
C24   C37   S    
C23   O5    A    
C43   C45   A    
C1    C41   S    
C12   C14   A    
C17   N1    A    
C44   H20   S    
Cu1   O5    S    
Cu2   N1    S    
C45   H18   S    
C2    O4    A    
C24   O6    A    
C15   C17   A    
C21   C25   A    
C3    C41   A    
C33   H9    S    
C19   C21   A    
C36   C39   S    
C8    C44   A    
C20   C22   A    
C3    C5    A    
C6    C10   A    
C6    C8    A    
C23   C38   S    
C33   C38   S    
C1    O1    A    
C36   C38   S    
C35   C40   S    
C37   C39   S    
C30   C32   A    
C11   C13   A    
C19   H2    S    
C4    C42   A    
C2    C42   S    
C33   C35   S    
C34   C36   S    
C9    C12   A    
C16   H6    S    
Cu1   N2    S    
C10   C11   A    
C31   H21   S    
C13   H13   S    
C16   C18   A    
C22   C26   A    
C27   C28   A    
C34   H10   S    
C41   C45   A    
C20   N2    A    
C23   O7    A    
C48   O13   D    
