data_mof_unit_28711.cif
_audit_creation_date              2012-12-11T15:49:34-0500
_audit_creation_method            fapswitch 2.2
_symmetry_space_group_name_H-M    P1
_symmetry_Int_Tables_number       1
_space_group_crystal_system       triclinic
_cell_length_a                    8.277973
_cell_length_b                    19.059672
_cell_length_c                    27.026357
_cell_angle_alpha                 95.254093
_cell_angle_beta                  92.870527
_cell_angle_gamma                 85.193046
_cell_volume                      4227.37902739

loop_
_atom_site_label
_atom_site_type_symbol
_atom_type_description
_atom_site_fract_x
_atom_site_fract_y
_atom_site_fract_z
_atom_type_partial_charge
Ba1   Ba    Ba6+2 0.854000 0.466860 0.523710 1.874608
Ba2   Ba    Ba6+2 0.335820 0.533080 0.476290 1.854376
C1    C     C_3   0.632983 0.216590 0.657777 0.528611
C2    C     C_3   0.637972 0.288460 0.637856 0.329598
C3    C     C_3   0.532691 0.651594 0.629373 1.259836
C4    C     C_3   0.574479 0.674723 0.683564 -0.226484
C5    C     C_3   0.979097 0.739555 0.343221 0.794816
C6    C     C_3   0.013982 0.736098 0.288330 1.130288
C7    C     C_3   0.525334 0.715482 0.330807 0.879636
C8    C     C_3   0.441269 0.780314 0.308884 -0.182390
C9    C     C_R   0.015895 0.450391 0.179411 0.594883
C10   C     C_R   0.921190 0.572441 0.178440 0.691159
C11   C     C_2   0.763086 0.547568 0.271886 -0.084811
C12   C     C_3   0.134478 0.309983 0.660111 0.238503
C13   C     C_3   0.744638 0.571333 0.326352 -0.101026
C14   C     C_1   0.983617 0.490547 0.343236 0.085528
C15   C     C_2   0.024141 0.486798 0.295737 -0.042945
C16   C     C_2   0.906007 0.514742 0.256420 0.224792
C17   C     C_R   0.030276 0.509526 0.102932 -0.153644
C18   C     C_R   0.058788 0.448529 0.128978 -0.012094
C19   C     C_R   0.128711 0.386629 0.103939 -0.038804
C20   C     C_R   0.960547 0.571941 0.127990 -0.146168
C21   C     C_2   0.852259 0.527604 0.360191 -0.217739
C22   C     C_2   0.346048 0.481728 0.643155 0.312202
C23   C     C_3   0.093555 0.292155 0.711498 0.510426
C24   C     C_R   0.189736 0.444676 0.976553 0.017968
C25   C     C_R   0.075224 0.568098 0.974573 0.045483
C26   C     C_R   0.152505 0.505840 0.950301 0.065023
C27   C     C_R   0.271460 0.384952 0.950922 -0.095140
C28   C     C_R   0.311998 0.384880 0.901433 -0.033017
C29   C     C_R   0.273057 0.444214 0.874848 -0.057580
C30   C     C_R   0.193139 0.504830 0.899204 -0.085307
C31   C     C_R   0.154789 0.564648 0.872544 -0.057556
C32   C     C_R   0.195770 0.563096 0.822173 0.665197
C33   C     C_R   0.312394 0.443995 0.824357 0.691611
C34   C     C_3   0.189188 0.318261 0.418777 0.621061
C35   C     C_2   0.460398 0.484546 0.730258 -0.254218
C36   C     C_3   0.497760 0.487930 0.676173 0.014252
C37   C     C_1   0.210016 0.515311 0.658602 -0.058679
C38   C     C_2   0.175636 0.519321 0.706591 0.516416
C39   C     C_2   0.306861 0.501276 0.745476 0.181446
C40   C     C_R   0.145172 0.445277 0.027228 0.040932
C41   C     C_R   0.071497 0.508163 0.051823 0.051598
C42   C     C_R   0.038722 0.569808 0.025885 -0.062920
C43   C     C_R   0.170992 0.384927 0.054462 -0.095508
C44   C     C_R   0.932834 0.632910 0.102124 0.661727
C45   C     C_3   0.203407 0.238548 0.406208 0.545502
C46   C     C_R   0.036365 0.626738 0.946283 -0.088182
C47   C     C_R   0.075743 0.625001 0.896702 -0.047025
C48   C     C_R   0.971123 0.631685 0.052541 -0.140449
C49   C     C_R   0.399224 0.299275 0.522223 -0.264747
C50   C     C_R   0.540583 0.277163 0.497657 0.037059
C51   C     C_R   0.595067 0.205268 0.493325 -0.144289
C52   C     C_R   0.506826 0.154923 0.513154 -0.024875
C53   C     C_R   0.361681 0.178409 0.537124 -0.110855
C54   C     C_R   0.307467 0.250378 0.540879 0.008761
C55   C     C_R   0.545569 0.033778 0.544496 -0.070767
C56   C     C_3   0.004188 0.680528 0.578271 0.371039
C57   C     C_R   0.593912 0.961434 0.537861 -0.078179
C58   C     C_R   0.659014 0.931199 0.492912 0.037750
C59   C     C_R   0.676600 0.975512 0.455049 -0.054098
C60   C     C_R   0.628073 0.047896 0.461664 -0.062538
C61   C     C_R   0.561307 0.078006 0.506434 0.057765
C62   C     C_R   0.849405 0.827379 0.461749 -0.026671
C63   C     C_R   0.892661 0.754215 0.455943 0.028085
C64   C     C_R   0.654110 0.732569 0.498424 0.055106
C65   C     C_R   0.608867 0.805195 0.503896 -0.067211
C66   C     C_R   0.705148 0.853634 0.485290 0.005524
C67   C     C_3   0.978209 0.760006 0.590863 -0.362449
C68   C     C_R   0.791378 0.707351 0.472685 -0.184833
C69   C     C_3   0.645802 0.373473 0.371451 0.799332
C70   C     C_3   0.582901 0.357719 0.317981 0.509259
H1    H     H_    0.740301 0.285012 0.612362 -0.029781
H2    H     H_    0.282901 0.224602 0.374282 0.056992
H3    H     H_    0.889529 0.659665 0.563444 -0.069473
H4    H     H_    0.946049 0.787158 0.556905 0.013775
H5    H     H_    0.091382 0.780550 0.608174 0.144289
H6    H     H_    0.584804 0.424287 0.386840 -0.021957
H7    H     H_    0.645685 0.307928 0.301413 0.064893
H8    H     H_    0.607122 0.401336 0.295503 -0.029052
H9    H     H_    0.521554 0.300808 0.617206 -0.014332
H10   H     H_    0.614987 0.175844 0.626347 -0.066834
H11   H     H_    0.516219 0.728403 0.693719 0.070441
H12   H     H_    0.708078 0.675691 0.689576 0.098408
H13   H     H_    0.528231 0.821627 0.308783 0.128530
H14   H     H_    0.337777 0.802263 0.331529 0.115425
H15   H     H_    0.074460 0.362928 0.654237 0.080609
H16   H     H_    0.151480 0.338647 0.122656 0.134218
H17   H     H_    0.559285 0.474101 0.757182 0.154169
H18   H     H_    0.374397 0.337508 0.883918 0.136629
H19   H     H_    0.308119 0.337110 0.968161 0.077767
H20   H     H_    0.222275 0.334680 0.038505 0.077272
H21   H     H_    0.973076 0.675165 0.960972 0.081202
H22   H     H_    0.267959 0.311609 0.658655 0.067241
H23   H     H_    0.042925 0.671647 0.877157 0.130734
H24   H     H_    0.947677 0.681266 0.036425 0.115089
H25   H     H_    0.836758 0.538633 0.399848 0.060038
H26   H     H_    0.501720 0.823797 0.524144 0.060111
H27   H     H_    0.497251 0.055259 0.579706 0.082136
H28   H     H_    0.704371 0.188678 0.473618 0.121293
H29   H     H_    0.724415 0.953869 0.419800 0.123536
H30   H     H_    0.639529 0.079987 0.431177 0.091620
H31   H     H_    0.930432 0.863508 0.449625 0.096722
H32   H     H_    0.287606 0.140864 0.550902 0.086585
H33   H     H_    0.827058 0.651242 0.469677 0.005372
H34   H     H_    0.109055 0.331012 0.450640 -0.004913
N1    N     N_R   0.947843 0.512098 0.203938 -0.440250
N2    N     N_R   0.270729 0.502645 0.798085 -0.405718
O1    O     O_2   0.913240 0.537010 0.617740 -0.394496
O2    O     O_3   0.620554 0.316684 0.398586 -0.617310
O3    O     O_3   0.077811 0.258320 0.624576 -0.659842
O4    O     O_2   0.276450 0.462960 0.382230 -0.447155
O5    O     O_3   0.044470 0.462980 0.442430 -0.503712
O6    O     O_3   0.519740 0.589470 0.411120 -0.445548
O7    O     O_3   0.125692 0.350352 0.376826 -0.516620
O8    O     O_3   0.632420 0.583650 0.524140 -0.420804
O9    O     O_3   0.111040 0.625070 0.435230 -0.501606
O10   O     O_2   0.230457 0.748682 0.463452 -0.466361
O11   O     O_3   0.126896 0.733291 0.371028 -0.612185
O12   O     O_3   0.145240 0.536960 0.557560 -0.452870
O13   O     O_3   0.557280 0.416300 0.475860 -0.482775
O14   O     O_2   0.376710 0.670070 0.522470 -0.432400
O15   O     O_3   0.584817 0.700990 0.599553 -0.703838
O16   O     O_2   0.432099 0.522496 0.324064 -0.481270
O17   O     O_3   0.421416 0.660120 0.326175 -0.561790
O18   O     O_2   0.037352 0.396701 0.201138 -0.563421
O19   O     O_2   0.382923 0.391251 0.803748 -0.506848
O20   O     O_2   0.863984 0.627293 0.199863 -0.427421
O21   O     O_2   0.166788 0.616124 0.800001 -0.546529
O22   O     O_3   0.669960 0.410470 0.588880 -0.439150
O23   O     O_2   0.832407 0.446144 0.673267 -0.415294
O24   O     O_3   0.055535 0.649625 0.621841 -0.563082
O25   O     O_3   0.659824 0.340091 0.677595 -0.589397
O26   O     O_2   0.812980 0.329910 0.477500 -0.432950
O27   O     O_3   0.078660 0.374870 0.564770 -0.453480
O28   O     O_2   0.972824 0.249484 0.532188 -0.479782
P1    P     P_3+3 0.082480 0.557670 0.610090 1.199149
P2    P     P_3+3 0.635220 0.340300 0.462910 1.085677
P3    P     P_3+3 0.109268 0.282728 0.565193 0.970287
P4    P     P_3+3 0.107220 0.442270 0.389900 1.157037
P5    P     P_3+3 0.089082 0.716916 0.431857 1.025370
P6    P     P_3+3 0.665051 0.422511 0.653929 1.144972
P7    P     P_3+3 0.562578 0.672597 0.536069 1.048420
P8    P     P_3+3 0.530050 0.584266 0.346295 1.042338
H35   H     H_    0.256824 0.211514 0.438412 -0.114547
F1    F     F_    0.051481 0.215175 0.394046 -0.666223
H36   H     H_    0.096760 0.669973 0.549775 0.063451
H37   H     H_    0.878869 0.772198 0.617203 0.123659
F2    F     F_    0.808902 0.378726 0.370742 -0.783166
H38   H     H_    0.749109 0.202264 0.678151 0.022146
F3    F     F_    0.417903 0.350582 0.316461 -0.695851
F4    F     F_    0.367492 0.649277 0.623363 -0.761526
F5    F     F_    0.608392 0.585281 0.618053 -0.726774
H39   H     H_    0.530434 0.637381 0.708085 0.062291
F6    F     F_    0.506639 0.217973 0.689534 -0.683858
F7    F     F_    0.121927 0.348148 0.746059 -0.675277
H40   H     H_    0.902328 0.696039 0.348870 -0.117452
F8    F     F_    0.896226 0.804257 0.356090 -0.742887
F9    F     F_    0.091343 0.671033 0.273372 -0.708814
F10   F     F_    0.870255 0.746375 0.260707 -0.647272
H41   H     H_    0.092597 0.778311 0.281646 -0.045226
H42   H     H_    0.636337 0.700573 0.309658 -0.017571
F11   F     F_    0.566759 0.733348 0.380380 -0.723278
H43   H     H_    0.397344 0.766283 0.270024 0.084664
H44   H     H_    0.144226 0.464944 0.285359 0.151875
H45   H     H_    0.671329 0.566864 0.245234 0.107644
F12   F     F_    0.868041 0.694935 0.124522 -0.614995
F13   F     F_    0.022665 0.540245 0.720809 -0.644950
F14   F     F_    0.342576 0.432533 0.603630 -0.748050
H46   H     H_    0.581662 0.929229 0.568238 0.066772
H47   H     H_    0.963517 0.282097 0.711812 0.037487
H48   H     H_    0.354263 0.354262 0.523530 0.140659
H49   H     H_    0.168938 0.244290 0.721804 0.088595
H50   H     H_    0.310930 0.335990 0.428786 -0.383584

loop_
_geom_bond_atom_site_label_1
_geom_bond_atom_site_label_2
_ccdc_geom_bond_type
C25   C46   A    
C62   H31   S    
C53   C54   A    
C45   H35   S    
C8    H13   S    
C34   H50   S    
C39   N2    S    
O4    P4    D    
C67   H5    S    
C17   C18   A    
C28   H18   S    
O10   P5    D    
C37   P1    S    
O3    P3    S    
C5    C6    S    
C5    F8    S    
C64   C68   A    
C51   C52   A    
O27   P3    S    
Ba2   O4    S    
O25   P6    S    
C35   C36   S    
C3    F4    S    
C11   C16   D    
C67   H4    S    
C3    C4    S    
C62   C66   A    
C49   H48   S    
C12   H15   S    
Ba1   Ba2   S    
C70   H7    S    
C6    H41   S    
C28   C29   A    
Ba2   O5    S    
C55   C57   A    
C52   C61   S    
O17   P8    S    
C31   C47   A    
C63   C68   A    
C55   H27   S    
C69   O2    S    
C10   C20   A    
C22   C37   D    
C34   C45   S    
O1    P1    D    
C49   C54   A    
C7    F11   S    
C43   H20   S    
C16   N1    S    
C33   N2    Am   
C65   H26   S    
Ba1   O1    S    
Ba2   O8    S    
C25   C42   A    
C2    H9    S    
C32   O21   D    
C56   O24   S    
C14   C15   D    
C22   C36   S    
Ba1   O8    S    
C57   H46   S    
C7    C8    S    
C59   C60   A    
C23   H47   S    
C13   C21   S    
C64   C65   A    
C19   H16   S    
C57   C58   A    
C23   F7    S    
C36   P6    S    
C14   P4    S    
Ba1   O5    S    
O14   P7    D    
O28   P3    D    
Ba2   O9    S    
C17   C41   A    
C56   H3    S    
C55   C61   A    
C19   C43   A    
Ba2   O14   S    
C51   H28   S    
C12   O3    S    
C9    C18   A    
C4    H12   S    
C44   F12   S    
C34   H34   S    
C65   C66   A    
C5    O11   S    
O2    P2    S    
C9    O18   D    
Ba1   O22   S    
C46   H21   S    
C37   C38   D    
C54   P3    S    
Ba2   O12   S    
C56   H36   S    
C64   P7    S    
O24   P1    S    
C53   H32   S    
C7    O17   S    
C49   C50   A    
C58   C59   A    
Ba1   O12   S    
O6    P8    S    
O13   P2    S    
C59   H29   S    
C41   C42   A    
C60   C61   A    
O8    P7    S    
C63   P5    S    
C50   P2    S    
C29   C30   A    
C26   C30   A    
C70   F3    S    
C17   C20   A    
C1    H10   S    
C1    F6    S    
C15   C16   S    
O5    P4    S    
C47   H23   S    
C33   O19   D    
C22   F14   S    
C2    H1    S    
C4    H39   S    
O23   P6    D    
C5    H40   S    
C46   C47   A    
C21   H25   S    
C14   C21   D    
C11   C13   S    
C9    N1    Am   
O11   P5    S    
C38   F13   S    
C29   C33   A    
C40   C41   A    
Ba1   O26   S    
C6    F10   S    
C27   H19   S    
Ba1   P1    S    
C50   C51   A    
C24   C40   A    
Ba2   O13   S    
C42   C48   A    
C3    O15   S    
C52   C53   A    
C8    H14   S    
C1    H38   S    
C8    H43   S    
C4    H11   S    
C20   C44   A    
O7    P4    S    
C45   H2    S    
C68   H33   S    
O26   P2    D    
C10   N1    Am   
C56   C67   S    
C10   O20   D    
C44   C48   A    
C24   C26   A    
C35   H17   S    
Ba2   P4    S    
C62   C63   A    
C32   N2    Am   
C69   C70   S    
C70   H8    S    
C15   H44   S    
C30   C31   A    
Ba2   O6    S    
C48   H24   S    
C11   H45   S    
C69   F2    S    
C3    F5    S    
C31   C32   A    
C12   C23   S    
C35   C39   D    
C7    H42   S    
O22   P6    S    
Ba1   O13   S    
C45   F1    S    
C6    F9    S    
C40   C43   A    
C27   C28   A    
C13   P8    S    
C23   H49   S    
C18   C19   A    
C58   C66   S    
C24   C27   A    
O15   P7    S    
C25   C26   A    
C67   H37   S    
O9    P5    S    
O16   P8    D    
C38   C39   S    
O12   P1    S    
Ba1   O27   S    
C34   O7    S    
C12   H22   S    
C69   H6    S    
Ba1   P2    S    
C1    C2    S    
C2    O25   S    
C60   H30   S    
