data_mof_unit_25369.cif
_audit_creation_date              2012-12-11T15:21:33-0500
_audit_creation_method            fapswitch 2.2
_symmetry_space_group_name_H-M    P1
_symmetry_Int_Tables_number       1
_space_group_crystal_system       triclinic
_cell_length_a                    19.209558
_cell_length_b                    7.206767
_cell_length_c                    17.632672
_cell_angle_alpha                 89.652293
_cell_angle_beta                  108.84066
_cell_angle_gamma                 89.584401
_cell_volume                      2310.10363528

loop_
_atom_site_label
_atom_site_type_symbol
_atom_type_description
_atom_site_fract_x
_atom_site_fract_y
_atom_site_fract_z
_atom_type_partial_charge
O1    O     O_R   0.562310 0.505770 0.439670 -0.532371
O2    O     O_R   0.437690 0.005770 0.560330 -0.537305
O3    O     O_R   0.411650 0.169150 0.405330 -0.498852
O4    O     O_R   0.588350 0.669150 0.594670 -0.533993
C1    C     C_R   0.384109 0.346077 0.383942 0.711506
C2    C     C_R   0.614599 0.844135 0.617088 0.735145
O5    O     O_R   0.560140 0.175610 0.430010 -0.540680
O6    O     O_R   0.439860 0.675610 0.569990 -0.538563
O7    O     O_R   0.587240 0.012100 0.585200 -0.546002
O8    O     O_R   0.412760 0.512100 0.414800 -0.544061
C3    C     C_R   0.580970 0.344448 0.415038 0.702745
C4    C     C_R   0.419312 0.844631 0.585270 0.718546
O9    O     O_3   0.508720 0.341420 0.550890 -0.382187
O10   O     O_3   0.491280 0.841420 0.449110 -0.363447
V1    V     V_3+5 0.498380 0.063930 0.490560 1.524477
V2    V     V_3+5 0.501620 0.563930 0.509440 1.498643
C5    C     C_R   0.180425 0.060925 0.868286 -0.070347
C6    C     C_R   0.822163 0.260666 0.125595 -0.080471
C7    C     C_R   0.130794 0.916873 0.865905 -0.092837
C8    C     C_R   0.867996 0.415558 0.132699 -0.088465
C9    C     C_R   0.130057 0.761757 0.817848 -0.149107
C10   C     C_R   0.864897 0.557946 0.185492 -0.133760
C11   C     C_R   0.177397 0.750861 0.771811 0.168267
C12   C     C_R   0.817786 0.544900 0.231772 0.168356
C13   C     C_R   0.227634 0.895451 0.774828 0.015713
C14   C     C_R   0.771956 0.388470 0.224478 0.017006
C15   C     C_R   0.229841 0.051251 0.823936 -0.072359
C16   C     C_R   0.773532 0.245596 0.170511 -0.064830
C17   C     C_R   0.175527 0.596547 0.723107 -0.138908
C18   C     C_R   0.815851 0.686313 0.285351 -0.144942
C19   C     C_R   0.223176 0.583942 0.677974 -0.141166
C20   C     C_R   0.769164 0.673837 0.331560 -0.121479
C21   C     C_R   0.273467 0.725702 0.680414 0.169834
C22   C     C_R   0.723266 0.520057 0.324840 0.159338
C23   C     C_R   0.275816 0.882853 0.728935 0.016305
C24   C     C_R   0.724505 0.376025 0.271158 0.017455
C25   C     C_R   0.326327 0.026329 0.731587 -0.053313
C26   C     C_R   0.678218 0.220804 0.264087 -0.056906
C27   C     C_R   0.329534 0.180186 0.782017 0.328306
C28   C     C_R   0.678756 0.079970 0.208734 0.340633
C29   C     C_R   0.281789 0.192205 0.828132 0.347877
C30   C     C_R   0.726265 0.092028 0.162375 0.336186
C31   C     C_R   0.321310 0.712362 0.634969 -0.117386
C32   C     C_R   0.675995 0.509059 0.370842 -0.130369
C33   C     C_R   0.370696 0.855491 0.635760 -0.087962
C34   C     C_R   0.630367 0.354770 0.365341 -0.099403
C35   C     C_R   0.372728 0.011487 0.683967 -0.117864
C36   C     C_R   0.632091 0.211340 0.312235 -0.102806
H1    H     H_    0.091940 0.650027 0.815559 0.134269
H2    H     H_    0.899930 0.677945 0.191469 0.136203
H3    H     H_    0.137548 0.484411 0.720464 0.123938
H4    H     H_    0.850348 0.807272 0.291333 0.124893
H5    H     H_    0.220912 0.462497 0.641334 0.121356
H6    H     H_    0.768536 0.785532 0.372229 0.154045
H7    H     H_    0.319083 0.591946 0.597703 0.122786
H8    H     H_    0.675459 0.620219 0.411819 0.165437
H9    H     H_    0.411465 0.120009 0.684453 0.177731
H10   H     H_    0.596400 0.093860 0.308183 0.182150
C37   C     C_3   0.787037 0.698437 0.800599 0.674237
C38   C     C_3   0.252199 0.327842 0.160756 0.617403
C39   C     C_3   0.715319 0.671792 0.727793 -0.307006
C40   C     C_3   0.322747 0.295011 0.235028 -0.327641
H11   H     H_    0.672359 0.603204 0.747633 0.198594
H12   H     H_    0.370795 0.365933 0.226070 0.178397
H13   H     H_    0.725114 0.577943 0.682361 0.222567
H14   H     H_    0.337836 0.145151 0.242630 0.222211
H15   H     H_    0.865207 0.896453 0.719024 0.212002
H16   H     H_    0.162398 0.132972 0.225957 0.247823
C41   C     C_3   0.820069 0.975824 0.730874 -0.365341
C42   C     C_3   0.176263 0.272873 0.252440 -0.332987
C43   C     C_3   0.744118 0.014966 0.823387 0.256102
C44   C     C_3   0.212597 0.598477 0.230742 0.242898
C45   C     C_3   0.810929 0.908723 0.810931 -0.179118
C46   C     C_3   0.187413 0.409458 0.188224 -0.192123
C47   C     C_3   0.685721 0.860337 0.687716 -0.140268
C48   C     C_3   0.311841 0.365563 0.313266 -0.159177
C49   C     C_3   0.746719 0.956181 0.660240 0.272780
C50   C     C_3   0.246190 0.261504 0.328138 0.279427
C51   C     C_3   0.671416 0.980365 0.753861 -0.425017
C52   C     C_3   0.287300 0.573987 0.298593 -0.363990
H17   H     H_    0.644349 0.113697 0.727720 0.214868
H18   H     H_    0.283484 0.633269 0.355189 0.238522
H19   H     H_    0.837709 0.123019 0.735532 0.218853
H20   H     H_    0.128249 0.316521 0.270413 0.172230
H21   H     H_    0.727265 0.098102 0.637529 0.139974
H22   H     H_    0.233522 0.330274 0.378567 0.121562
O11   O     O_R   0.087220 0.271820 0.085230 -0.529373
O12   O     O_R   0.912780 0.771820 0.914770 -0.502990
O13   O     O_R   0.939860 0.595540 0.069990 -0.528474
O14   O     O_R   0.060140 0.095540 0.930010 -0.544234
C53   C     C_R   0.918684 0.426710 0.084548 0.747961
C54   C     C_R   0.080951 0.926640 0.915024 0.728710
O15   O     O_R   0.088340 0.601930 0.094680 -0.516970
O16   O     O_R   0.911660 0.101930 0.905320 -0.500150
O17   O     O_R   0.062310 0.765410 0.939660 -0.531847
O18   O     O_R   0.937690 0.265410 0.060340 -0.550892
C55   C     C_R   0.115863 0.430966 0.117375 0.768714
C56   C     C_R   0.883534 0.932025 0.882268 0.751116
O19   O     O_3   0.991270 0.429630 0.949130 -0.348886
O20   O     O_3   0.008730 0.929630 0.050870 -0.379365
V3    V     V_3+5 0.001620 0.707150 0.009440 1.648042
V4    V     V_3+5 0.998380 0.207150 0.990560 1.625107
H23   H     H_    0.180905 0.178617 0.906234 0.203121
H24   H     H_    0.824287 0.152990 0.083924 0.181694
Cl1   Cl    Cl    0.771054 0.628407 0.892818 -0.534243
Cl2   Cl    Cl    0.272803 0.483320 0.091020 -0.515861
Cl3   Cl    Cl    0.762684 0.836281 0.578327 -0.681878
Cl4   Cl    Cl    0.266310 0.024770 0.358758 -0.636388
Cl5   Cl    Cl    0.759076 0.251808 0.830667 -0.563686
Cl6   Cl    Cl    0.144625 0.695926 0.269780 -0.628916
H25   H     H_    0.736584 0.976524 0.881246 0.184691
H26   H     H_    0.219527 0.702277 0.186908 0.196855
H27   H     H_    0.631814 0.908823 0.778076 0.178569
H28   H     H_    0.329799 0.654673 0.282459 0.196869
Cl7   Cl    Cl    0.394311 0.358619 0.789583 -0.536341
Cl8   Cl    Cl    0.618845 0.888326 0.195101 -0.520319
Cl9   Cl    Cl    0.289334 0.383745 0.892657 -0.454420
Cl10  Cl    Cl    0.724828 0.913675 0.093156 -0.521024
Cl11  Cl    Cl    0.857275 0.552164 0.782821 -0.582921
Cl12  Cl    Cl    0.229427 0.110707 0.108941 -0.577058

loop_
_geom_bond_atom_site_label_1
_geom_bond_atom_site_label_2
_ccdc_geom_bond_type
C18   C20   A    
C44   H26   S    
O18   V4    S    
C42   C50   S    
C41   C49   S    
O1    C3    A    
O2    C4    A    
C2    O7    A    
C43   C51   S    
O12   V3    S    
C38   Cl2   S    
C2    C47   S    
C27   C29   A    
C39   C47   S    
O5    C3    A    
C37   Cl1   S    
C11   C17   A    
C50   Cl4   S    
C23   C25   A    
C48   C50   S    
O16   C56   A    
C6    C8    A    
C38   C40   S    
C52   H28   S    
C16   C30   A    
C39   H11   S    
C32   H8    S    
O14   V4    S    
C40   H12   S    
C7    C54   S    
C5    C7    A    
C53   O18   A    
C43   H25   S    
C42   C46   S    
C19   C21   A    
C41   C45   S    
C25   C35   A    
C42   H20   S    
C37   C45   S    
C26   C36   A    
C10   H2    S    
C50   H22   S    
C28   C30   A    
C49   H21   S    
O6    V2    S    
C40   C48   S    
C20   H6    S    
C32   C34   A    
C46   C55   S    
C44   Cl6   S    
C33   C35   A    
C45   C56   S    
C8    C53   S    
C34   C36   A    
C37   C39   S    
C40   H14   S    
C5    C15   A    
C49   Cl3   S    
C6    C16   A    
C44   C46   S    
O15   V3    S    
C43   C45   S    
C30   Cl10  S    
O5    V1    S    
C54   O17   A    
C44   C52   S    
H15   C41   S    
C21   C31   A    
O4    V2    S    
C7    C9    A    
C41   H19   S    
C35   H9    S    
O11   V4    S    
C31   C33   A    
C15   C29   A    
O14   C54   A    
O6    C4    A    
C22   C32   A    
O1    V2    S    
C6    H24   S    
C19   H5    S    
O2    V1    S    
C47   C49   S    
C13   C23   A    
C9    H1    S    
C52   H18   S    
C8    C10   A    
C27   Cl7   S    
C9    C11   A    
C10   C12   A    
O4    C2    A    
O13   C53   A    
C24   C26   A    
O15   C55   A    
O3    V1    S    
C51   H17   S    
C17   H3    S    
C14   C24   A    
C18   H4    S    
C37   Cl11  S    
O13   V3    S    
C48   C52   S    
C12   C14   A    
C4    C33   S    
O3    C1    A    
C36   H10   S    
C31   H7    S    
C13   C15   A    
C14   C16   A    
C1    C48   S    
C51   H27   S    
C5    H23   S    
C1    O8    A    
C25   C27   A    
O8    V2    S    
C26   C28   A    
C28   Cl8   S    
C43   Cl5   S    
C38   C46   S    
O20   V3    S    
C21   C23   A    
C38   Cl12  S    
C22   C24   A    
C11   C13   A    
O7    V1    S    
C12   C18   A    
C39   H13   S    
O19   V4    S    
O16   V4    S    
C17   C19   A    
O9    V2    S    
H16   C42   S    
O10   V1    S    
C3    C34   S    
C29   Cl9   S    
C47   C51   S    
O12   C56   A    
O17   V3    S    
C20   C22   A    
O11   C55   A    
