data_mof_unit_47660.cif
_audit_creation_date              2012-10-26T20:32:03-0400
_audit_creation_method            fapswitch 2.2
_symmetry_space_group_name_H-M    P1
_symmetry_Int_Tables_number       1
_space_group_crystal_system       triclinic
_cell_length_a                    10.645318
_cell_length_b                    10.823906
_cell_length_c                    9.547417
_cell_angle_alpha                 90.219268
_cell_angle_beta                  90.550445
_cell_angle_gamma                 90.092963
_cell_volume                      1100.03048936

loop_
_atom_site_label
_atom_site_type_symbol
_atom_type_description
_atom_site_fract_x
_atom_site_fract_y
_atom_site_fract_z
_atom_type_partial_charge
C1    C     C_R   0.497715 0.262348 0.499633 0.547181
C2    C     C_R   0.465538 0.937284 0.623181 0.066922
C3    C     C_3   0.533486 0.931711 0.761106 -0.039633
C4    C     C_R   0.259534 0.500482 0.499239 0.564133
C5    C     C_3   0.538181 0.072238 0.758514 -0.213682
C6    C     C_R   0.563115 0.589570 0.074741 0.151218
C7    C     C_R   0.428144 0.418957 0.073306 -0.013839
C8    C     C_R   0.428063 0.419007 0.924399 -0.009860
C9    C     C_R   0.563536 0.589142 0.927478 0.141770
C10   C     C_3   0.700970 0.614930 0.923644 -0.283173
C11   C     C_3   0.700463 0.616342 0.082500 -0.263068
C12   C     C_3   0.957679 0.600496 0.440328 0.093197
C13   C     C_R   0.496995 0.737725 0.500111 0.543816
C14   C     C_R   0.740518 0.499371 0.500678 0.562537
C15   C     C_3   0.042548 0.399120 0.558908 0.095560
C16   C     C_3   0.957223 0.399431 0.428116 -0.147238
C17   C     C_3   0.877029 0.498250 0.501964 0.042427
C18   C     C_3   0.961394 0.495196 0.634423 -0.103655
C19   C     C_3   0.042972 0.600192 0.571168 -0.139454
C20   C     C_3   0.038945 0.504391 0.364837 -0.106799
C21   C     C_3   0.123132 0.501380 0.497487 0.047573
C22   C     C_R   0.468324 0.064469 0.622416 0.014133
C23   C     C_R   0.484719 0.129341 0.498017 -0.008377
C24   C     C_R   0.481689 0.063840 0.370607 -0.167479
C25   C     C_R   0.481334 0.935096 0.371116 -0.165246
C26   C     C_R   0.483099 0.870829 0.499048 -0.015459
Cu1   Cu    Cu3+1 0.499990 0.499980 0.640670 0.936500
Cu2   Cu    Cu3+1 0.500010 0.500020 0.359330 0.937041
H1    H     H_    0.920570 0.316356 0.372640 0.105577
H2    H     H_    0.720199 0.709121 0.128005 0.145736
H3    H     H_    0.930390 0.487768 0.744536 0.113823
H4    H     H_    0.079552 0.683289 0.626672 0.111253
H5    H     H_    0.071960 0.510902 0.255148 0.124718
H6    H     H_    0.486640 0.111227 0.271073 0.136734
H7    H     H_    0.486559 0.886703 0.271812 0.140400
H8    H     H_    0.016999 0.233173 0.652677 0.222117
H9    H     H_    0.143118 0.240081 0.548854 0.226151
H10   H     H_    0.983245 0.766450 0.346597 0.226496
H11   H     H_    0.857098 0.759501 0.450457 0.222297
H12   H     H_    0.626601 0.885339 0.756642 0.120519
H13   H     H_    0.505336 0.885105 0.964938 0.216786
H14   H     H_    0.427977 0.795076 0.849505 0.259770
H15   H     H_    0.481798 0.117882 0.841384 0.157603
H16   H     H_    0.634907 0.109436 0.746455 0.107465
H17   H     H_    0.371941 0.351742 0.128266 0.114481
H18   H     H_    0.371726 0.351877 0.867682 0.131335
H19   H     H_    0.755165 0.536396 0.880264 0.148215
H20   H     H_    0.722370 0.706455 0.877337 0.116457
H21   H     H_    0.756012 0.539564 0.128830 0.170275
N1    N     N_R   0.500800 0.500930 0.147930 -0.231014
N2    N     N_R   0.500800 0.500890 0.852020 -0.234019
N3    N     N_3   0.093201 0.288620 0.624997 -0.620997
N4    N     N_3   0.907034 0.710998 0.374281 -0.634906
N5    N     N_3   0.452225 0.886556 0.872235 -0.628942
O1    O     O_R   0.500000 0.319640 0.618810 -0.504449
O2    O     O_R   0.500010 0.319680 0.381230 -0.515118
O3    O     O_R   0.316850 0.499950 0.618770 -0.484972
O4    O     O_R   0.316860 0.499990 0.381190 -0.515175
O5    O     O_R   0.499990 0.680320 0.618770 -0.507250
O6    O     O_R   0.500000 0.680360 0.381190 -0.501154
O7    O     O_R   0.683140 0.500010 0.618810 -0.516644
O8    O     O_R   0.683150 0.500050 0.381230 -0.490613

loop_
_geom_bond_atom_site_label_1
_geom_bond_atom_site_label_2
_ccdc_geom_bond_type
C4    O3    A    
C12   C17   S    
C15   C18   S    
C23   C24   A    
C2    C22   A    
C11   H21   S    
Cu2   O4    S    
C9    C10   S    
C5    C22   S    
C12   N4    S    
H8    N3    S    
C15   C21   S    
C16   C20   S    
C25   C26   A    
C9    N2    A    
C12   C20   S    
C6    C9    A    
C17   C18   S    
C1    O1    A    
C7    C8    A    
C2    C26   A    
C13   O6    A    
Cu1   O5    S    
C15   N3    S    
H14   N5    S    
C10   H20   S    
C4    C21   S    
C14   C17   S    
H11   N4    S    
H10   N4    S    
C25   H7    S    
C13   O5    A    
C20   H5    S    
C7    H17   S    
C12   C19   S    
C19   C21   S    
C1    O2    A    
Cu1   N2    S    
C3    H12   S    
C1    C23   S    
Cu1   O1    S    
Cu2   O6    S    
C5    H15   S    
C13   C26   S    
C3    N5    S    
C8    H18   S    
H13   N5    S    
C10   C11   S    
C19   H4    S    
C4    O4    A    
C15   C16   S    
C14   O8    A    
C6    N1    A    
C10   H19   S    
C24   C25   A    
C7    N1    A    
C20   C21   S    
C18   C19   S    
Cu1   O3    S    
C8    N2    A    
C6    C11   S    
H9    N3    S    
C22   C23   A    
C2    C3    S    
C18   H3    S    
Cu1   O7    S    
C3    C5    S    
C16   H1    S    
C14   O7    A    
Cu2   N1    S    
C5    H16   S    
C24   H6    S    
Cu2   O2    S    
C11   H2    S    
C16   C17   S    
Cu1   Cu2   S    
Cu2   O8    S    
