data_mof_unit_20665.cif
_audit_creation_date              2012-12-11T17:35:13-0500
_audit_creation_method            fapswitch 2.2
_symmetry_space_group_name_H-M    P1
_symmetry_Int_Tables_number       1
_space_group_crystal_system       monoclinic
_cell_length_a                    24.119936
_cell_length_b                    7.156757
_cell_length_c                    22.227749
_cell_angle_alpha                 90.0
_cell_angle_beta                  99.31063
_cell_angle_gamma                 90.0
_cell_volume                      3786.41633915

loop_
_atom_site_label
_atom_site_type_symbol
_atom_type_description
_atom_site_fract_x
_atom_site_fract_y
_atom_site_fract_z
_atom_type_partial_charge
O1    O     O_R   0.801940 0.607920 0.199180 -0.515667
O2    O     O_R   0.198060 0.392080 0.800820 -0.516095
O3    O     O_R   0.698060 0.107920 0.300820 -0.515667
O4    O     O_R   0.301940 0.892080 0.699180 -0.516095
O5    O     O_R   0.687840 0.274940 0.181980 -0.523054
O6    O     O_R   0.312160 0.725060 0.818020 -0.518926
O7    O     O_R   0.812160 0.774940 0.318020 -0.523054
O8    O     O_R   0.187840 0.225060 0.681980 -0.518926
C1    C     C_R   0.669928 0.447839 0.164019 0.768992
C2    C     C_R   0.330028 0.552153 0.836022 0.776085
C3    C     C_R   0.830072 0.947839 0.335981 0.768992
C4    C     C_R   0.169972 0.052152 0.663978 0.776086
O9    O     O_R   0.800890 0.278000 0.191820 -0.532083
O10   O     O_R   0.199110 0.722000 0.808180 -0.534998
O11   O     O_R   0.699110 0.778000 0.308180 -0.532083
O12   O     O_R   0.300890 0.222000 0.691820 -0.534999
O13   O     O_R   0.811910 0.110860 0.310720 -0.525832
O14   O     O_R   0.188090 0.889140 0.689280 -0.526184
O15   O     O_R   0.688090 0.610860 0.189280 -0.525832
O16   O     O_R   0.311910 0.389140 0.810720 -0.526184
C5    C     C_R   0.818209 0.446773 0.178641 0.804337
C6    C     C_R   0.181808 0.553228 0.821400 0.808040
C7    C     C_R   0.681791 0.946773 0.321359 0.804337
C8    C     C_R   0.318192 0.053228 0.678600 0.808040
O17   O     O_3   0.753490 0.442410 0.289000 -0.366597
O18   O     O_3   0.246510 0.557590 0.711000 -0.365322
O19   O     O_3   0.746510 0.942410 0.211000 -0.366596
O20   O     O_3   0.253490 0.057590 0.789000 -0.365322
V1    V     V_3+5 0.749350 0.166330 0.242770 1.680895
V2    V     V_3+5 0.250650 0.833670 0.757230 1.658506
V3    V     V_3+5 0.750650 0.666330 0.257230 1.680895
V4    V     V_3+5 0.249350 0.333670 0.742770 1.658506
C9    C     C_R   0.387240 0.089929 0.536586 -0.117410
C10   C     C_R   0.612247 0.912032 0.463033 -0.111083
C11   C     C_R   0.112760 0.589929 0.963414 -0.117410
C12   C     C_R   0.887753 0.412031 0.036967 -0.111083
H1    H     H_    0.375955 0.133639 0.489536 0.159672
H2    H     H_    0.623397 0.869179 0.510184 0.161399
H3    H     H_    0.124045 0.633639 0.010464 0.159672
H4    H     H_    0.876603 0.369179 0.989816 0.161399
C13   C     C_R   0.347246 0.101656 0.575882 0.105757
C14   C     C_R   0.652408 0.899660 0.423957 0.105905
C15   C     C_R   0.152754 0.601656 0.924118 0.105757
C16   C     C_R   0.847592 0.399661 0.076043 0.105905
C17   C     C_R   0.360928 0.043795 0.637309 -0.209948
C18   C     C_R   0.638883 0.956327 0.362407 -0.200021
C19   C     C_R   0.139072 0.543795 0.862690 -0.209948
C20   C     C_R   0.861117 0.456327 0.137592 -0.200021
C21   C     C_R   0.415913 0.975676 0.658437 0.366246
C22   C     C_R   0.583896 0.023781 0.340913 0.396213
C23   C     C_R   0.084087 0.475676 0.841563 0.366246
C24   C     C_R   0.916104 0.523781 0.159087 0.396213
C25   C     C_R   0.455198 0.963873 0.618156 -0.188770
C26   C     C_R   0.544441 0.036313 0.380961 -0.203630
C27   C     C_R   0.044802 0.463873 0.881844 -0.188771
C28   C     C_R   0.955559 0.536312 0.119039 -0.203630
H5    H     H_    0.496974 0.910161 0.634139 0.181566
H6    H     H_    0.502664 0.089481 0.364675 0.173318
H7    H     H_    0.003025 0.410161 0.865861 0.181566
H8    H     H_    0.997336 0.589480 0.135325 0.173318
C29   C     C_R   0.441213 0.020676 0.557384 0.004902
C30   C     C_R   0.558272 0.980758 0.441885 0.010542
C31   C     C_R   0.058787 0.520676 0.942616 0.004902
C32   C     C_R   0.941728 0.480758 0.058115 0.010542
C33   C     C_1   0.482374 0.006920 0.516491 0.017396
C34   C     C_1   0.516967 0.994897 0.482600 0.019206
C35   C     C_1   0.017626 0.506920 0.983509 0.017395
C36   C     C_1   0.983033 0.494897 0.017400 0.019206
C37   C     C_R   0.918321 0.819520 0.395969 -0.137931
C38   C     C_R   0.081676 0.180402 0.604076 -0.137979
C39   C     C_R   0.581679 0.319520 0.104030 -0.137931
C40   C     C_R   0.418324 0.680403 0.895924 -0.137979
C41   C     C_R   0.877630 0.961564 0.388145 -0.110550
C42   C     C_R   0.122400 0.038460 0.611837 -0.109892
C43   C     C_R   0.622369 0.461564 0.111854 -0.110550
C44   C     C_R   0.377600 0.538460 0.888163 -0.109892
C45   C     C_R   0.884224 0.116945 0.428809 0.120325
C46   C     C_R   0.115829 0.883188 0.571138 0.120228
C47   C     C_R   0.615776 0.616945 0.071191 0.120325
C48   C     C_R   0.384170 0.383188 0.928862 0.120228
C49   C     C_R   0.934017 0.135327 0.472416 0.055837
C50   C     C_R   0.066030 0.864767 0.527546 0.059076
C51   C     C_R   0.565982 0.635327 0.027584 0.055837
C52   C     C_R   0.433970 0.364767 0.972454 0.059076
C53   C     C_R   0.975173 0.992511 0.478028 0.045345
C54   C     C_R   0.024865 0.007549 0.521951 0.046389
C55   C     C_R   0.524827 0.492511 0.021972 0.045345
C56   C     C_R   0.475135 0.507549 0.978049 0.046389
C57   C     C_R   0.966623 0.833736 0.440192 0.071339
C58   C     C_R   0.033399 0.166269 0.559813 0.066975
C59   C     C_R   0.533377 0.333737 0.059807 0.071339
C60   C     C_R   0.466601 0.666269 0.940186 0.066975
C61   C     C_R   0.944094 0.293237 0.510635 -0.143394
C62   C     C_R   0.055958 0.706859 0.489326 -0.147209
C63   C     C_R   0.555906 0.793237 0.989364 -0.143394
C64   C     C_R   0.444042 0.206859 0.010674 -0.147209
C65   C     C_R   0.992977 0.308167 0.553575 -0.131011
C66   C     C_R   0.007055 0.691863 0.446417 -0.136833
C67   C     C_R   0.507023 0.808167 0.946425 -0.131011
C68   C     C_R   0.492945 0.191863 0.053583 -0.136833
H9    H     H_    0.912954 0.698140 0.366595 0.214775
H10   H     H_    0.086993 0.301597 0.633543 0.217767
H11   H     H_    0.587046 0.198140 0.133404 0.214775
H12   H     H_    0.413006 0.801597 0.866456 0.217767
H13   H     H_    0.915003 0.408735 0.507580 0.172963
H14   H     H_    0.085064 0.591402 0.492370 0.171263
H15   H     H_    0.584997 0.908735 0.992420 0.172963
H16   H     H_    0.414936 0.091402 0.007630 0.171263
H17   H     H_    0.999143 0.431731 0.582091 0.175089
H18   H     H_    0.000888 0.568291 0.417903 0.168502
H19   H     H_    0.500857 0.931731 0.917909 0.175089
H20   H     H_    0.499112 0.068291 0.082097 0.168502
I1    I     I_    0.265960 0.199842 0.538504 -0.325707
I2    I     I_    0.733648 0.801988 0.461758 -0.308748
I3    I     I_    0.234040 0.699842 0.961496 -0.325707
I4    I     I_    0.766352 0.301988 0.038242 -0.308748
S1    S     S_3+6 0.437144 0.904793 0.734999 -0.004444
O21   O     O_2   0.500099 0.894184 0.750318 -0.308840
O22   O     O_2   0.415977 0.041805 0.777251 -0.342756
O23   O     O_3   0.409902 0.692886 0.744716 -0.509241
H21   H     H_    0.424289 0.611211 0.714734 0.335753
S2    S     S_3+6 0.562717 0.091713 0.264090 -0.011394
O24   O     O_2   0.586388 0.281987 0.255168 -0.327757
O25   O     O_2   0.584507 0.955323 0.222051 -0.368458
O26   O     O_3   0.492276 0.102172 0.246783 -0.480199
H22   H     H_    0.479572 0.970642 0.247328 0.347331
S3    S     S_3+6 0.062855 0.404793 0.765000 -0.004444
O27   O     O_2   0.999901 0.394184 0.749682 -0.308840
O28   O     O_2   0.084023 0.541805 0.722749 -0.342756
O29   O     O_3   0.090098 0.192887 0.755284 -0.509241
H23   H     H_    0.075711 0.111211 0.785266 0.335754
S4    S     S_3+6 0.937283 0.591713 0.235910 -0.011394
O30   O     O_2   0.913612 0.781987 0.244832 -0.327757
O31   O     O_2   0.915493 0.455323 0.277949 -0.368458
O32   O     O_3   0.007724 0.602172 0.253217 -0.480199
H24   H     H_    0.020428 0.470642 0.252671 0.347332
I5    I     I_    0.816345 0.310189 0.430665 -0.291265
I6    I     I_    0.183755 0.690218 0.569235 -0.298705
I7    I     I_    0.683655 0.810189 0.069335 -0.291265
I8    I     I_    0.316245 0.190218 0.930765 -0.298705

loop_
_geom_bond_atom_site_label_1
_geom_bond_atom_site_label_2
_ccdc_geom_bond_type
O17   V3    S    
C51   C55   A    
C55   C56   A    
C21   C25   A    
O1    C5    A    
C66   H18   S    
C4    C42   S    
O19   V1    S    
O13   V1    S    
C47   I7    S    
C22   S2    S    
C10   C30   A    
C40   C44   A    
O15   V3    S    
O32   H24   S    
C53   C54   A    
O18   V4    S    
C22   C26   A    
C50   C62   A    
C8    C17   S    
C32   C36   S    
O9    V1    S    
C45   I5    S    
C27   H7    S    
S1    O22   D    
C52   C64   A    
C11   H3    S    
O4    C8    A    
C63   C67   A    
C62   C66   A    
O1    V3    S    
C65   H17   S    
O2    V4    S    
C14   C18   A    
O3    V1    S    
C41   C45   A    
C15   I3    S    
C2    C44   S    
C14   I2    S    
C21   S1    S    
C56   C60   A    
C2    O16   A    
S4    O30   D    
C27   C31   A    
C38   C42   A    
C28   C32   A    
C37   C41   A    
O14   V2    S    
C45   C49   A    
C59   C68   A    
C11   C15   A    
C58   C65   A    
C48   C52   A    
C5    C20   S    
C61   H13   S    
O11   C7    A    
C6    C19   S    
C64   H16   S    
C67   H19   S    
O12   C8    A    
C7    C18   S    
C39   C43   A    
C38   C58   A    
C25   C29   A    
O10   V2    S    
O16   V4    S    
C37   C57   A    
C46   I6    S    
C1    O15   A    
O5    V1    S    
C31   C35   S    
C10   C14   A    
O7    V3    S    
C55   C59   A    
C30   C34   S    
C35   C36   T    
C24   S4    S    
C44   C48   A    
C12   H4    S    
C54   C58   A    
S1    O23   S    
C53   C57   A    
C19   C23   A    
C26   C30   A    
O3    C7    A    
C50   C54   A    
C9    H1    S    
C28   H8    S    
O8    V4    S    
O7    C3    A    
S3    O28   D    
O5    C1    A    
C49   C61   A    
C46   C50   A    
C17   C21   A    
O8    C4    A    
C51   C63   A    
O9    C5    A    
C63   H15   S    
S4    O31   D    
O6    V2    S    
C68   H20   S    
C3    C41   S    
O26   H22   S    
C12   C16   A    
S2    O25   D    
S3    O27   D    
C61   C65   A    
O23   H21   S    
C26   H6    S    
C39   H11   S    
C62   H14   S    
C25   H5    S    
C10   H2    S    
C52   C56   A    
C13   I1    S    
C3    O13   A    
O6    C2    A    
C38   H10   S    
O11   V3    S    
C37   H9    S    
O12   V4    S    
C40   H12   S    
C18   C22   A    
C57   C66   A    
C9    C13   A    
O10   C6    A    
S2    O26   S    
O20   V2    S    
O29   H23   S    
S3    O29   S    
C23   S3    S    
C16   C20   A    
C48   I8    S    
S1    O21   D    
C47   C51   A    
C43   C47   A    
S4    O32   S    
C40   C60   A    
C64   C68   A    
O2    C6    A    
C23   C27   A    
O4    V2    S    
C29   C33   S    
C20   C24   A    
C39   C59   A    
C16   I4    S    
C9    C29   A    
C33   C34   T    
C42   C46   A    
C4    O14   A    
C13   C17   A    
C11   C31   A    
C1    C43   S    
S2    O24   D    
C12   C32   A    
C15   C19   A    
C49   C53   A    
C24   C28   A    
C60   C67   A    
