data_mof_unit_39607.cif
_audit_creation_date              2013-03-05T15:44:21-0500
_audit_creation_method            fapswitch 2.2
_symmetry_space_group_name_H-M    P1
_symmetry_Int_Tables_number       1
_space_group_crystal_system       triclinic
_cell_length_a                    10.768563
_cell_length_b                    10.708897
_cell_length_c                    10.161815
_cell_angle_alpha                 90.692757
_cell_angle_beta                  91.668743
_cell_angle_gamma                 91.197207
_cell_volume                      1171.00748682

loop_
_atom_site_label
_atom_site_type_symbol
_atom_site_description
_atom_site_fract_x
_atom_site_fract_y
_atom_site_fract_z
_atom_type_partial_charge
O1    O     O_R   0.499980 0.319060 0.613040 -0.640168
O2    O     O_R   0.500020 0.319100 0.386900 -0.618976
C1    C     C_R   0.495945 0.262638 0.498418 0.931932
O3    O     O_R   0.314770 0.499960 0.613070 -0.565686
O4    O     O_R   0.314820 0.500000 0.386930 -0.642320
C2    C     C_R   0.260213 0.480097 0.498922 0.967446
Zn1   Zn    Zn3+2 0.499970 0.499970 0.650990 1.046293
Zn2   Zn    Zn3+2 0.500030 0.500030 0.349010 1.063940
O5    O     O_R   0.499980 0.680900 0.613100 -0.588737
O6    O     O_R   0.500020 0.680940 0.386960 -0.531956
O7    O     O_R   0.685180 0.500000 0.613070 -0.559904
O8    O     O_R   0.685230 0.500040 0.386930 -0.552311
C3    C     C_R   0.493446 0.736645 0.500299 0.943824
C4    C     C_R   0.742777 0.495826 0.501381 0.968885
C5    C     C_3   0.070156 0.397090 0.619980 0.190163
H1    H     H_    0.054874 0.298327 0.585164 0.138679
C6    C     C_3   0.932968 0.440126 0.643865 0.787578
H2    H     H_    0.113467 0.659400 0.588254 0.213338
C7    C     C_3   0.082509 0.610205 0.496299 -0.624840
C8    C     C_3   0.066841 0.403986 0.374778 0.230584
C9    C     C_3   0.123462 0.472160 0.499311 -0.233723
H3    H     H_    0.086642 0.462914 0.288051 0.167694
C10   C     C_3   0.881581 0.488572 0.503299 -0.296440
C11   C     C_3   0.940102 0.622481 0.473401 0.938126
C12   C     C_3   0.923070 0.391805 0.392020 0.192524
H4    H     H_    0.900459 0.296848 0.429704 0.117911
H5    H     H_    0.135060 0.659215 0.419314 0.191248
C13   C     C_2   0.442720 0.929010 0.394284 0.501467
C14   C     C_2   0.489214 0.869284 0.499405 -0.499413
H6    H     H_    0.533706 0.918490 0.582875 0.142786
C15   C     C_2   0.474768 0.060855 0.384904 0.260309
C16   C     C_2   0.463843 0.132503 0.493332 -0.537268
H7    H     H_    0.422502 0.094517 0.581111 0.138532
C17   C     C_2   0.554555 0.584248 0.932037 0.332889
N1    N     N_2   0.501360 0.501330 0.852150 0.049873
C18   C     C_2   0.583171 0.557835 0.077848 0.626575
N2    N     N_2   0.501390 0.501360 0.147810 0.039641
O9    O     O_3   0.148834 0.393180 0.735023 -0.610887
C19   C     C_3   0.215344 0.280089 0.741143 -0.215990
H8    H     H_    0.266683 0.262947 0.649838 0.174093
H9    H     H_    0.152913 0.198433 0.757823 0.115052
H10   H     H_    0.282941 0.285511 0.824566 0.226207
O10   O     O_3   0.865088 0.413907 0.267331 -0.565093
C20   C     C_3   0.800294 0.307936 0.213332 -0.177177
H11   H     H_    0.699438 0.316755 0.228292 0.234386
H12   H     H_    0.830577 0.216524 0.251472 0.151485
H13   H     H_    0.815244 0.305550 0.106126 0.121900
O11   O     O_3   0.910281 0.652737 0.339218 -0.571194
C21   C     C_3   0.969339 0.762883 0.292939 -0.375600
H14   H     H_    0.014261 0.823163 0.371341 0.167432
H15   H     H_    0.899096 0.819344 0.239976 0.217132
H16   H     H_    0.040169 0.736311 0.221244 0.162039
O12   O     O_3   0.389076 0.863033 0.287370 -0.530149
C22   C     C_3   0.281658 0.922988 0.239974 -0.258460
H17   H     H_    0.306839 0.003279 0.177546 0.205266
H18   H     H_    0.220863 0.952932 0.321073 0.122014
H19   H     H_    0.227150 0.855846 0.176324 0.177631
N3    N     N_R   0.539214 0.101051 0.270415 0.226836
O13   O     O_R   0.639929 0.044201 0.238969 -0.414691
O14   O     O_R   0.481383 0.165359 0.180880 -0.450520
N4    N     N_R   0.593377 0.702311 0.881617 0.164186
O15   O     O_R   0.679672 0.705946 0.795096 -0.390795
O16   O     O_R   0.567788 0.804072 0.945594 -0.364152
O17   O     O_3   0.479458 0.387760 0.903386 -0.572142
C23   C     C_3   0.581643 0.311773 0.880620 -0.192172
H20   H     H_    0.638158 0.305398 0.972751 0.126269
H21   H     H_    0.641037 0.346129 0.801120 0.218143
H22   H     H_    0.547133 0.216266 0.853648 0.198776
O18   O     O_3   0.693131 0.598373 0.141732 -0.565413
C24   C     C_3   0.792583 0.608272 0.054855 -0.196379
H23   H     H_    0.801913 0.705774 0.020391 0.208584
H24   H     H_    0.785065 0.540750 0.971219 0.121047
H25   H     H_    0.880483 0.586395 0.107151 0.234766
O19   O     O_3   0.384879 0.511565 0.096287 -0.557564
C25   C     C_3   0.315794 0.402907 0.124690 0.016962
H26   H     H_    0.320791 0.332322 0.045231 0.165791
H27   H     H_    0.217416 0.428874 0.128275 0.105178
H28   H     H_    0.344280 0.357253 0.216983 0.213667
O20   O     O_3   0.858892 0.332803 0.675242 -0.665308
C26   C     C_3   0.879254 0.291685 0.805541 -0.325516
H29   H     H_    0.845648 0.359916 0.877856 0.167556
H30   H     H_    0.976975 0.271226 0.828834 0.186489
H31   H     H_    0.825699 0.203243 0.817954 0.181497
O21   O     O_3   0.912681 0.539401 0.737389 -0.558976
C27   C     C_3   0.008116 0.569302 0.831583 -0.152085
H32   H     H_    0.095878 0.599306 0.787050 0.202221
H33   H     H_    0.022167 0.492805 0.902758 0.155247
H34   H     H_    0.979827 0.652248 0.888327 0.145731
O22   O     O_3   0.898764 0.714511 0.565311 -0.612026
C28   C     C_3   0.800751 0.789853 0.518790 -0.130083
H35   H     H_    0.745959 0.819805 0.603191 0.206927
H36   H     H_    0.736946 0.741668 0.446448 0.181494
H37   H     H_    0.838228 0.877250 0.476468 0.145777
O23   O     O_3   0.122745 0.285207 0.362692 -0.640157
C29   C     C_3   0.093016 0.224787 0.241153 -0.374823
H38   H     H_    0.179038 0.185789 0.201851 0.176339
H39   H     H_    0.052402 0.286027 0.164220 0.166981
H40   H     H_    0.028975 0.144604 0.258157 0.185758

loop_
_geom_bond_atom_site_label_1
_geom_bond_atom_site_label_2
_geom_bond_distance
_ccdc_geom_bond_type
N2    O19   1.352440 S    
C29   H38   1.107107 S    
O10   C20   1.416099 S    
C11   O22   1.435983 S    
C12   O10   1.420804 S    
C29   H40   1.108393 S    
C19   H9    1.109519 S    
O12   C22   1.410067 S    
C20   H11   1.106864 S    
Zn1   O7    2.042312 S    
C6    C10   1.612321 S    
C15   N3    1.437741 S    
C3    C14   1.422229 S    
C18   N2    1.292817 D    
C7    C9    1.551896 S    
H2    C7    1.106546 S    
O18   C24   1.410726 S    
O3    Zn1   2.020173 S    
O4    C2    1.313762 A    
O7    C4    1.309872 A    
C8    C12   1.566061 S    
N3    O14   1.299986 A    
C5    H1    1.118538 S    
C6    O20   1.429778 S    
Zn1   O5    1.980007 S    
C17   N1    1.307615 D    
N4    O16   1.300766 A    
O5    C3    1.299560 A    
C21   H15   1.109359 S    
C10   C11   1.590527 S    
N1    O17   1.347719 S    
C7    H5    1.109507 S    
C20   H13   1.105926 S    
C23   H22   1.109374 S    
C1    C16   1.428774 S    
C26   H31   1.108977 S    
C20   H12   1.109050 S    
C19   H10   1.101354 S    
C27   H33   1.109159 S    
C22   H18   1.115526 S    
O19   C25   1.405420 S    
C11   O11   1.434184 S    
O21   C27   1.412951 S    
C26   H30   1.098991 S    
C19   H8    1.109134 S    
C23   H21   1.106589 S    
N3    O13   1.300801 A    
C27   H32   1.103139 S    
C2    C9    1.473411 S    
C17   N4    1.428939 S    
O1    C1    1.304833 A    
C4    C10   1.497924 S    
C25   H26   1.102588 S    
C5    O9    1.425208 S    
C14   H6    1.087038 S    
C28   H36   1.106960 S    
C15   C16   1.344412 D    
Zn2   O8    2.020173 S    
C21   H16   1.109026 S    
C24   H25   1.102837 S    
O23   C29   1.412623 S    
C25   H27   1.102393 S    
C24   H23   1.108823 S    
O3    C2    1.298075 A    
O11   C21   1.420008 S    
O8    C4    1.303520 A    
C23   H20   1.105287 S    
Zn2   N2    2.045256 S    
C18   O18   1.392465 S    
C28   H37   1.108085 S    
C27   H34   1.106098 S    
C5    C6    1.581273 S    
C8    O23   1.424074 S    
C22   H17   1.108484 S    
C13   C14   1.341489 D    
O1    Zn1   1.970781 S    
Zn1   N1    2.043642 S    
C13   C15   1.451376 S    
O2    Zn2   1.980005 S    
C8    H3    1.113172 S    
C26   H29   1.103820 S    
O6    C3    1.295086 A    
O4    Zn2   2.042311 S    
C13   O12   1.393238 S    
C29   H39   1.112209 S    
C6    O21   1.441711 S    
C16   H7    1.087963 S    
O2    C1    1.292309 A    
C12   H4    1.115564 S    
O17   C23   1.405061 S    
C28   H35   1.103334 S    
O9    C19   1.420922 S    
C7    C11   1.552892 S    
C17   C18   1.535440 S    
C10   C12   1.603934 S    
N4    O15   1.298066 A    
C25   H28   1.101500 S    
O20   C26   1.412928 S    
C5    C9    1.589009 S    
C8    C9    1.555744 S    
Zn2   O6    1.970781 S    
C21   H14   1.112442 S    
C24   H24   1.109245 S    
O22   C28   1.415695 S    
C22   H19   1.108550 S    
