data_mof_unit_51119.cif
_audit_creation_date              2012-12-10T17:33:59-0500
_audit_creation_method            fapswitch 2.2
_symmetry_space_group_name_H-M    P1
_symmetry_Int_Tables_number       1
_space_group_crystal_system       triclinic
_cell_length_a                    10.744502
_cell_length_b                    12.00227
_cell_length_c                    12.839865
_cell_angle_alpha                 93.565775
_cell_angle_beta                  90.65239
_cell_angle_gamma                 87.333853
_cell_volume                      1650.75428845

loop_
_atom_site_label
_atom_site_type_symbol
_atom_type_description
_atom_site_fract_x
_atom_site_fract_y
_atom_site_fract_z
_atom_type_partial_charge
C1    C     C_R   0.499380 0.522390 0.700218 0.843990
C2    C     C_R   0.548417 0.458727 0.974159 0.163581
C3    C     C_R   0.473226 0.544668 0.024741 0.184161
C4    C     C_R   0.741782 0.502253 0.505860 0.875494
C5    C     C_R   0.456290 0.544696 0.130651 -0.262084
C6    C     C_R   0.592290 0.376022 0.137657 -0.033000
C7    C     C_R   0.607831 0.375622 0.030322 -0.249898
C8    C     C_R   0.409643 0.951098 0.382318 0.089806
C9    C     C_R   0.400987 0.837553 0.404883 0.314341
C10   C     C_R   0.540176 0.860608 0.548887 -0.069617
C11   C     C_R   0.536632 0.977215 0.538940 0.033892
C12   C     C_3   0.122624 0.493382 0.510435 -0.065630
C13   C     C_R   0.470844 0.022977 0.454734 0.014961
C14   C     C_R   0.464305 0.140342 0.448028 -0.018418
C15   C     C_R   0.590634 0.164469 0.599109 0.012201
C16   C     C_R   0.505387 0.477355 0.299512 0.919325
C17   C     C_R   0.598101 0.048973 0.610692 -0.286461
C18   C     C_R   0.258451 0.498522 0.505349 0.937949
C19   C     C_3   0.930833 0.398319 0.569881 -0.002547
C20   C     C_3   0.076699 0.381563 0.559463 0.382879
C21   C     C_3   0.927625 0.487515 0.395257 -0.149363
C22   C     C_3   0.925485 0.619509 0.567515 0.154582
C23   C     C_3   0.070014 0.503492 0.394941 -0.301714
C24   C     C_3   0.878333 0.505370 0.511210 -0.076709
C25   C     C_3   0.855438 0.552260 0.309883 -0.682801
C26   C     C_2   0.661977 0.288504 0.193549 0.909353
C27   C     C_3   0.877032 0.381559 0.679692 -0.902111
C28   C     C_3   0.354869 0.994838 0.282536 -0.901969
C29   C     C_3   0.291354 0.774770 0.361234 -0.793292
C30   C     C_3   0.143864 0.354041 0.664626 -0.814252
C31   C     C_3   0.103298 0.271600 0.488701 -0.841435
C32   C     C_2   0.132877 0.433173 0.304620 0.895467
C33   C     C_2   0.895072 0.724375 0.504590 0.917700
C34   C     C_3   0.071742 0.603322 0.576838 -0.068621
C35   C     C_3   0.861300 0.648170 0.675595 -0.841806
C36   C     C_3   0.129055 0.626156 0.687453 -0.902996
C37   C     C_R   0.515716 0.462255 0.187743 -0.132699
C38   C     C_R   0.498656 0.537013 0.811327 -0.039451
C39   C     C_R   0.415909 0.629354 0.968558 -0.196882
C40   C     C_R   0.429317 0.625873 0.861311 -0.212885
C41   C     C_R   0.560968 0.455759 0.867463 -0.262470
H1    H     H_    0.891145 0.325785 0.524762 0.179761
H2    H     H_    0.637613 0.219850 0.654689 0.130475
H3    H     H_    0.650811 0.016244 0.675359 0.159298
H4    H     H_    0.591049 0.824406 0.612686 0.182562
H5    H     H_    0.913251 0.398761 0.369730 0.192485
H6    H     H_    0.791375 0.496086 0.266124 0.217840
H7    H     H_    0.796565 0.624240 0.340716 0.250983
H8    H     H_    0.918752 0.584316 0.252290 0.283406
H9    H     H_    0.655947 0.153406 0.278740 0.337412
H10   H     H_    0.875964 0.290772 0.692195 0.230111
H11   H     H_    0.932114 0.418716 0.744869 0.251525
H12   H     H_    0.110551 0.673624 0.537873 0.183667
H13   H     H_    0.779737 0.415345 0.687995 0.243234
H14   H     H_    0.345971 0.927280 0.220281 0.243581
H15   H     H_    0.262764 0.038032 0.298304 0.256453
H16   H     H_    0.418307 0.053416 0.249228 0.274813
H17   H     H_    0.232046 0.821130 0.306147 0.223221
H18   H     H_    0.318836 0.694417 0.320817 0.250018
H19   H     H_    0.228042 0.762660 0.426188 0.244433
H20   H     H_    0.104803 0.279175 0.696427 0.232550
H21   H     H_    0.244458 0.332321 0.655037 0.253626
H22   H     H_    0.136673 0.420109 0.726903 0.226476
H23   H     H_    0.086659 0.589387 0.373465 0.188177
H24   H     H_    0.056903 0.272080 0.411609 0.228735
H25   H     H_    0.203444 0.249730 0.477149 0.283652
H26   H     H_    0.065728 0.199194 0.526108 0.218049
H27   H     H_    0.136667 0.395008 0.149201 0.351915
H28   H     H_    0.800340 0.872782 0.495125 0.345799
H29   H     H_    0.758499 0.657030 0.667936 0.252620
H30   H     H_    0.880060 0.588011 0.734765 0.233597
H31   H     H_    0.892874 0.729173 0.710715 0.250696
H32   H     H_    0.125029 0.717589 0.708161 0.239210
H33   H     H_    0.080130 0.588140 0.750278 0.253944
H34   H     H_    0.397688 0.610406 0.168904 0.153429
H35   H     H_    0.228465 0.597703 0.690500 0.241373
H36   H     H_    0.359268 0.696430 0.007103 0.144312
H37   H     H_    0.666050 0.310310 0.990558 0.155023
H38   H     H_    0.381672 0.689391 0.817281 0.160213
H39   H     H_    0.616424 0.388506 0.827658 0.144392
H40   H     H_    0.410044 0.179641 0.387944 0.193250
N1    N     N_R   0.523380 0.207800 0.519350 -0.108490
N2    N     N_R   0.476620 0.792180 0.480650 -0.119468
O1    O     O_R   0.506240 0.421700 0.658830 -0.639011
O2    O     O_R   0.597853 0.210065 0.245213 -0.795820
O3    O     O_2   0.223758 0.370721 0.318266 -0.629964
O4    O     O_R   0.087505 0.443726 0.203052 -0.787482
O5    O     O_2   0.952430 0.740818 0.425716 -0.687854
O6    O     O_R   0.807665 0.807064 0.541164 -0.818844
O7    O     O_R   0.491240 0.609310 0.646410 -0.632378
O8    O     O_R   0.692710 0.406190 0.506230 -0.630713
O9    O     O_R   0.677700 0.593810 0.493810 -0.612390
O10   O     O_R   0.508760 0.390690 0.353590 -0.557073
O11   O     O_R   0.493760 0.578300 0.341170 -0.634294
O12   O     O_R   0.322300 0.406190 0.506190 -0.595384
O13   O     O_R   0.307290 0.593810 0.493770 -0.650072
O14   O     O_2   0.775742 0.281342 0.189427 -0.636796
Zn1   Zn    Zn3+2 0.510020 0.374730 0.508290 0.965928
Zn2   Zn    Zn3+2 0.489980 0.625270 0.491710 0.943219

loop_
_geom_bond_atom_site_label_1
_geom_bond_atom_site_label_2
_ccdc_geom_bond_type
C31   H25   S    
C1    O7    A    
C5    C37   A    
C18   O13   A    
C19   C20   S    
C41   H39   S    
C28   H15   S    
C27   H13   S    
C20   C30   S    
C28   H16   S    
C1    O1    A    
C31   H26   S    
C22   C35   S    
C12   C23   S    
C16   O10   A    
C8    C13   A    
C39   H36   S    
C33   O5    D    
C4    C24   S    
C2    C41   A    
O13   Zn2   S    
C10   N2    A    
C15   C17   A    
C36   H35   S    
H9    O2    S    
C2    C7    A    
C35   H29   S    
C8    C9    A    
C19   C27   S    
C25   H6    S    
C19   H1    S    
C9    C29   S    
C16   C37   S    
C4    O8    A    
C35   H30   S    
N2    Zn2   S    
C30   H22   S    
C18   O12   A    
N1    Zn1   S    
H28   O6    S    
C28   H14   S    
C27   H10   S    
C15   N1    A    
C22   C34   S    
C6    C37   A    
C29   H18   S    
C38   C41   A    
C36   H32   S    
C39   C40   A    
C32   O4    S    
C5    H34   S    
C33   O6    S    
C29   H19   S    
C32   O3    D    
C12   C20   S    
C10   H4    S    
C40   H38   S    
C25   H7    S    
C36   H33   S    
C1    C38   S    
C9    N2    A    
C7    H37   S    
C23   H23   S    
C35   H31   S    
C30   H21   S    
C8    C28   S    
C22   C24   S    
C21   C24   S    
C14   N1    A    
C12   C34   S    
O7    Zn2   S    
C27   H11   S    
C21   H5    S    
C31   H24   S    
C22   C33   S    
C21   C25   S    
C11   C17   A    
C3    C5    A    
C6    C7    A    
C16   O11   A    
O1    Zn1   S    
C23   C32   S    
C21   C23   S    
C2    C3    A    
C17   H3    S    
C15   H2    S    
C38   C40   A    
C11   C13   A    
C6    C26   S    
O11   Zn2   S    
C26   O2    S    
C19   C24   S    
C34   C36   S    
O8    Zn1   S    
C25   H8    S    
C10   C11   A    
C26   O14   D    
C3    C39   A    
C29   H17   S    
C34   H12   S    
C30   H20   S    
C12   C18   S    
H27   O4    S    
C14   H40   S    
C13   C14   A    
O12   Zn1   S    
O10   Zn1   S    
O9    Zn2   S    
C4    O9    A    
C20   C31   S    
