data_mof_unit_26208.cif
_audit_creation_date              2012-12-10T19:44:57-0500
_audit_creation_method            fapswitch 2.2
_symmetry_space_group_name_H-M    P1
_symmetry_Int_Tables_number       1
_space_group_crystal_system       triclinic
_cell_length_a                    15.067609
_cell_length_b                    10.806222
_cell_length_c                    13.694775
_cell_angle_alpha                 89.780118
_cell_angle_beta                  90.395047
_cell_angle_gamma                 89.802157
_cell_volume                      2229.75413637

loop_
_atom_site_label
_atom_site_type_symbol
_atom_type_description
_atom_site_fract_x
_atom_site_fract_y
_atom_site_fract_z
_atom_type_partial_charge
C1    C     C_R   0.497648 0.262195 0.500004 0.785691
C2    C     C_R   0.502384 0.737797 0.499988 0.785520
C3    C     C_R   0.049603 0.386098 0.654708 0.492800
C4    C     C_R   0.950400 0.620860 0.349441 0.480631
C5    C     C_R   0.296369 0.258880 0.275139 -0.109115
C6    C     C_R   0.704109 0.740824 0.724149 -0.106174
C7    C     C_R   0.336179 0.194333 0.352670 -0.109659
C8    C     C_R   0.664144 0.805491 0.646776 -0.111735
C9    C     C_R   0.413160 0.123366 0.337107 0.111537
C10   C     C_R   0.587261 0.876570 0.662624 0.111114
C11   C     C_R   0.448459 0.115817 0.242631 -0.131912
C12   C     C_R   0.552241 0.884139 0.757225 -0.128493
C13   C     C_R   0.408402 0.180507 0.165313 -0.107983
C14   C     C_R   0.592463 0.819347 0.834386 -0.109919
C15   C     C_R   0.332628 0.252291 0.181609 -0.114802
C16   C     C_R   0.668117 0.747428 0.817806 -0.114895
C17   C     C_R   0.465449 0.933993 0.420935 -0.252174
C18   C     C_R   0.534690 0.065982 0.579002 -0.250413
C19   C     C_R   0.504606 0.871697 0.500061 -0.074156
C20   C     C_R   0.495508 0.128286 0.499887 -0.073141
C21   C     C_R   0.540861 0.937947 0.579572 0.005353
C22   C     C_R   0.459350 0.062028 0.420316 0.005830
C23   C     C_R   0.328660 0.501765 0.499783 0.838609
C24   C     C_R   0.671298 0.498154 0.500244 0.836823
C25   C     C_R   0.564358 0.436629 0.793860 0.070155
C26   C     C_R   0.435599 0.563207 0.206112 0.067972
C27   C     C_R   0.436537 0.564861 0.792384 0.083215
C28   C     C_R   0.563911 0.435951 0.207633 0.083106
C29   C     C_R   0.433394 0.564158 0.895517 -0.144804
C30   C     C_R   0.567393 0.437173 0.104510 -0.143045
C31   C     C_R   0.500327 0.500506 0.948216 -0.057583
C32   C     C_R   0.500113 0.500133 0.051792 -0.056848
C33   C     C_R   0.567804 0.437941 0.897082 -0.147536
C34   C     C_R   0.432329 0.562139 0.102887 -0.148846
C35   C     C_R   0.364774 0.624816 0.946735 0.401552
C36   C     C_R   0.636467 0.377478 0.053196 0.396451
C37   C     C_R   0.363284 0.621607 0.049869 0.396549
C38   C     C_R   0.636972 0.378720 0.950007 0.396993
C39   C     C_R   0.812779 0.555079 0.425188 -0.321032
C40   C     C_R   0.187109 0.447172 0.576083 -0.302673
C41   C     C_R   0.767872 0.494697 0.500354 -0.186612
C42   C     C_R   0.232015 0.505659 0.499909 -0.191786
C43   C     C_R   0.815071 0.431284 0.574220 0.453713
C44   C     C_R   0.184783 0.568719 0.425900 0.453347
C45   C     C_R   0.908162 0.436792 0.576061 -0.031553
C46   C     C_R   0.091666 0.565009 0.425109 -0.033362
C47   C     C_R   0.953286 0.499958 0.500801 -0.046916
C48   C     C_R   0.046515 0.503599 0.501376 -0.050585
C49   C     C_R   0.905245 0.558391 0.424408 0.031245
C50   C     C_R   0.094564 0.445400 0.577907 0.031033
C51   C     C_R   0.956687 0.379603 0.651549 -0.295555
C52   C     C_R   0.043063 0.621843 0.349476 -0.285851
Cu1   Cu    Cu3+1 0.500010 0.499980 0.597420 0.953532
Cu2   Cu    Cu3+1 0.499990 0.500020 0.402580 0.950928
H1    H     H_    0.775036 0.601838 0.368250 0.210052
H2    H     H_    0.224971 0.401078 0.633256 0.214780
H3    H     H_    0.436784 0.882596 0.360674 0.154851
H4    H     H_    0.563337 0.117379 0.639270 0.154953
H5    H     H_    0.308166 0.201467 0.425077 0.106766
H6    H     H_    0.691951 0.798347 0.574268 0.099377
H7    H     H_    0.508032 0.062242 0.229417 0.135724
H8    H     H_    0.492747 0.937791 0.770660 0.139575
N1    N     N_R   0.499960 0.499900 0.743810 -0.202005
N2    N     N_R   0.500040 0.500100 0.256190 -0.201390
O1    O     O_R   0.500000 0.319630 0.582270 -0.586881
O2    O     O_R   0.500000 0.680370 0.417730 -0.588888
O3    O     O_R   0.499990 0.319660 0.417730 -0.575723
O4    O     O_R   0.500010 0.680340 0.582270 -0.574562
O5    O     O_R   0.370260 0.499960 0.582280 -0.606436
O6    O     O_R   0.629740 0.500040 0.417720 -0.607372
O7    O     O_R   0.370250 0.499990 0.417740 -0.548300
O8    O     O_R   0.629750 0.500010 0.582260 -0.548566
H9    H     H_    0.613364 0.385756 0.752866 0.193578
H10   H     H_    0.386582 0.614055 0.247093 0.192667
H11   H     H_    0.387840 0.616043 0.750123 0.162235
H12   H     H_    0.612409 0.384568 0.249931 0.158692
O9    O     O_3   0.301897 0.695109 0.897087 -0.551240
C53   C     C_3   0.234241 0.618039 0.859366 -0.322499
H13   H     H_    0.251886 0.517774 0.855319 0.135795
H14   H     H_    0.217633 0.649246 0.784124 0.187657
H15   H     H_    0.173593 0.629014 0.903977 0.184371
O10   O     O_3   0.701914 0.311558 0.102608 -0.561120
C54   C     C_3   0.766190 0.393228 0.141773 -0.299181
H16   H     H_    0.771534 0.377629 0.221746 0.180918
H17   H     H_    0.752722 0.493753 0.129116 0.143177
H18   H     H_    0.831733 0.370808 0.109802 0.190461
O11   O     O_3   0.294844 0.680624 0.097942 -0.553076
C55   C     C_3   0.229160 0.592151 0.120197 -0.257248
H19   H     H_    0.252085 0.527998 0.178737 0.175824
H20   H     H_    0.208622 0.537354 0.055348 0.118982
H21   H     H_    0.169525 0.641420 0.146932 0.203560
O12   O     O_3   0.704163 0.317216 0.901700 -0.552775
C56   C     C_3   0.771791 0.402863 0.879927 -0.260722
H22   H     H_    0.796261 0.451661 0.946065 0.133619
H23   H     H_    0.749147 0.471887 0.824724 0.170731
H24   H     H_    0.828793 0.351712 0.848918 0.196247
O13   O     O_3   0.770180 0.368117 0.646704 -0.600332
C57   C     C_3   0.753587 0.246604 0.614233 -0.325139
H25   H     H_    0.708002 0.246287 0.549979 0.149270
H26   H     H_    0.720779 0.194763 0.673916 0.203616
H27   H     H_    0.816263 0.196856 0.596658 0.162020
O14   O     O_3   0.229622 0.630767 0.352793 -0.600894
C58   C     C_3   0.246199 0.752795 0.384060 -0.323948
H28   H     H_    0.279478 0.803488 0.324085 0.203648
H29   H     H_    0.291380 0.754110 0.448653 0.151611
H30   H     H_    0.183476 0.803021 0.400584 0.158800
H31   H     H_    0.922684 0.328283 0.707810 0.185736
H32   H     H_    0.076486 0.667831 0.289883 0.188815
O15   O     O_3   0.097877 0.326493 0.727875 -0.578033
C59   C     C_3   0.071935 0.369770 0.820623 -0.358052
H33   H     H_    0.010984 0.321887 0.845441 0.171890
H34   H     H_    0.062222 0.472055 0.821919 0.144025
H35   H     H_    0.125390 0.347255 0.873957 0.189027
O16   O     O_3   0.904163 0.674393 0.272474 -0.594030
C60   C     C_3   0.900374 0.803282 0.287598 -0.344658
H36   H     H_    0.967575 0.845432 0.284445 0.166979
H37   H     H_    0.867869 0.825919 0.358161 0.158512
H38   H     H_    0.859742 0.845575 0.228349 0.201779
H39   H     H_    0.302187 0.303024 0.121792 0.112938
H40   H     H_    0.698673 0.696602 0.877503 0.114624
H41   H     H_    0.237850 0.314815 0.287771 0.128473
H42   H     H_    0.762534 0.684776 0.711301 0.126905
H43   H     H_    0.436618 0.175988 0.092931 0.137614
H44   H     H_    0.564456 0.823878 0.906868 0.137656

loop_
_geom_bond_atom_site_label_1
_geom_bond_atom_site_label_2
_ccdc_geom_bond_type
O11   C55   S    
C56   H22   S    
C38   O12   S    
C27   C29   A    
C34   C37   A    
Cu1   N1    S    
C23   O5    A    
Cu1   O5    S    
O16   C60   S    
C24   O6    A    
C47   C49   A    
O9    C53   S    
C23   C42   S    
C4    C52   A    
C4    O16   S    
C35   C37   A    
C2    O4    A    
C16   H40   S    
C13   H43   S    
C53   H14   S    
C9    C22   S    
C45   C51   A    
C60   H36   S    
C18   C21   A    
C46   C52   A    
C25   N1    A    
Cu1   O4    S    
C26   N2    A    
C59   H33   S    
C26   H10   S    
C17   C19   A    
C26   C34   A    
C39   H1    S    
Cu2   O7    S    
C31   C32   A    
C36   O10   S    
C40   H2    S    
C1    O1    A    
C31   C33   A    
Cu1   O1    S    
C18   C20   A    
C40   C42   A    
C56   H23   S    
C24   C41   S    
C41   C43   A    
C42   C44   A    
C27   H11   S    
C7    H5    S    
C3    C50   A    
C44   C46   A    
O13   C57   S    
C45   C47   A    
C10   C21   S    
C46   C48   A    
C14   H44   S    
C47   C48   A    
C23   O7    A    
C39   C41   A    
C5    C7    A    
C3    C51   A    
C53   H13   S    
C6    C8    A    
Cu2   O3    S    
C60   H37   S    
Cu1   Cu2   S    
C35   O9    S    
C32   C34   A    
C12   H8    S    
C54   H16   S    
Cu2   O6    S    
C55   H21   S    
C20   C22   A    
C29   C31   A    
C60   H38   S    
C58   H29   S    
C48   C50   A    
C9    C11   A    
C59   H35   S    
C10   C12   A    
C28   N2    A    
C1    C20   S    
C8    C10   A    
C39   C49   A    
C12   C14   A    
O10   C54   S    
C56   H24   S    
C57   H26   S    
C13   C15   A    
C14   C16   A    
C6    H42   S    
C28   H12   S    
C24   O8    A    
C7    C9    A    
C5    H41   S    
C44   O14   S    
C54   H17   S    
C2    C19   S    
C37   O11   S    
C43   O13   S    
C55   H20   S    
C18   H4    S    
C11   H7    S    
C2    O2    A    
Cu2   O2    S    
C57   H27   S    
C29   C35   A    
C17   C22   A    
C30   C36   A    
C4    C49   A    
C36   C38   A    
C43   C45   A    
O15   C59   S    
C8    H6    S    
C30   C32   A    
C11   C13   A    
C53   H15   S    
Cu2   N2    S    
C3    O15   S    
C40   C50   A    
C28   C30   A    
O12   C56   S    
C1    O3    A    
C15   H39   S    
C58   H30   S    
C25   H9    S    
O14   C58   S    
C59   H34   S    
C5    C15   A    
C6    C16   A    
C54   H18   S    
C55   H19   S    
C52   H32   S    
C51   H31   S    
C57   H25   S    
C25   C33   A    
C58   H28   S    
C27   N1    A    
C33   C38   A    
Cu1   O8    S    
C17   H3    S    
C19   C21   A    
