data_mof_unit_42196.cif
_audit_creation_date              2012-12-11T14:39:34-0500
_audit_creation_method            fapswitch 2.2
_symmetry_space_group_name_H-M    P1
_symmetry_Int_Tables_number       1
_space_group_crystal_system       triclinic
_cell_length_a                    7.212389
_cell_length_b                    14.109859
_cell_length_c                    16.276419
_cell_angle_alpha                 90.00005
_cell_angle_beta                  97.817424
_cell_angle_gamma                 89.999123
_cell_volume                      1640.98911302

loop_
_atom_site_label
_atom_site_type_symbol
_atom_type_description
_atom_site_fract_x
_atom_site_fract_y
_atom_site_fract_z
_atom_type_partial_charge
O1    O     O_R   0.525340 0.338340 0.164530 -0.561204
O2    O     O_R   0.474660 0.661660 0.835470 -0.565809
O3    O     O_R   0.974660 0.838340 0.835470 -0.561210
O4    O     O_R   0.025340 0.161660 0.164530 -0.565823
O5    O     O_R   0.253520 0.352000 0.336710 -0.521527
O6    O     O_R   0.746480 0.648000 0.663290 -0.523570
O7    O     O_R   0.246480 0.852000 0.663290 -0.521549
O8    O     O_R   0.753520 0.148000 0.336710 -0.523592
O9    O     O_R   0.083330 0.168380 0.337300 -0.502002
O10   O     O_R   0.916670 0.831620 0.662700 -0.500909
O11   O     O_R   0.416670 0.668380 0.662700 -0.502017
O12   O     O_R   0.583330 0.331620 0.337300 -0.500931
C1    C     C_R   0.432750 0.368296 0.363953 0.839577
C2    C     C_R   0.567211 0.631762 0.635993 0.834279
C3    C     C_R   0.067249 0.868297 0.636048 0.839594
C4    C     C_R   0.932792 0.131763 0.364007 0.834260
O13   O     O_R   0.195840 0.349670 0.165140 -0.548700
O14   O     O_R   0.804160 0.650330 0.834860 -0.544992
O15   O     O_R   0.304160 0.849670 0.834860 -0.548718
O16   O     O_R   0.695840 0.150330 0.165140 -0.544964
C5    C     C_R   0.357036 0.373451 0.138533 0.610544
C6    C     C_R   0.642643 0.624541 0.859869 0.636289
C7    C     C_R   0.142960 0.873455 0.861465 0.610474
C8    C     C_R   0.857357 0.124542 0.140130 0.636305
O17   O     O_3   0.387830 0.193120 0.250910 -0.374146
O18   O     O_3   0.612170 0.806880 0.749090 -0.372087
O19   O     O_3   0.112170 0.693120 0.749090 -0.374118
O20   O     O_3   0.887830 0.306880 0.250910 -0.372068
V1    V     V_3+5 0.113010 0.264540 0.250910 1.512617
V2    V     V_3+5 0.886990 0.735460 0.749090 1.511132
V3    V     V_3+5 0.386990 0.764540 0.749090 1.512506
V4    V     V_3+5 0.613010 0.235460 0.250910 1.511160
H1    H     H_    0.021141 0.816151 0.254950 0.143233
H2    H     H_    0.984900 0.184453 0.745330 0.139849
H3    H     H_    0.478985 0.316134 0.745062 0.143153
H4    H     H_    0.515225 0.684440 0.254674 0.139854
C9    C     C_R   0.946562 0.195494 0.535427 0.632668
C10   C     C_R   0.053600 0.804608 0.464673 0.632526
C11   C     C_R   0.553484 0.695490 0.464573 0.632672
C12   C     C_R   0.446358 0.304608 0.535331 0.632520
C13   C     C_R   0.950892 0.225298 0.617334 -0.175360
C14   C     C_R   0.050933 0.774943 0.382819 -0.176893
C15   C     C_R   0.549183 0.725291 0.382667 -0.175329
C16   C     C_R   0.449062 0.274937 0.617189 -0.176883
C17   C     C_R   0.981399 0.160596 0.681913 -0.228626
C18   C     C_R   0.022781 0.839835 0.318319 -0.225200
C19   C     C_R   0.518695 0.660587 0.318090 -0.228634
C20   C     C_R   0.477300 0.339822 0.681691 -0.225190
C21   C     C_R   0.007807 0.065220 0.665291 -0.154995
C22   C     C_R   0.996374 0.935197 0.334961 -0.158439
C23   C     C_R   0.492269 0.565212 0.334714 -0.155035
C24   C     C_R   0.503734 0.435184 0.665049 -0.158372
C25   C     C_R   0.003860 0.032194 0.582863 -0.014944
C26   C     C_R   0.997727 0.968019 0.417293 -0.015796
C27   C     C_R   0.496175 0.532190 0.417140 -0.014916
C28   C     C_R   0.502312 0.468014 0.582712 -0.015819
C29   C     C_R   0.972532 0.098114 0.516424 -0.012685
C30   C     C_R   0.027942 0.902013 0.483689 -0.012724
C31   C     C_R   0.527498 0.598111 0.483577 -0.012693
C32   C     C_R   0.472052 0.402011 0.516315 -0.012724
C33   C     C_R   0.031290 0.934942 0.566378 -0.123980
C34   C     C_R   0.969053 0.065171 0.433723 -0.122250
C35   C     C_R   0.468708 0.434941 0.433624 -0.123974
C36   C     C_R   0.530966 0.565168 0.566279 -0.122268
H5    H     H_    0.930757 0.299456 0.630827 0.149638
H6    H     H_    0.070951 0.700778 0.369320 0.150571
H7    H     H_    0.569333 0.799448 0.369174 0.149627
H8    H     H_    0.429018 0.200774 0.630687 0.150565
H9    H     H_    0.031272 0.017788 0.717910 0.097943
H10   H     H_    0.975387 0.982825 0.282447 0.097351
H11   H     H_    0.468828 0.517777 0.282096 0.097967
H12   H     H_    0.524817 0.482805 0.717566 0.097380
H13   H     H_    0.096105 0.095799 0.033675 0.159555
H14   H     H_    0.869847 0.926298 0.945553 0.133996
H15   H     H_    0.403929 0.595802 0.966346 0.159509
H16   H     H_    0.629868 0.426011 0.054191 0.134105
C37   C     C_2   0.149028 0.949550 0.925619 0.126399
C38   C     C_2   0.853205 0.044633 0.079005 0.138136
C39   C     C_2   0.350976 0.449568 0.074402 0.126392
C40   C     C_2   0.646768 0.544617 0.920977 0.138025
C41   C     C_2   0.995849 0.967535 0.963328 -0.158006
C42   C     C_2   0.988924 0.041278 0.028422 -0.191136
C43   C     C_2   0.504027 0.467423 0.036572 -0.157872
C44   C     C_2   0.511037 0.541245 0.971552 -0.191081
F1    F     F_    0.918128 0.263453 0.476049 -0.688926
F2    F     F_    0.080273 0.736509 0.523984 -0.689130
F3    F     F_    0.581913 0.763450 0.523949 -0.688926
F4    F     F_    0.419613 0.236514 0.476018 -0.689136
N1    N     N_2   0.721222 0.967668 0.077490 -0.536459
H17   H     H_    0.776937 0.901589 0.069218 0.249057
C45   C     C_3   0.582815 0.965442 0.134134 -0.488610
H18   H     H_    0.503490 0.897811 0.126204 0.169787
H19   H     H_    0.479699 0.023466 0.119661 0.235751
H20   H     H_    0.651302 0.969602 0.199408 0.180401
N2    N     N_2   0.316537 0.002810 0.947022 -0.502257
H21   H     H_    0.435991 0.962253 0.949367 0.287365
C46   C     C_3   0.327641 0.087051 0.897263 -0.559388
H22   H     H_    0.455924 0.127409 0.921115 0.199786
H23   H     H_    0.204431 0.133506 0.900423 0.193649
H24   H     H_    0.334188 0.067402 0.831567 0.188820
N3    N     N_2   0.778608 0.467604 0.922441 -0.536573
H25   H     H_    0.722500 0.401523 0.930327 0.249044
C47   C     C_3   0.917633 0.465581 0.866098 -0.488780
H26   H     H_    0.997057 0.397983 0.874081 0.169911
H27   H     H_    0.020515 0.523654 0.880835 0.235812
H28   H     H_    0.849708 0.469827 0.800744 0.180563
N4    N     N_2   0.183648 0.503026 0.053193 -0.502493
H29   H     H_    0.064030 0.462605 0.050895 0.287422
C48   C     C_3   0.173135 0.587222 0.103064 -0.559653
H30   H     H_    0.044868 0.627700 0.079414 0.199702
H31   H     H_    0.296404 0.633589 0.099774 0.193770
H32   H     H_    0.166966 0.567520 0.168776 0.188881

loop_
_geom_bond_atom_site_label_1
_geom_bond_atom_site_label_2
_ccdc_geom_bond_type
O1    C5    A    
N3    H25   S    
C12   C32   A    
C27   C31   A    
O13   V1    S    
O3    C7    A    
N2    H21   S    
C11   F3    S    
C40   C44   D    
O15   V3    S    
C41   C42   S    
C29   C34   A    
C31   C36   A    
C22   C26   A    
C4    C34   S    
C10   F2    S    
C32   C35   A    
C9    F1    S    
O20   V1    S    
O9    C4    A    
C10   C14   A    
O10   C3    A    
C48   H31   S    
O16   V4    S    
O4    C8    A    
O11   C2    A    
H15   C44   S    
O6    C2    A    
H4    C19   S    
C14   C18   A    
O10   V2    S    
C10   C30   A    
C25   C33   A    
O16   C8    A    
C27   C35   A    
O2    C6    A    
N4    H29   S    
C28   C36   A    
O14   V2    S    
C37   C41   D    
N1    C45   S    
C12   C16   A    
O5    C1    A    
O4    V1    S    
O9    V1    S    
C30   C33   A    
O7    C3    A    
O11   V3    S    
O18   V3    S    
N3    C47   S    
C21   H9    S    
O12   V4    S    
O19   V2    S    
H1    C18   S    
N4    C48   S    
C23   H11   S    
H3    C20   S    
H16   C43   S    
C46   H23   S    
C46   H22   S    
O5    V1    S    
C38   N1    S    
C11   C15   A    
O7    V3    S    
O8    V4    S    
C48   H32   S    
C45   H18   S    
C25   C29   A    
C19   C23   A    
C26   C34   A    
C37   N2    S    
O1    V4    S    
O13   C5    A    
C28   C32   A    
O2    V3    S    
O3    V2    S    
O15   C7    A    
C15   H7    S    
C24   H12   S    
C45   H19   S    
C38   C42   D    
C43   C44   S    
C1    C35   S    
C17   C21   A    
C11   C31   A    
C5    C39   S    
C3    C33   S    
C39   N4    S    
C47   H27   S    
H2    C17   S    
C7    C37   S    
C2    C36   S    
C8    C38   S    
O6    V2    S    
C16   H8    S    
H14   C41   S    
H13   C42   S    
C46   H24   S    
C26   C30   A    
O14   C6    A    
C13   H5    S    
N2    C46   S    
C18   C22   A    
C40   N3    S    
C12   F4    S    
C22   H10   S    
C6    C40   S    
C48   H30   S    
C45   H20   S    
C39   C43   D    
O17   V4    S    
C21   C25   A    
C47   H28   S    
C23   C27   A    
C9    C13   A    
C16   C20   A    
C20   C24   A    
O12   C1    A    
O8    C4    A    
C47   H26   S    
C14   H6    S    
C13   C17   A    
N1    H17   S    
C15   C19   A    
C9    C29   A    
C24   C28   A    
