data_mof_unit_16245.cif
_audit_creation_date              2012-12-10T18:44:21-0500
_audit_creation_method            fapswitch 2.2
_symmetry_space_group_name_H-M    P1
_symmetry_Int_Tables_number       1
_space_group_crystal_system       triclinic
_cell_length_a                    12.703354
_cell_length_b                    10.736206
_cell_length_c                    10.03543
_cell_angle_alpha                 89.627887
_cell_angle_beta                  99.488324
_cell_angle_gamma                 94.230019
_cell_volume                      1346.26597148

loop_
_atom_site_label
_atom_site_type_symbol
_atom_type_description
_atom_site_fract_x
_atom_site_fract_y
_atom_site_fract_z
_atom_type_partial_charge
C1    C     C_R   0.499672 0.260657 0.500289 0.889266
C2    C     C_R   0.501082 0.739271 0.500017 0.935205
C3    C     C_R   0.501668 0.871981 0.499585 -0.063966
C4    C     C_R   0.499748 0.127797 0.501194 -0.074694
C5    C     C_R   0.581769 0.563901 0.085538 0.480513
C6    C     C_R   0.418255 0.436283 0.914478 0.480137
C7    C     C_R   0.582971 0.557214 0.943642 -0.024025
C8    C     C_R   0.417421 0.442614 0.056243 -0.018546
C9    C     C_R   0.297949 0.495395 0.470944 0.881434
C10   C     C_R   0.701761 0.503582 0.529217 0.959546
C11   C     C_R   0.815937 0.515949 0.551566 -0.068706
C12   C     C_R   0.183263 0.483873 0.450200 -0.178502
C13   C     C_R   0.017288 0.356266 0.405042 0.424883
C14   C     C_R   0.981312 0.644987 0.600001 0.467086
C15   C     C_R   0.127188 0.369630 0.408392 -0.019055
C16   C     C_R   0.870376 0.629494 0.596418 -0.049753
C17   C     C_R   0.131408 0.582414 0.493218 0.107838
C18   C     C_R   0.867923 0.417592 0.511593 0.062769
C19   C     C_R   0.028824 0.557943 0.525786 -0.030035
C20   C     C_R   0.970671 0.442253 0.480236 -0.083068
C21   C     C_R   0.438547 0.059240 0.392534 0.052000
C22   C     C_R   0.563373 0.940362 0.607472 0.084125
C23   C     C_R   0.439396 0.930112 0.391910 0.035087
C24   C     C_R   0.562398 0.068792 0.608951 0.028101
N1    N     N_R   0.499970 0.499970 0.857200 -0.208499
N2    N     N_R   0.500030 0.500030 0.142800 -0.206117
O1    O     O_R   0.499990 0.316750 0.614620 -0.589295
O2    O     O_R   0.500010 0.683250 0.385380 -0.549067
O3    O     O_R   0.499990 0.316780 0.385290 -0.621513
O4    O     O_R   0.500010 0.683220 0.614710 -0.632243
O5    O     O_R   0.346360 0.499970 0.595710 -0.517762
O6    O     O_R   0.653640 0.500030 0.404290 -0.529098
O7    O     O_R   0.346360 0.499990 0.366380 -0.673776
O8    O     O_R   0.653640 0.500010 0.633620 -0.674771
Zn1   Zn    Zn3+2 0.500000 0.499980 0.653120 1.002691
Zn2   Zn    Zn3+2 0.500000 0.500020 0.346880 1.014386
N3    N     N_3   0.820549 0.293161 0.524397 -0.470804
H1    H     H_    0.770505 0.264386 0.435287 0.261434
H2    H     H_    0.879323 0.231062 0.554875 0.245867
N4    N     N_3   0.179207 0.707823 0.491321 -0.351413
H3    H     H_    0.254261 0.714356 0.552864 0.225788
H4    H     H_    0.190455 0.727728 0.392396 0.175577
N5    N     N_3   0.810611 0.728696 0.632325 -0.435334
H5    H     H_    0.838096 0.812652 0.592043 0.252372
H6    H     H_    0.820647 0.735463 0.737238 0.254994
N6    N     N_3   0.180242 0.266227 0.368952 -0.366536
H7    H     H_    0.243364 0.247788 0.445471 0.222047
H8    H     H_    0.210426 0.291119 0.281654 0.202518
S1    S     S_3+6 0.941160 0.248924 0.284678 0.054303
O9    O     O_2   0.921179 0.125292 0.350571 -0.250949
O10   O     O_2   0.836089 0.298905 0.225850 -0.283022
O11   O     O_3   0.008265 0.225373 0.156902 -0.496739
H9    H     H_    0.015373 0.308017 0.113454 0.361306
S2    S     S_3+6 0.057890 0.763914 0.706179 0.034625
O12   O     O_2   0.166075 0.720767 0.762980 -0.266807
O13   O     O_2   0.071097 0.880217 0.624494 -0.270706
O14   O     O_3   0.998015 0.798179 0.837419 -0.564417
H10   H     H_    0.043014 0.869303 0.884105 0.398080
N7    N     N_3   0.374412 0.121086 0.284488 -0.458942
H11   H     H_    0.400699 0.102168 0.193856 0.227356
H12   H     H_    0.294668 0.086487 0.277598 0.212444
N8    N     N_3   0.628445 0.879096 0.715068 -0.435988
H13   H     H_    0.601657 0.897741 0.805502 0.240816
H14   H     H_    0.707315 0.917290 0.722588 0.222965
N9    N     N_3   0.375588 0.857106 0.284142 -0.432507
H15   H     H_    0.295290 0.874786 0.279072 0.190292
H16   H     H_    0.400161 0.883261 0.192918 0.222288
N10   N     N_3   0.628485 0.136711 0.718903 -0.437565
H17   H     H_    0.676054 0.207431 0.680944 0.208631
H18   H     H_    0.579891 0.174860 0.780101 0.242897
S3    S     S_3+6 0.693349 0.656588 0.179079 0.072099
O15   O     O_2   0.670304 0.719207 0.302527 -0.277413
O16   O     O_2   0.783685 0.573784 0.218372 -0.280339
O17   O     O_3   0.735335 0.772201 0.081771 -0.538753
H19   H     H_    0.806493 0.803876 0.130286 0.405417
S4    S     S_3+6 0.306434 0.344083 0.820916 0.061789
O18   O     O_2   0.216922 0.427697 0.779858 -0.281694
O19   O     O_2   0.330495 0.280467 0.698744 -0.296579
O20   O     O_3   0.262519 0.229201 0.917698 -0.546171
H20   H     H_    0.191694 0.197806 0.867970 0.397488
N11   N     N_3   0.676206 0.604522 0.892459 -0.339836
H21   H     H_    0.652859 0.658025 0.807447 0.251884
H22   H     H_    0.716588 0.528793 0.868131 0.228404
N12   N     N_3   0.325716 0.392714 0.108017 -0.349283
H23   H     H_    0.352560 0.340516 0.192587 0.242687
H24   H     H_    0.284204 0.467096 0.133271 0.222850

loop_
_geom_bond_atom_site_label_1
_geom_bond_atom_site_label_2
_ccdc_geom_bond_type
C11   C18   A    
C8    N2    A    
C3    C23   A    
C19   C20   A    
S4    O20   S    
N11   H21   S    
O3    Zn2   S    
N8    H13   S    
O4    Zn1   S    
O6    Zn2   S    
C22   C24   A    
C18   N3    S    
N12   H24   S    
C21   N7    S    
C4    C24   A    
C6    N1    A    
N9    H16   S    
O7    Zn2   S    
O8    Zn1   S    
N8    H14   S    
S2    O12   D    
N10   H17   S    
S1    O10   D    
C12   C17   A    
C18   C20   A    
N4    H4    S    
N7    H11   S    
C9    O7    A    
N11   H22   S    
N6    H8    S    
S2    O13   D    
N7    H12   S    
O17   H19   S    
S4    O18   D    
C5    C7    A    
C9    O5    A    
C6    C8    A    
O1    Zn1   S    
O20   H20   S    
C17   N4    S    
N5    H5    S    
N3    H1    S    
C22   N8    S    
C11   C16   A    
C12   C15   A    
S1    O11   S    
C1    O3    A    
C10   O8    A    
N12   H23   S    
N5    H6    S    
C16   N5    S    
N1    Zn1   S    
C13   S1    S    
N2    Zn2   S    
N4    H3    S    
C14   S2    S    
N9    H15   S    
C13   C15   A    
C14   C16   A    
O11   H9    S    
S3    O16   D    
N6    H7    S    
C13   C20   A    
C7    N11   S    
C8    N12   S    
C14   C19   A    
S4    O19   D    
S3    O17   S    
C6    S4    S    
C7    N1    A    
C2    O4    A    
C1    C4    S    
C23   N9    S    
C21   C23   A    
C2    C3    S    
S3    O15   D    
N3    H2    S    
C4    C21   A    
O14   H10   S    
C17   C19   A    
O5    Zn1   S    
C9    C12   S    
C10   C11   S    
C24   N10   S    
C5    N2    A    
C10   O6    A    
O2    Zn2   S    
C5    S3    S    
S1    O9    D    
C1    O1    A    
N10   H18   S    
C3    C22   A    
C2    O2    A    
C15   N6    S    
S2    O14   S    
