data_mof_unit_16815.cif
_audit_creation_date              2013-03-05T15:43:52-0500
_audit_creation_method            fapswitch 2.2
_symmetry_space_group_name_H-M    P1
_symmetry_Int_Tables_number       1
_space_group_crystal_system       triclinic
_cell_length_a                    13.497701
_cell_length_b                    13.489241
_cell_length_c                    27.477992
_cell_angle_alpha                 90.78538
_cell_angle_beta                  90.248169
_cell_angle_gamma                 60.06768
_cell_volume                      4335.26950174

loop_
_atom_site_label
_atom_site_type_symbol
_atom_site_description
_atom_site_fract_x
_atom_site_fract_y
_atom_site_fract_z
_atom_type_partial_charge
O1    O     O_R   0.301710 0.195650 0.554160 -0.502608
O2    O     O_R   0.522390 0.158990 0.550460 -0.496785
C1    C     C_R   0.620551 0.101733 0.570023 0.550450
O3    O     O_R   0.694390 0.003530 0.554040 -0.496563
O4    O     O_R   0.657700 0.819660 0.549320 -0.485843
C2    C     C_R   0.600268 0.778413 0.568309 0.552836
O5    O     O_R   0.501930 0.803280 0.552920 -0.506746
O6    O     O_R   0.318170 0.023580 0.549580 -0.492807
C3    C     C_R   0.277365 0.122123 0.569566 0.548121
O7    O     O_R   0.303010 0.193990 0.446760 -0.450645
O8    O     O_R   0.523600 0.157450 0.450900 -0.478688
C4    C     C_R   0.621961 0.098796 0.431028 0.537346
O9    O     O_R   0.695690 0.001860 0.446640 -0.523177
O10   O     O_R   0.658900 0.818120 0.449760 -0.504310
C5    C     C_R   0.601607 0.775537 0.430459 0.541808
O11   O     O_R   0.503220 0.801620 0.445520 -0.522609
O12   O     O_R   0.319370 0.022040 0.450020 -0.509246
C6    C     C_R   0.277025 0.121557 0.430829 0.541207
Cr1   Cr    Cr6+3 0.417550 0.169090 0.500530 1.087751
Cr2   Cr    Cr6+3 0.669180 0.913420 0.499920 1.043616
Cr3   Cr    Cr6+3 0.413260 0.917540 0.499520 1.033597
O13   O     O_3   0.499990 0.000010 0.499990 -0.255738
C7    C     C_3   0.780736 0.607031 0.736772 -0.133714
C8    C     C_3   0.733935 0.703772 0.775596 0.239999
H1    H     H_    0.867880 0.564571 0.720663 0.134829
C9    C     C_1   0.698487 0.603722 0.899685 0.053923
C10   C     C_1   0.633687 0.727161 0.615068 0.025666
C11   C     C_3   0.727348 0.546780 0.766166 -0.179864
C12   C     C_3   0.682022 0.644848 0.804746 0.023023
C13   C     C_3   0.613512 0.613897 0.737272 -0.181149
C14   C     C_3   0.666815 0.674127 0.708784 -0.008118
C15   C     C_3   0.569563 0.710838 0.776259 0.004203
C16   C     C_3   0.622348 0.769787 0.747518 0.234069
C17   C     C_1   0.690572 0.626186 0.857193 0.062681
C18   C     C_1   0.652966 0.696948 0.656666 0.004990
H2    H     H_    0.563762 0.576399 0.721151 0.117657
H3    H     H_    0.769700 0.454131 0.774280 0.116473
C19   C     C_3   0.065516 0.169058 0.736196 -0.117922
C20   C     C_3   0.144971 0.077570 0.773113 -0.107753
H4    H     H_    0.136930 0.004018 0.785645 0.130467
H5    H     H_    0.991485 0.171488 0.717321 0.108386
H6    H     H_    0.328658 0.988004 0.736357 0.163808
C21   C     C_1   0.094033 0.202775 0.901234 0.009379
C22   C     C_1   0.226596 0.139993 0.616973 0.002355
C23   C     C_3   0.060501 0.264494 0.769992 -0.109807
C24   C     C_3   0.140493 0.172751 0.806046 0.046282
C25   C     C_3   0.166455 0.255344 0.744099 -0.104618
C26   C     C_3   0.171124 0.160190 0.711118 0.041740
C27   C     C_3   0.245900 0.163967 0.780845 -0.064029
C28   C     C_3   0.250900 0.068577 0.747144 -0.062041
C29   C     C_1   0.119690 0.184823 0.858733 -0.028790
C30   C     C_1   0.195986 0.150863 0.658822 -0.039120
H7    H     H_    0.319811 0.161954 0.799641 0.155676
H8    H     H_    0.174700 0.328822 0.731623 0.120331
H9    H     H_    0.982236 0.345561 0.780084 0.111141
C31   C     C_3   0.649787 0.278378 0.737711 -0.117708
C32   C     C_3   0.565585 0.276238 0.775398 -0.119601
H10   H     H_    0.486605 0.351801 0.789402 0.125290
H11   H     H_    0.640614 0.355450 0.719475 0.110145
H12   H     H_    0.496172 0.162527 0.739031 0.170776
C33   C     C_1   0.693637 0.210492 0.902061 0.014564
C34   C     C_1   0.637498 0.135923 0.617534 0.010556
C35   C     C_3   0.752043 0.196175 0.769908 -0.120085
C36   C     C_3   0.667623 0.193645 0.806638 0.029078
C37   C     C_3   0.757658 0.091748 0.743106 -0.075537
C38   C     C_3   0.655600 0.174023 0.711751 0.040163
C39   C     C_3   0.673538 0.089613 0.780587 -0.023383
C40   C     C_3   0.571240 0.171754 0.748579 -0.063988
C41   C     C_1   0.678176 0.202130 0.859371 -0.031360
C42   C     C_1   0.647369 0.156997 0.659439 -0.026713
H13   H     H_    0.684005 0.012745 0.799390 0.220171
H14   H     H_    0.836741 0.016121 0.729207 0.152448
H15   H     H_    0.826491 0.206434 0.779511 0.108586
C43   C     C_R   0.737357 0.692733 0.360732 -0.148686
C44   C     C_R   0.750657 0.672560 0.310518 -0.004500
C45   C     C_R   0.767927 0.651288 0.208756 -0.004244
C46   C     C_R   0.861317 0.637049 0.236600 -0.136971
C47   C     C_R   0.852640 0.648012 0.287232 -0.146226
C48   C     C_R   0.777891 0.632939 0.158516 -0.133122
H16   H     H_    0.859885 0.604024 0.141047 0.144675
H17   H     H_    0.804459 0.694458 0.381924 0.127318
H18   H     H_    0.940528 0.618117 0.219161 0.184314
H19   H     H_    0.924498 0.639669 0.308132 0.172049
C49   C     C_R   0.686118 0.638458 0.131998 0.000178
C50   C     C_R   0.547378 0.714821 0.355575 -0.126680
C51   C     C_R   0.556088 0.703337 0.305544 0.004726
C52   C     C_R   0.657425 0.683779 0.282674 0.066177
C53   C     C_R   0.462336 0.717781 0.278009 -0.133954
C54   C     C_R   0.468379 0.714311 0.227550 -0.132613
C55   C     C_R   0.569548 0.692563 0.204404 0.005985
C56   C     C_R   0.664793 0.676667 0.231925 0.064077
C57   C     C_R   0.579628 0.678057 0.154351 -0.126291
C58   C     C_R   0.633506 0.719267 0.382828 -0.002616
H20   H     H_    0.507875 0.684982 0.133626 0.139573
H21   H     H_    0.395191 0.725536 0.206695 0.127799
H22   H     H_    0.383889 0.733487 0.295492 0.121793
H23   H     H_    0.467517 0.732697 0.372435 0.139070
C59   C     C_R   0.216493 0.058623 0.356247 -0.151382
C60   C     C_R   0.193526 0.070825 0.306326 0.025616
C61   C     C_R   0.154685 0.092207 0.205683 0.024464
C62   C     C_R   0.157236 0.000900 0.230592 -0.119953
C63   C     C_R   0.180003 0.988374 0.280359 -0.117620
C64   C     C_R   0.123496 0.109684 0.156835 -0.141162
H24   H     H_    0.093290 0.057270 0.139288 0.133558
H25   H     H_    0.233895 0.980317 0.374128 0.129185
H26   H     H_    0.142002 0.938938 0.211490 0.117272
H27   H     H_    0.183651 0.916067 0.298733 0.114495
C65   C     C_R   0.122870 0.199676 0.131679 -0.021069
C66   C     C_R   0.191261 0.250216 0.359531 0.027029
C67   C     C_R   0.193179 0.252515 0.308185 -0.062877
C68   C     C_R   0.188566 0.164706 0.281696 0.003194
C69   C     C_R   0.203566 0.337480 0.282660 0.199108
C70   C     C_R   0.206195 0.335759 0.231566 0.199875
C71   C     C_R   0.185814 0.256753 0.204829 -0.050374
C72   C     C_R   0.176218 0.171629 0.230707 0.010112
C73   C     C_R   0.172740 0.260128 0.153457 -0.013433
C74   C     C_R   0.219798 0.146241 0.382912 -0.034184
C75   C     C_R   0.591730 0.236625 0.364867 -0.101078
C76   C     C_R   0.598639 0.255667 0.315278 0.035271
C77   C     C_R   0.608228 0.291321 0.215467 0.031322
C78   C     C_R   0.559608 0.384561 0.248209 -0.073252
C79   C     C_R   0.554419 0.366914 0.297797 -0.069510
C80   C     C_R   0.618962 0.308524 0.166568 -0.123579
H28   H     H_    0.592654 0.394372 0.154424 0.136335
H29   H     H_    0.548643 0.308136 0.390157 0.136070
H30   H     H_    0.526015 0.471151 0.235430 0.130103
H31   H     H_    0.515949 0.440184 0.322415 0.134978
C81   C     C_R   0.674080 0.215150 0.134288 0.017747
C82   C     C_R   0.693580 0.031627 0.348972 -0.122497
C83   C     C_R   0.696162 0.049412 0.299661 0.007419
C84   C     C_R   0.648928 0.161453 0.282403 0.062850
C85   C     C_R   0.742760 0.956404 0.267398 -0.119394
C86   C     C_R   0.742958 0.973225 0.217764 -0.125971
C87   C     C_R   0.700465 0.084161 0.199354 -0.012877
C88   C     C_R   0.652251 0.178999 0.232331 0.053704
C89   C     C_R   0.707000 0.103170 0.149401 0.001399
C90   C     C_R   0.639377 0.124442 0.381566 0.001368
H32   H     H_    0.778748 0.897895 0.194630 0.110718
H33   H     H_    0.778785 0.870358 0.280685 0.130425
H34   H     H_    0.728442 0.944713 0.361666 0.138545
O14   O     O_R   0.818720 0.150820 0.967160 -0.482924
O15   O     O_R   0.006410 0.181720 0.970200 -0.494619
C91   C     C_R   0.048734 0.236434 0.949603 0.546334
O16   O     O_R   0.027890 0.334070 0.964920 -0.499655
O17   O     O_R   0.809600 0.521790 0.967960 -0.490962
C92   C     C_R   0.711672 0.562471 0.948172 0.548984
O18   O     O_R   0.635520 0.542770 0.964420 -0.495474
O19   O     O_R   0.665950 0.325030 0.970100 -0.494955
C93   C     C_R   0.722464 0.225777 0.950726 0.566507
O20   O     O_R   0.816620 0.158530 0.074540 -0.492449
O21   O     O_R   0.004460 0.188870 0.069750 -0.505644
C94   C     C_R   0.051909 0.242983 0.087440 0.540912
O22   O     O_R   0.025800 0.341780 0.072300 -0.507763
O23   O     O_R   0.807650 0.528950 0.067500 -0.497553
C95   C     C_R   0.707699 0.575880 0.086041 0.548988
O24   O     O_R   0.633420 0.550490 0.071810 -0.519323
O25   O     O_R   0.664000 0.332180 0.069640 -0.502627
C96   C     C_R   0.717597 0.234033 0.088861 0.585730
Cr4   Cr    Cr6+3 0.909170 0.177380 0.020380 1.062059
Cr5   Cr    Cr6+3 0.912710 0.429210 0.018220 1.057352
Cr6   Cr    Cr6+3 0.657170 0.432570 0.019030 1.056889
O26   O     O_3   0.826350 0.346390 0.019210 -0.267819
N1    N     N_R   0.798964 0.754973 0.795028 0.088350
O27   O     O_R   0.842680 0.797476 0.765465 -0.347333
O28   O     O_R   0.815137 0.757108 0.841603 -0.324118
N2    N     N_R   0.565485 0.892707 0.739808 0.062810
O29   O     O_R   0.525586 0.962200 0.777038 -0.388516
O30   O     O_R   0.552519 0.933701 0.696244 -0.367485
C97   C     C_2   0.213978 0.322468 0.122912 0.177779
H35   H     H_    0.240777 0.297200 0.085418 -0.033108
O31   O     O_2   0.244094 0.294086 0.080791 0.009399
N3    N     N_R   0.232583 0.413729 0.207814 0.092909
O32   O     O_R   0.338818 0.383455 0.199025 -0.325150
O33   O     O_R   0.153068 0.519553 0.201145 -0.345179
N4    N     N_R   0.226082 0.417626 0.307917 0.125935
O34   O     O_R   0.149983 0.526486 0.307774 -0.324093
O35   O     O_R   0.327764 0.383641 0.326375 -0.299038
C98   C     C_2   0.137267 0.359104 0.387996 0.287790
H36   H     H_    0.044648 0.408407 0.390661 0.074208
O36   O     O_2   0.194448 0.395322 0.407695 -0.415106
C99   C     C_2   0.749656 0.007621 0.113014 0.250800
H37   H     H_    0.819646 0.923299 0.121481 0.097378
O37   O     O_2   0.706135 0.022988 0.072743 -0.472629
C100  C     C_2   0.450356 0.769325 0.796284 0.264378
H38   H     H_    0.378341 0.805497 0.771575 0.086433
O38   O     O_2   0.433565 0.775905 0.840096 -0.476701

loop_
_geom_bond_atom_site_label_1
_geom_bond_atom_site_label_2
_geom_bond_distance
_ccdc_geom_bond_type
C38   C40   1.538564 S    
C53   H22   1.083770 S    
C62   C63   1.394239 A    
C52   C56   1.397045 A    
C97   H35   1.085823 S    
C21   C91   1.435222 S    
N1    O27   1.300503 A    
C45   C48   1.394301 A    
O15   Cr4   1.929225 S    
C35   C37   1.548505 S    
C98   H36   1.086395 S    
C55   C56   1.411207 A    
O14   C93   1.269143 A    
C80   H28   1.085203 S    
N4    O35   1.312833 A    
O4    Cr2   1.926302 S    
C38   C42   1.465027 S    
C46   C47   1.396322 A    
C100  H38   1.083507 S    
C85   H33   1.078778 S    
Cr4   O26   1.976514 S    
C4    O9    1.263826 A    
C82   H34   1.084822 S    
C24   C27   1.534878 S    
O8    Cr1   1.928771 S    
O11   Cr3   2.044109 S    
C59   H25   1.085338 S    
C59   C74   1.401540 A    
O19   Cr6   1.924166 S    
C46   H18   1.080078 S    
C11   C12   1.551625 S    
N1    O28   1.299679 A    
C92   O18   1.267399 A    
C12   C15   1.539343 S    
C84   C88   1.403981 A    
C81   C89   1.413278 A    
C50   C51   1.380265 A    
O4    C2    1.274622 A    
C49   C95   1.456248 S    
C31   C38   1.535995 S    
C76   C79   1.400823 A    
O14   Cr4   2.040613 S    
C91   O16   1.267648 A    
C59   C60   1.398717 A    
C31   C32   1.551982 S    
C34   C42   1.204963 T    
C79   H31   1.084721 S    
C9    C92   1.426834 S    
C75   C76   1.402133 A    
C19   C23   1.550837 S    
C4    C90   1.455655 S    
C65   C94   1.478946 S    
C50   C58   1.405951 A    
C66   C98   1.485092 S    
C9    C17   1.201181 T    
O25   C96   1.270888 A    
C16   N2    1.456523 S    
O6    C3    1.274319 A    
C37   C39   1.547357 S    
C89   C99   1.490474 S    
C76   C84   1.415916 A    
C7    C8    1.544370 S    
C14   C16   1.533987 S    
C64   C65   1.401503 A    
C75   H29   1.084855 S    
O16   Cr5   2.045992 S    
C75   C90   1.399783 A    
C19   C26   1.535320 S    
C77   C80   1.387097 A    
C22   C30   1.205637 T    
C99   O37   1.221338 D    
C86   H32   1.079391 S    
Cr3   O13   1.976682 S    
N2    O30   1.299647 A    
C97   O31   1.219847 D    
C43   C58   1.400849 A    
C2    C10   1.428422 S    
C61   C72   1.412052 A    
C47   H19   1.082237 S    
C69   C70   1.404146 A    
N3    O33   1.303745 A    
Cr6   O26   1.979108 S    
C70   N3    1.433077 S    
C23   C25   1.548226 S    
O1    Cr1   2.047241 S    
O20   Cr4   2.045342 S    
C51   C53   1.400505 A    
C66   C74   1.418341 A    
C39   C40   1.548302 S    
C36   C39   1.532720 S    
O10   Cr2   1.923358 S    
Cr1   O13   1.976563 S    
O1    C3    1.268402 A    
O19   C93   1.273800 A    
C19   H5    1.109891 S    
C25   C27   1.547379 S    
C43   C44   1.397556 A    
C20   H4    1.109898 S    
O17   Cr5   1.923527 S    
C51   C52   1.406497 A    
C85   C86   1.385900 A    
C87   C89   1.410965 A    
C35   H15   1.110879 S    
C10   C18   1.201944 T    
C99   H37   1.083235 S    
C24   C29   1.467218 S    
C61   C64   1.392519 A    
O12   Cr3   1.923019 S    
C67   C68   1.409322 A    
C71   C73   1.420375 A    
O21   Cr4   1.922686 S    
C54   H21   1.084166 S    
C83   C85   1.393694 A    
O23   Cr5   1.928053 S    
C48   C49   1.404481 A    
C55   C57   1.384230 A    
C25   C26   1.536441 S    
C26   C30   1.466438 S    
O7    Cr1   2.039998 S    
O21   C94   1.278044 A    
C60   C68   1.415896 A    
C20   C28   1.549722 S    
C57   H20   1.085092 S    
O12   C6    1.287603 A    
C78   C79   1.394473 A    
C31   C35   1.551198 S    
C63   H27   1.083527 S    
C36   C41   1.463871 S    
C45   C46   1.401888 A    
C6    C74   1.479085 S    
H12   C40   1.110689 S    
O23   C95   1.274843 A    
C2    O5    1.268004 A    
H6    C28   1.107317 S    
C20   C24   1.536940 S    
C44   C52   1.413022 A    
Cr2   O13   1.979270 S    
O24   Cr6   2.041611 S    
C37   C38   1.536836 S    
C25   H8    1.109965 S    
O18   Cr6   2.042227 S    
C86   C87   1.409221 A    
C14   C18   1.460480 S    
C48   H16   1.084481 S    
C8    N1    1.457176 S    
C7    C11   1.561961 S    
C43   H17   1.084459 S    
C1    O3    1.269364 A    
O25   Cr6   1.924104 S    
O17   C92   1.273592 A    
C64   H24   1.084074 S    
N3    O32   1.302753 A    
C32   C36   1.536135 S    
C70   C71   1.421457 A    
C1    C34   1.433723 S    
C33   C41   1.204162 T    
C62   H26   1.083946 S    
C3    C22   1.434890 S    
O20   C96   1.270304 A    
O9    Cr2   2.042810 S    
O2    Cr1   1.923355 S    
O10   C5    1.280877 A    
C15   C100  1.497699 S    
O6    Cr3   1.927366 S    
C5    C58   1.458074 S    
C98   O36   1.221804 D    
O8    C4    1.277876 A    
C71   C72   1.418620 A    
C87   C88   1.422572 A    
C37   H14   1.110006 S    
C49   C57   1.400384 A    
C8    C16   1.525467 S    
C31   H11   1.110215 S    
C13   H2    1.110520 S    
C77   C88   1.407775 A    
C15   C16   1.533316 S    
C65   C73   1.416720 A    
O22   Cr5   2.039857 S    
C11   C13   1.559432 S    
C83   C84   1.403910 A    
C82   C83   1.382900 A    
C78   H30   1.083759 S    
N4    O34   1.306245 A    
O5    Cr3   2.041300 S    
C66   C67   1.412300 A    
C13   C15   1.549996 S    
C13   C14   1.547939 S    
C21   C29   1.206030 T    
C32   H10   1.109911 S    
C19   C20   1.551213 S    
N2    O29   1.299981 A    
C11   H3    1.109933 S    
O7    C6    1.264199 A    
C27   H7    1.109788 S    
C12   C17   1.460515 S    
C26   C28   1.537185 S    
C61   C62   1.402586 A    
C100  O38   1.219788 D    
C73   C97   1.487249 S    
O2    C1    1.274737 A    
C39   H13   1.109001 S    
C7    H1    1.110297 S    
C44   C47   1.400303 A    
C67   C69   1.417182 A    
C50   H23   1.084710 S    
C81   C96   1.460263 S    
C45   C56   1.409428 A    
C35   C36   1.538804 S    
O3    Cr2   2.040486 S    
C23   C24   1.539358 S    
C8    C12   1.530501 S    
C69   N4    1.431188 S    
C82   C90   1.402038 A    
C53   C54   1.388047 A    
C23   H9    1.109090 S    
C27   C28   1.548875 S    
C80   C81   1.402375 A    
C95   O24   1.269256 A    
O15   C91   1.275315 A    
C77   C78   1.404418 A    
C68   C72   1.409085 A    
C94   O22   1.272242 A    
C32   C40   1.549190 S    
C54   C55   1.399254 A    
C33   C93   1.431812 S    
C60   C63   1.399702 A    
C5    O11   1.262182 A    
Cr5   O26   1.976940 S    
C7    C14   1.547579 S    
