data_mof_unit_51988.cif
_audit_creation_date              2012-12-10T20:40:04-0500
_audit_creation_method            fapswitch 2.2
_symmetry_space_group_name_H-M    P1
_symmetry_Int_Tables_number       1
_space_group_crystal_system       triclinic
_cell_length_a                    23.384369
_cell_length_b                    10.656739
_cell_length_c                    9.950172
_cell_angle_alpha                 90.035939
_cell_angle_beta                  89.308891
_cell_angle_gamma                 90.418001
_cell_volume                      2479.34725317

loop_
_atom_site_label
_atom_site_type_symbol
_atom_type_description
_atom_site_fract_x
_atom_site_fract_y
_atom_site_fract_z
_atom_type_partial_charge
C1    C     C_R   0.502034 0.260341 0.499961 0.877114
C2    C     C_R   0.966656 0.286032 0.546858 -0.182672
C3    C     C_R   0.026032 0.276805 0.536723 -0.033841
C4    C     C_R   0.058901 0.385850 0.505376 -0.085061
C5    C     C_R   0.030593 0.498668 0.471704 -0.014639
C6    C     C_R   0.062349 0.604944 0.430964 -0.018366
C7    C     C_R   0.034587 0.717085 0.400514 -0.181213
C8    C     C_R   0.975302 0.727307 0.413101 -0.034568
C9    C     C_R   0.118992 0.389430 0.512918 0.545487
C10   C     C_R   0.121849 0.598340 0.426142 0.521666
C11   C     C_R   0.237250 0.585317 0.557680 -0.047767
C12   C     C_R   0.389778 0.499229 0.500275 0.861308
C13   C     C_R   0.296473 0.587050 0.564946 -0.140404
C14   C     C_R   0.328109 0.495110 0.498142 -0.046336
C15   C     C_R   0.300820 0.404033 0.419823 -0.264668
C16   C     C_R   0.241704 0.404060 0.409723 -0.073912
C17   C     C_R   0.209716 0.494284 0.479291 0.273701
C18   C     C_R   0.762205 0.505668 0.372180 -0.080146
C19   C     C_R   0.702903 0.501043 0.374118 -0.187595
C20   C     C_R   0.672934 0.505510 0.497170 -0.054551
C21   C     C_R   0.703030 0.515630 0.618029 -0.193705
C22   C     C_R   0.762366 0.520283 0.615670 -0.076912
C23   C     C_R   0.501768 0.739829 0.499965 0.880972
C24   C     C_R   0.791818 0.514938 0.492857 0.297325
C25   C     C_R   0.510216 0.064456 0.622017 0.146068
C26   C     C_R   0.511584 0.129106 0.500543 -0.105495
C27   C     C_R   0.523715 0.065280 0.380354 -0.202052
C28   C     C_R   0.523411 0.935525 0.380319 -0.191010
C29   C     C_R   0.510957 0.871586 0.500459 -0.113625
C30   C     C_R   0.509680 0.936471 0.621892 0.130004
C31   C     C_3   0.467146 0.929888 0.735084 -0.423134
C32   C     C_3   0.468203 0.071994 0.736140 -0.493988
C33   C     C_R   0.461106 0.429813 0.071948 0.170901
C34   C     C_R   0.610583 0.501077 0.499200 0.862509
C35   C     C_R   0.541342 0.562837 0.069117 0.023705
C36   C     C_R   0.541282 0.560722 0.925581 -0.050677
C37   C     C_R   0.460984 0.430165 0.930842 0.111574
C38   C     C_3   0.396672 0.430557 0.926765 -0.307026
C39   C     C_3   0.396924 0.431657 0.081223 -0.355758
C40   C     C_R   0.881919 0.618200 0.449791 0.538619
C41   C     C_R   0.879456 0.405553 0.525938 0.525338
C42   C     C_R   0.938869 0.398755 0.518961 -0.023668
C43   C     C_R   0.970535 0.505696 0.479408 -0.013914
C44   C     C_R   0.942238 0.619404 0.448345 -0.088248
H1    H     H_    0.941867 0.202770 0.572054 0.208566
H2    H     H_    0.680689 0.493135 0.279604 0.185169
H3    H     H_    0.680869 0.519765 0.714129 0.176254
H4    H     H_    0.785570 0.527022 0.708965 0.155187
H5    H     H_    0.529314 0.114412 0.285767 0.176230
H6    H     H_    0.528860 0.886498 0.285694 0.174518
H7    H     H_    0.425356 0.890432 0.703152 0.203007
H8    H     H_    0.485365 0.887528 0.827094 0.231637
H9    H     H_    0.426873 0.114464 0.706767 0.206754
H10   H     H_    0.487635 0.112243 0.828196 0.211571
H11   H     H_    0.573252 0.612716 0.868588 0.175922
H12   H     H_    0.379828 0.341227 0.884345 0.138905
H13   H     H_    0.379575 0.343494 0.125909 0.131413
H14   H     H_    0.059412 0.799780 0.373214 0.205386
H15   H     H_    0.212732 0.655428 0.611556 0.161332
H16   H     H_    0.317593 0.661093 0.620301 0.149154
H17   H     H_    0.325358 0.333982 0.365755 0.145617
H18   H     H_    0.220699 0.334313 0.347963 0.170832
H19   H     H_    0.785273 0.500641 0.277317 0.154384
N1    N     N_R   0.852625 0.513505 0.490883 -0.361778
N2    N     N_R   0.148786 0.493381 0.470808 -0.357428
N3    N     N_R   0.499610 0.499140 0.142800 -0.127055
N4    N     N_R   0.499610 0.499180 0.857150 -0.101614
O1    O     O_R   0.500010 0.316790 0.614690 -0.617494
O2    O     O_2   0.848363 0.304372 0.564980 -0.538200
O3    O     O_2   0.147563 0.293148 0.567989 -0.517258
O4    O     O_2   0.152802 0.696713 0.379038 -0.549846
O5    O     O_R   0.500000 0.316760 0.385350 -0.628138
O6    O     O_R   0.416160 0.499980 0.614700 -0.604495
O7    O     O_R   0.416150 0.499940 0.385360 -0.603248
O8    O     O_R   0.500000 0.683240 0.614650 -0.591833
O9    O     O_R   0.499990 0.683210 0.385310 -0.624080
O10   O     O_R   0.583850 0.500060 0.614640 -0.625524
O11   O     O_R   0.583840 0.500020 0.385300 -0.655613
O12   O     O_2   0.852314 0.718530 0.407558 -0.509116
Zn1   Zn    Zn3+2 0.500000 0.500020 0.653130 0.980072
Zn2   Zn    Zn3+2 0.500000 0.499980 0.346870 0.969419
C45   C     C_2   0.585329 0.640704 0.135460 0.380340
H20   H     H_    0.579500 0.673923 0.236619 0.132722
O13   O     O_2   0.629136 0.671429 0.075607 -0.591765
C46   C     C_2   0.050735 0.149479 0.548536 1.010804
O14   O     O_2   0.034840 0.079707 0.639346 -0.596456
O15   O     O_R   0.089856 0.106873 0.451677 -0.743972
H21   H     H_    0.102784 0.017846 0.469336 0.355391
C47   C     C_2   0.368912 0.544993 0.867274 1.024210
O16   O     O_2   0.317086 0.544540 0.852956 -0.650263
O17   O     O_R   0.400813 0.653657 0.840017 -0.760992
H22   H     H_    0.375922 0.725459 0.809851 0.316743
C48   C     C_2   0.370897 0.548228 0.144106 0.564826
H23   H     H_    0.326672 0.545292 0.178044 0.065914
O18   O     O_2   0.397799 0.646638 0.152285 -0.535815
C49   C     C_2   0.951150 0.854672 0.398201 1.013670
O19   O     O_2   0.963727 0.918080 0.299642 -0.597227
O20   O     O_R   0.916663 0.904811 0.500390 -0.725805
H24   H     H_    0.903448 0.992950 0.479320 0.357724

loop_
_geom_bond_atom_site_label_1
_geom_bond_atom_site_label_2
_ccdc_geom_bond_type
O1    Zn1   S    
C22   H4    S    
O15   H21   S    
C48   H23   S    
C12   O7    A    
C3    C46   S    
C41   C42   A    
C19   C20   A    
C8    C49   S    
C23   O9    A    
C19   H2    S    
C7    C8    A    
C13   H16   S    
C46   O14   D    
C38   C47   S    
C26   C27   A    
C33   C39   S    
C18   C24   A    
C23   C29   S    
C28   C29   A    
C37   C38   S    
C34   O10   A    
C5    C6    A    
C18   H19   S    
O10   Zn1   S    
C15   C16   A    
C39   H13   S    
C1    O1    A    
C18   C19   A    
C39   C48   S    
C28   H6    S    
C35   C36   A    
C16   C17   A    
C49   O20   S    
C12   O6    A    
C47   O17   S    
O8    Zn1   S    
C31   H8    S    
C7    H14   S    
O5    Zn2   S    
C20   C34   S    
C10   O4    S    
C25   C32   S    
C5    C43   A    
C24   N1    S    
C21   C22   A    
C16   H18   S    
C11   H15   S    
C32   H10   S    
C35   C45   S    
C33   N3    A    
C46   O15   S    
C2    H1    S    
C36   N4    A    
C1    O5    A    
C9    O3    S    
C23   O8    A    
O17   H22   S    
C35   N3    A    
C25   C26   A    
C33   C37   A    
C43   C44   A    
C29   C30   A    
C31   C32   S    
C30   C31   S    
C49   O19   D    
C15   H17   S    
C40   O12   S    
C12   C14   S    
O20   H24   S    
C45   O13   D    
C1    C26   S    
C22   C24   A    
C42   C43   A    
O7    Zn2   S    
C3    C4    A    
C32   H9    S    
C41   O2    S    
C10   N2    A    
C25   C30   A    
C11   C17   A    
N4    Zn1   S    
C8    C44   A    
C31   H7    S    
C4    C5    A    
O9    Zn2   S    
C6    C10   A    
C6    C7    A    
C17   N2    S    
C40   N1    A    
C2    C3    A    
C4    C9    A    
C36   H11   S    
C34   O11   A    
N3    Zn2   S    
C11   C13   A    
O11   Zn2   S    
C38   C39   S    
C2    C42   A    
C37   N4    A    
O6    Zn1   S    
C9    N2    A    
C40   C44   A    
C38   H12   S    
C20   C21   A    
C48   O18   D    
C45   H20   S    
C27   C28   A    
C14   C15   A    
C41   N1    A    
C47   O16   D    
C13   C14   A    
C27   H5    S    
C21   H3    S    
