data_mof_unit_54679.cif
_audit_creation_date              2013-03-05T16:35:37-0500
_audit_creation_method            fapswitch 2.2
_symmetry_space_group_name_H-M    P1
_symmetry_Int_Tables_number       1
_space_group_crystal_system       triclinic
_cell_length_a                    7.930661
_cell_length_b                    9.076807
_cell_length_c                    17.445172
_cell_angle_alpha                 90.022225
_cell_angle_beta                  85.386059
_cell_angle_gamma                 89.99459
_cell_volume                      1251.72238418

loop_
_atom_site_label
_atom_site_type_symbol
_atom_site_description
_atom_site_fract_x
_atom_site_fract_y
_atom_site_fract_z
_atom_type_partial_charge
O1    O     O_R   0.357240 0.711600 0.500000 -0.578094
O2    O     O_R   0.642760 0.288400 0.500000 -0.576204
O3    O     O_R   0.642760 0.711600 0.500000 -0.576214
O4    O     O_R   0.357240 0.288400 0.500000 -0.559603
C1    C     C_R   0.499997 0.779363 0.499988 0.817132
C2    C     C_R   0.500001 0.220636 0.500022 0.838363
O5    O     O_R   0.340660 0.500000 0.613590 -0.525605
O6    O     O_R   0.659340 0.500000 0.386410 -0.545305
O7    O     O_R   0.626230 0.500000 0.613600 -0.525976
O8    O     O_R   0.373770 0.500000 0.386400 -0.552360
C3    C     C_R   0.477083 0.496963 0.650816 0.880496
C4    C     C_R   0.523175 0.494556 0.350152 0.900204
Cu1   Cu    Cu3+1 0.330920 0.500000 0.500000 1.137472
Cu2   Cu    Cu3+1 0.669080 0.500000 0.500000 1.135964
N1    N     N_1   0.923170 0.500000 0.500010 0.017504
N2    N     N_1   0.076830 0.500000 0.499990 0.015801
C5    C     C_R   0.463246 0.484844 0.737186 -0.373089
C6    C     C_R   0.535988 0.484720 0.265688 -0.398460
C7    C     C_R   0.604317 0.446497 0.776726 0.199384
C8    C     C_R   0.393128 0.438766 0.228260 0.228467
C9    C     C_R   0.591862 0.426291 0.856219 0.358435
C10   C     C_R   0.380944 0.485857 0.152641 0.353821
C11   C     C_R   0.437612 0.454101 0.898765 -0.183480
C12   C     C_R   0.529651 0.515476 0.106198 -0.184233
C13   C     C_R   0.295015 0.493084 0.861161 0.360998
C14   C     C_R   0.682477 0.530665 0.140268 0.362187
C15   C     C_R   0.308392 0.505222 0.780943 0.200914
C16   C     C_R   0.681613 0.534216 0.220572 0.233104
C17   C     C_2   0.426040 0.446118 0.982589 -0.081549
C18   C     C_2   0.528223 0.528672 0.022328 -0.090179
C19   C     C_1   0.499991 0.934465 0.499982 -0.110476
C20   C     C_1   0.500001 0.065545 0.499993 -0.097700
H1    H     H_    0.621668 0.599470 0.991773 0.199128
H2    H     H_    0.332654 0.372921 0.011054 0.191678
O9    O     O_3   0.139445 0.509686 0.902129 -0.539813
C21   C     C_3   0.116343 0.659860 0.920866 -0.209014
H3    H     H_    0.217412 0.701134 0.956068 0.132438
H4    H     H_    0.993738 0.672465 0.955599 0.207606
H5    H     H_    0.110723 0.728625 0.868386 0.184238
O10   O     O_3   0.832336 0.545158 0.095128 -0.579646
C22   C     C_3   0.890959 0.402077 0.075565 -0.143483
H6    H     H_    0.796516 0.337569 0.045870 0.146076
H7    H     H_    0.924380 0.341067 0.127380 0.213436
H8    H     H_    0.006121 0.410765 0.035578 0.236393
O11   O     O_3   0.224528 0.515884 0.126912 -0.554305
C23   C     C_3   0.199136 0.669918 0.132775 -0.130221
H9    H     H_    0.298818 0.732785 0.098154 0.104896
H10   H     H_    0.193144 0.706432 0.193853 0.200661
H11   H     H_    0.078044 0.699367 0.109613 0.230962
O12   O     O_3   0.734328 0.387410 0.892400 -0.531225
C24   C     C_3   0.740646 0.232390 0.897004 -0.231297
H12   H     H_    0.741336 0.179877 0.839318 0.191410
H13   H     H_    0.633628 0.189028 0.935662 0.131382
H14   H     H_    0.859962 0.200413 0.921679 0.181181
N3    N     N_R   0.764756 0.435971 0.736588 0.203889
O13   O     O_R   0.831552 0.559234 0.711509 -0.259286
O14   O     O_R   0.804690 0.313153 0.701023 -0.325389
N4    N     N_R   0.270162 0.336391 0.263262 0.187657
O15   O     O_R   0.139896 0.298891 0.226909 -0.299731
O16   O     O_R   0.311784 0.249806 0.318143 -0.352971
N5    N     N_R   0.824453 0.595186 0.254538 0.165661
O17   O     O_R   0.858972 0.734535 0.245878 -0.368533
O18   O     O_R   0.928899 0.510307 0.287531 -0.278090
N6    N     N_R   0.160386 0.526453 0.743327 0.198133
O19   O     O_R   0.130845 0.657701 0.717439 -0.329403
O20   O     O_R   0.104618 0.411263 0.709160 -0.256135

loop_
_geom_bond_atom_site_label_1
_geom_bond_atom_site_label_2
_geom_bond_distance
_ccdc_geom_bond_type
C2    C20   1.407733 S    
O7    Cu2   1.983569 S    
C17   C18   1.337501 D    
Cu1   Cu2   2.681832 S    
C13   C15   1.399281 A    
C22   H7    1.110363 S    
C22   H6    1.111062 S    
C5    C7    1.404612 A    
C14   C16   1.400738 A    
O9    C21   1.410116 S    
O6    C4    1.295585 A    
C24   H14   1.109290 S    
C16   N5    1.431259 S    
N3    O13   1.298855 A    
C21   H4    1.109418 S    
O12   C24   1.410525 S    
N3    O14   1.302226 A    
C19   C20   1.189790 T    
O11   C23   1.415033 S    
N6    O19   1.302103 A    
O5    C3    1.306183 A    
O7    C3    1.303016 A    
C23   H11   1.104280 S    
C14   O10   1.378210 S    
O2    C2    1.288489 A    
O3    Cu2   1.931942 S    
O8    C4    1.298339 A    
C13   O9    1.383368 S    
O1    C1    1.288480 A    
C11   C17   1.459636 S    
C21   H3    1.113116 S    
C7    C9    1.394513 A    
C12   C14   1.398968 A    
C12   C18   1.469019 S    
C9    C11   1.401717 A    
N5    O17   1.300444 A    
O2    Cu2   1.931982 S    
C22   H8    1.106579 S    
C10   C12   1.402170 A    
O1    Cu1   1.931981 S    
C15   N6    1.403404 S    
C24   H13   1.112767 S    
N4    O16   1.301782 A    
C24   H12   1.112955 S    
C5    C15   1.405047 A    
C23   H10   1.113100 S    
O5    Cu1   1.989301 S    
C10   O11   1.379912 S    
C6    C16   1.417470 A    
C6    C8    1.415221 A    
O4    C2    1.288452 A    
C11   C13   1.397820 A    
Cu1   N2    2.015116 S    
C7    N3    1.405344 S    
O4    Cu1   1.931943 S    
N5    O18   1.299190 A    
C23   H9    1.113056 S    
O10   C22   1.411851 S    
O6    Cu2   1.989301 S    
N6    O20   1.298488 A    
C9    O12   1.383587 S    
C18   H1    1.087694 S    
O3    C1    1.288455 A    
N4    O15   1.300252 A    
Cu2   N1    2.015115 S    
C8    N4    1.446431 S    
C17   H2    1.085220 S    
C21   H5    1.112097 S    
C3    C5    1.505958 S    
N1    N2    1.218598 T    
C8    C10   1.397575 A    
C1    C19   1.407831 S    
O8    Cu1   1.983571 S    
C4    C6    1.471487 S    
