data_mof_unit_12706.cif
_audit_creation_date              2012-12-11T15:06:57-0500
_audit_creation_method            fapswitch 2.2
_symmetry_space_group_name_H-M    P1
_symmetry_Int_Tables_number       1
_space_group_crystal_system       triclinic
_cell_length_a                    19.724747
_cell_length_b                    11.266873
_cell_length_c                    18.683917
_cell_angle_alpha                 89.999956
_cell_angle_beta                  89.284629
_cell_angle_gamma                 90.000083
_cell_volume                      4151.91943603

loop_
_atom_site_label
_atom_site_type_symbol
_atom_type_description
_atom_site_fract_x
_atom_site_fract_y
_atom_site_fract_z
_atom_type_partial_charge
C1    C     C_R   0.761613 0.523692 0.639155 0.544988
C2    C     C_3   0.253329 0.056848 0.563147 0.064342
C3    C     C_R   0.740531 0.036994 0.152576 0.553367
C4    C     C_R   0.773674 0.131289 0.858576 0.541512
C5    C     C_R   0.226326 0.131289 0.141424 0.541512
C6    C     C_R   0.273674 0.631289 0.858576 0.541512
C7    C     C_R   0.726326 0.631289 0.141424 0.541512
C8    C     C_R   0.945539 0.356689 0.861680 0.564581
C9    C     C_R   0.054459 0.356689 0.138320 0.564581
C10   C     C_R   0.445539 0.856689 0.861680 0.564581
C11   C     C_R   0.554459 0.856689 0.138320 0.564581
C12   C     C_3   0.687310 0.132274 0.466527 -0.237213
C13   C     C_3   0.246671 0.556848 0.436853 0.064342
C14   C     C_3   0.312691 0.132274 0.533473 -0.237213
C15   C     C_3   0.187309 0.632274 0.466527 -0.237213
C16   C     C_3   0.812691 0.632274 0.533473 -0.237213
C17   C     C_3   0.692967 0.144812 0.547725 -0.229717
C18   C     C_3   0.307033 0.144812 0.452275 -0.229717
C19   C     C_3   0.192967 0.644812 0.547725 -0.229717
C20   C     C_3   0.807033 0.644812 0.452275 -0.229717
C21   C     C_3   0.756166 0.938741 0.480640 -0.221215
C22   C     C_3   0.243834 0.938741 0.519360 -0.221214
C23   C     C_3   0.256166 0.438741 0.480640 -0.221215
C24   C     C_3   0.753329 0.556848 0.563147 0.064342
C25   C     C_3   0.743834 0.438741 0.519360 -0.221214
C26   C     C_3   0.760624 0.090269 0.574290 0.065451
C27   C     C_3   0.239376 0.090269 0.425710 0.065451
C28   C     C_3   0.260624 0.590269 0.574290 0.065451
C29   C     C_3   0.739376 0.590269 0.425710 0.065451
C30   C     C_3   0.753940 0.957455 0.562170 -0.260794
C31   C     C_3   0.246060 0.957455 0.437830 -0.260795
C32   C     C_3   0.253940 0.457455 0.562170 -0.260795
C33   C     C_R   0.238387 0.523691 0.360845 0.544988
C34   C     C_3   0.746060 0.457455 0.437830 -0.260795
C35   C     C_3   0.823241 0.133306 0.528897 -0.221681
C36   C     C_3   0.176758 0.133305 0.471103 -0.221681
C37   C     C_3   0.323242 0.633306 0.528897 -0.221681
C38   C     C_3   0.676759 0.633305 0.471103 -0.221681
C39   C     C_3   0.003849 0.203611 0.458914 -0.234929
C40   C     C_3   0.996151 0.203611 0.541086 -0.234928
C41   C     C_3   0.503849 0.703611 0.458914 -0.234929
C42   C     C_3   0.496151 0.703611 0.541086 -0.234928
C43   C     C_3   0.064285 0.405894 0.473260 -0.220177
C44   C     C_R   0.261613 0.023692 0.639155 0.544988
C45   C     C_3   0.935715 0.405894 0.526740 -0.220177
C46   C     C_3   0.564285 0.905894 0.473260 -0.220177
C47   C     C_3   0.435715 0.905894 0.526740 -0.220177
C48   C     C_3   0.941491 0.390090 0.445554 -0.259835
C49   C     C_3   0.058510 0.390090 0.554446 -0.259835
C50   C     C_3   0.441491 0.890090 0.445554 -0.259835
C51   C     C_3   0.558509 0.890090 0.554446 -0.259835
C52   C     C_3   0.010178 0.332709 0.430850 0.060608
C53   C     C_3   0.989823 0.332709 0.569150 0.060608
C54   C     C_3   0.510178 0.832709 0.430850 0.060608
C55   C     C_R   0.738387 0.023692 0.360845 0.544988
C56   C     C_3   0.489823 0.832709 0.569150 0.060609
C57   C     C_3   0.819419 0.030400 0.046425 -0.232361
C58   C     C_3   0.180583 0.030394 0.953576 -0.232359
C59   C     C_3   0.319419 0.530400 0.046425 -0.232361
C60   C     C_3   0.680583 0.530394 0.953576 -0.232359
C61   C     C_R   0.774516 0.121067 0.649477 0.545013
C62   C     C_R   0.225484 0.121067 0.350523 0.545012
C63   C     C_R   0.274516 0.621067 0.649477 0.545013
C64   C     C_R   0.725484 0.621067 0.350523 0.545012
C65   C     C_3   0.818775 0.024611 0.965949 -0.239260
C66   C     C_3   0.810390 0.131088 0.448099 -0.256448
C67   C     C_3   0.181227 0.024607 0.034052 -0.239264
C68   C     C_3   0.318775 0.524611 0.965949 -0.239260
C69   C     C_3   0.681227 0.524607 0.034052 -0.239264
C70   C     C_3   0.690749 0.015748 0.034644 -0.226854
C71   C     C_3   0.309254 0.015758 0.965356 -0.226852
C72   C     C_3   0.190749 0.515748 0.034644 -0.226854
C73   C     C_3   0.809254 0.515758 0.965356 -0.226852
C74   C     C_3   0.740953 0.204339 0.059997 -0.254366
C75   C     C_3   0.259043 0.204340 0.940003 -0.254371
C76   C     C_3   0.240953 0.704339 0.059997 -0.254366
C77   C     C_3   0.189610 0.131088 0.551901 -0.256448
C78   C     C_3   0.759043 0.704340 0.940003 -0.254371
C79   C     C_3   0.748911 0.073110 0.076055 0.069311
C80   C     C_3   0.251090 0.073110 0.923944 0.069307
C81   C     C_3   0.248911 0.573110 0.076055 0.069311
C82   C     C_3   0.751090 0.573110 0.923944 0.069307
C83   C     C_3   0.759842 0.102862 0.936184 0.057432
C84   C     C_3   0.240159 0.102863 0.063815 0.057433
C85   C     C_3   0.259842 0.602862 0.936184 0.057432
C86   C     C_3   0.740159 0.602863 0.063815 0.057433
C87   C     C_3   0.694821 0.035551 0.952246 -0.250807
C88   C     C_3   0.310390 0.631088 0.448099 -0.256448
C89   C     C_3   0.305181 0.035558 0.047754 -0.250805
C90   C     C_3   0.194821 0.535551 0.952246 -0.250807
C91   C     C_3   0.805181 0.535558 0.047754 -0.250805
C92   C     C_3   0.754468 0.220482 0.978815 -0.233751
C93   C     C_3   0.245527 0.220483 0.021184 -0.233757
C94   C     C_3   0.254468 0.720482 0.978815 -0.233752
C95   C     C_3   0.745526 0.720483 0.021184 -0.233757
C96   C     C_3   0.004367 0.481816 0.040218 -0.241011
C97   C     C_3   0.995630 0.481816 0.959783 -0.241009
C98   C     C_3   0.504367 0.981815 0.040218 -0.241011
C99   C     C_3   0.689610 0.631088 0.551901 -0.256448
C100  C     C_3   0.495630 0.981816 0.959783 -0.241009
C101  C     C_3   0.073277 0.296921 0.008204 -0.289642
C102  C     C_3   0.926720 0.296920 0.991797 -0.289643
C103  C     C_3   0.573277 0.796921 0.008204 -0.289642
C104  C     C_3   0.426719 0.796920 0.991797 -0.289644
C105  C     C_3   0.960858 0.275639 0.064392 -0.038099
C106  C     C_3   0.039139 0.275642 0.935608 -0.038094
C107  C     C_3   0.460858 0.775639 0.064392 -0.038099
C108  C     C_3   0.539139 0.775642 0.935608 -0.038095
C109  C     C_R   0.969669 0.342022 0.645202 0.565288
C110  C     C_3   0.746671 0.056847 0.436853 0.064342
C111  C     C_R   0.030332 0.342022 0.354799 0.565289
C112  C     C_R   0.469669 0.842022 0.645202 0.565288
C113  C     C_R   0.530332 0.842022 0.354799 0.565288
C114  C     C_3   0.024549 0.353783 0.065134 0.059267
C115  C     C_3   0.975447 0.353784 0.934867 0.059266
C116  C     C_3   0.524549 0.853783 0.065134 0.059267
C117  C     C_3   0.475447 0.853784 0.934867 0.059266
C118  C     C_R   0.759468 0.536993 0.847424 0.553365
C119  C     C_R   0.240532 0.536994 0.152576 0.553368
C120  C     C_R   0.259468 0.036993 0.847424 0.553365
Cr1   Cr    Cr6+3 0.885690 0.492860 0.745310 1.005405
Cr2   Cr    Cr6+3 0.111880 0.178590 0.246990 1.014580
Cr3   Cr    Cr6+3 0.388120 0.678590 0.753010 1.014579
Cr4   Cr    Cr6+3 0.611880 0.678590 0.246990 1.014580
Cr5   Cr    Cr6+3 0.114310 0.492860 0.254690 1.005405
Cr6   Cr    Cr6+3 0.385690 0.992860 0.745310 1.005405
Cr7   Cr    Cr6+3 0.614310 0.992860 0.254690 1.005405
Cr8   Cr    Cr6+3 0.729880 0.332270 0.748190 1.006163
Cr9   Cr    Cr6+3 0.270120 0.332270 0.251810 1.006163
Cr10  Cr    Cr6+3 0.229880 0.832270 0.748190 1.006163
Cr11  Cr    Cr6+3 0.770120 0.832270 0.251810 1.006163
Cr12  Cr    Cr6+3 0.888120 0.178590 0.753010 1.014579
H1    H     H_    0.638535 0.095468 0.452446 0.129224
H2    H     H_    0.191632 0.908393 0.531426 0.127320
H3    H     H_    0.460359 0.052930 0.945157 0.116750
H4    H     H_    0.955925 0.508115 0.066472 0.162831
H5    H     H_    0.044071 0.508117 0.933530 0.162831
H6    H     H_    0.455925 0.008115 0.066472 0.162830
H7    H     H_    0.544072 0.008117 0.933530 0.162831
H8    H     H_    0.613006 0.858376 0.995059 0.134822
H9    H     H_    0.386990 0.858372 0.004944 0.134822
H10   H     H_    0.113006 0.358376 0.995059 0.134822
H11   H     H_    0.886990 0.358372 0.004944 0.134822
H12   H     H_    0.975473 0.180292 0.067990 0.137170
H13   H     H_    0.308368 0.408393 0.468574 0.127320
H14   H     H_    0.024525 0.180295 0.932009 0.137171
H15   H     H_    0.475473 0.680292 0.067990 0.137170
H16   H     H_    0.524525 0.680295 0.932009 0.137171
H17   H     H_    0.908094 0.212768 0.970996 0.102793
H18   H     H_    0.091902 0.212767 0.029004 0.102790
H19   H     H_    0.408094 0.712768 0.970996 0.102793
H20   H     H_    0.591902 0.712767 0.029004 0.102790
H21   H     H_    0.649402 0.100288 0.574286 0.111304
H22   H     H_    0.350598 0.100289 0.425714 0.111304
H23   H     H_    0.149402 0.600288 0.574286 0.111304
H24   H     H_    0.691632 0.408393 0.531426 0.127320
H25   H     H_    0.850598 0.600289 0.425714 0.111304
H26   H     H_    0.721496 0.868632 0.464568 0.108627
H27   H     H_    0.278504 0.868633 0.535432 0.108628
H28   H     H_    0.221496 0.368632 0.464568 0.108627
H29   H     H_    0.778505 0.368633 0.535432 0.108628
H30   H     H_    0.706012 0.923352 0.585949 0.112630
H31   H     H_    0.293988 0.923352 0.414051 0.112630
H32   H     H_    0.206012 0.423352 0.585949 0.112630
H33   H     H_    0.793987 0.423352 0.414051 0.112630
H34   H     H_    0.854471 0.091157 0.419451 0.130137
H35   H     H_    0.796269 0.909544 0.588126 0.123040
H36   H     H_    0.145530 0.091157 0.580549 0.130136
H37   H     H_    0.354471 0.591157 0.419451 0.130137
H38   H     H_    0.645530 0.591157 0.580549 0.130136
H39   H     H_    0.803721 0.221905 0.426843 0.110425
H40   H     H_    0.196279 0.221905 0.573157 0.110425
H41   H     H_    0.303721 0.721905 0.426843 0.110425
H42   H     H_    0.696280 0.721905 0.573157 0.110425
H43   H     H_    0.842264 0.219350 0.546457 0.109928
H44   H     H_    0.157736 0.219349 0.453543 0.109928
H45   H     H_    0.342264 0.719350 0.546457 0.109928
H46   H     H_    0.203731 0.909544 0.411874 0.123040
H47   H     H_    0.657736 0.719349 0.453543 0.109928
H48   H     H_    0.296269 0.409544 0.588126 0.123040
H49   H     H_    0.703731 0.409544 0.411874 0.123040
H50   H     H_    0.046529 0.149415 0.441501 0.131131
H51   H     H_    0.953471 0.149415 0.558499 0.131131
H52   H     H_    0.546529 0.649415 0.441501 0.131131
H53   H     H_    0.361466 0.095467 0.547553 0.129224
H54   H     H_    0.453471 0.649415 0.558499 0.131131
H55   H     H_    0.959463 0.159488 0.434887 0.112159
H56   H     H_    0.040537 0.159488 0.565113 0.112159
H57   H     H_    0.459463 0.659488 0.434887 0.112159
H58   H     H_    0.540537 0.659488 0.565113 0.112159
H59   H     H_    0.615985 0.891258 0.453512 0.110581
H60   H     H_    0.384016 0.891258 0.546488 0.110581
H61   H     H_    0.115985 0.391258 0.453512 0.110581
H62   H     H_    0.884016 0.391258 0.546488 0.110581
H63   H     H_    0.600234 0.834366 0.574828 0.113939
H64   H     H_    0.138535 0.595468 0.452446 0.129224
H65   H     H_    0.399767 0.834367 0.425172 0.113939
H66   H     H_    0.100234 0.334366 0.574828 0.113939
H67   H     H_    0.899767 0.334367 0.425172 0.113939
H68   H     H_    0.938175 0.477612 0.418538 0.126550
H69   H     H_    0.061825 0.477612 0.581462 0.126550
H70   H     H_    0.438175 0.977612 0.418538 0.126550
H71   H     H_    0.561825 0.977612 0.581462 0.126550
H72   H     H_    0.948077 0.500279 0.536822 0.130504
H73   H     H_    0.051924 0.500279 0.463178 0.130504
H74   H     H_    0.448077 0.000279 0.536822 0.130504
H75   H     H_    0.861466 0.595467 0.547553 0.129224
H76   H     H_    0.551923 0.000279 0.463178 0.130504
H77   H     H_    0.836199 0.942188 0.065090 0.139928
H78   H     H_    0.163805 0.942182 0.934911 0.139928
H79   H     H_    0.336199 0.442188 0.065090 0.139928
H80   H     H_    0.663805 0.442182 0.934911 0.139928
H81   H     H_    0.687524 0.221079 0.441333 0.109163
H82   H     H_    0.312477 0.221079 0.558666 0.109163
H83   H     H_    0.187524 0.721079 0.441333 0.109163
H84   H     H_    0.812477 0.721079 0.558666 0.109163
H85   H     H_    0.859205 0.092709 0.064279 0.148473
H86   H     H_    0.863838 0.067393 0.538180 0.124989
H87   H     H_    0.140795 0.092699 0.935722 0.148467
H88   H     H_    0.359205 0.592709 0.064279 0.148473
H89   H     H_    0.640795 0.592699 0.935722 0.148467
H90   H     H_    0.870361 0.046316 0.946449 0.138190
H91   H     H_    0.129641 0.046314 0.053551 0.138190
H92   H     H_    0.370361 0.546316 0.946449 0.138190
H93   H     H_    0.629641 0.546314 0.053551 0.138190
H94   H     H_    0.811537 0.931700 0.948464 0.119729
H95   H     H_    0.188466 0.931697 0.051539 0.119732
H96   H     H_    0.311537 0.431700 0.948464 0.119729
H97   H     H_    0.136162 0.067393 0.461821 0.124989
H98   H     H_    0.688466 0.431698 0.051539 0.119732
H99   H     H_    0.691972 0.924879 0.050814 0.096224
H100  H     H_    0.308038 0.924892 0.949184 0.096222
H101  H     H_    0.191972 0.424879 0.050814 0.096224
H102  H     H_    0.808038 0.424892 0.949184 0.096222
H103  H     H_    0.695470 0.950037 0.923724 0.141966
H104  H     H_    0.304534 0.950044 0.076275 0.141964
H105  H     H_    0.195470 0.450037 0.923724 0.141966
H106  H     H_    0.804535 0.450044 0.076275 0.141964
H107  H     H_    0.688916 0.234869 0.074438 0.117063
H108  H     H_    0.363838 0.567393 0.538180 0.124989
H109  H     H_    0.311077 0.234876 0.925560 0.117064
H110  H     H_    0.188916 0.734869 0.074438 0.117063
H111  H     H_    0.811077 0.734877 0.925560 0.117064
H112  H     H_    0.775727 0.257882 0.091710 0.148380
H113  H     H_    0.224266 0.257875 0.908289 0.148384
H114  H     H_    0.275727 0.757882 0.091710 0.148380
H115  H     H_    0.724266 0.757876 0.908289 0.148384
H116  H     H_    0.803871 0.256582 0.973105 0.111418
H117  H     H_    0.196120 0.256566 0.026891 0.111422
H118  H     H_    0.303871 0.756582 0.973106 0.111419
H119  H     H_    0.636162 0.567393 0.461820 0.124989
H120  H     H_    0.696120 0.756567 0.026891 0.111422
H121  H     H_    0.716028 0.279562 0.955684 0.130545
H122  H     H_    0.283961 0.279576 0.044316 0.130545
H123  H     H_    0.216028 0.779562 0.955684 0.130545
H124  H     H_    0.783961 0.779576 0.044316 0.130545
H125  H     H_    0.642644 0.052064 0.054467 0.125618
H126  H     H_    0.357356 0.052084 0.945534 0.125620
H127  H     H_    0.142644 0.552064 0.054467 0.125618
H128  H     H_    0.857356 0.552084 0.945534 0.125620
H129  H     H_    0.687268 0.237103 0.563645 0.138898
H130  H     H_    0.808368 0.908393 0.468574 0.127320
H131  H     H_    0.312732 0.237104 0.436354 0.138898
H132  H     H_    0.187268 0.737103 0.563645 0.138898
H133  H     H_    0.812732 0.737104 0.436354 0.138898
H134  H     H_    0.650574 0.087772 0.933790 0.129552
H135  H     H_    0.349427 0.087783 0.066210 0.129551
H136  H     H_    0.150574 0.587773 0.933790 0.129551
H137  H     H_    0.849427 0.587783 0.066210 0.129551
H138  H     H_    0.039637 0.552931 0.054844 0.116751
H139  H     H_    0.960359 0.552930 0.945157 0.116750
H140  H     H_    0.539637 0.052931 0.054844 0.116751
I1    I     I_    0.604259 0.804523 0.842164 -0.462537
I2    I     I_    0.395738 0.804515 0.157837 -0.462537
I3    I     I_    0.104259 0.304523 0.842164 -0.462537
I4    I     I_    0.895738 0.304515 0.157837 -0.462537
O1    O     O_R   0.957210 0.449410 0.665480 -0.524020
O2    O     O_R   0.167480 0.095300 0.164000 -0.534967
O3    O     O_R   0.332520 0.595300 0.836000 -0.534968
O4    O     O_R   0.667480 0.595300 0.164000 -0.534967
O5    O     O_R   0.946380 0.253940 0.826940 -0.480761
O6    O     O_R   0.053620 0.253940 0.173060 -0.480761
O7    O     O_R   0.446380 0.753940 0.826940 -0.480761
O8    O     O_R   0.553620 0.753940 0.173060 -0.480761
O9    O     O_3   0.834560 0.334570 0.748840 -0.296552
O10   O     O_3   0.165440 0.334570 0.251160 -0.296551
O11   O     O_3   0.334560 0.834570 0.748840 -0.296551
O12   O     O_R   0.042790 0.449410 0.334520 -0.524020
O13   O     O_3   0.665440 0.834570 0.251160 -0.296551
O14   O     O_R   0.820730 0.541240 0.668250 -0.515457
O15   O     O_R   0.179270 0.541240 0.331750 -0.515458
O16   O     O_R   0.320730 0.041240 0.668250 -0.515457
O17   O     O_R   0.679270 0.041240 0.331750 -0.515458
O18   O     O_R   0.714240 0.455060 0.663710 -0.526643
O19   O     O_R   0.285760 0.455060 0.336290 -0.526642
O20   O     O_R   0.214240 0.955060 0.663710 -0.526643
O21   O     O_R   0.785760 0.955060 0.336290 -0.526642
O22   O     O_R   0.736780 0.204870 0.675910 -0.512463
O23   O     O_R   0.457210 0.949410 0.665480 -0.524020
O24   O     O_R   0.263220 0.204870 0.324090 -0.512464
O25   O     O_R   0.236780 0.704870 0.675910 -0.512463
O26   O     O_R   0.763220 0.704870 0.324090 -0.512464
O27   O     O_R   0.833070 0.087590 0.673490 -0.528640
O28   O     O_R   0.166930 0.087590 0.326510 -0.528640
O29   O     O_R   0.333070 0.587590 0.673490 -0.528639
O30   O     O_R   0.666930 0.587590 0.326510 -0.528640
O31   O     O_R   0.946890 0.246800 0.676300 -0.499603
O32   O     O_R   0.053110 0.246800 0.323700 -0.499603
O33   O     O_R   0.446890 0.746800 0.676300 -0.499603
O34   O     O_R   0.542790 0.949410 0.334520 -0.524020
O35   O     O_R   0.553110 0.746800 0.323700 -0.499603
O36   O     O_R   0.956650 0.457120 0.827980 -0.501100
O37   O     O_R   0.043350 0.457120 0.172020 -0.501103
O38   O     O_R   0.456650 0.957120 0.827980 -0.501100
O39   O     O_R   0.543350 0.957120 0.172020 -0.501103
O40   O     O_R   0.820220 0.548390 0.818890 -0.523314
O41   O     O_R   0.179780 0.548390 0.181110 -0.523314
O42   O     O_R   0.320220 0.048390 0.818890 -0.523314
O43   O     O_R   0.679780 0.048390 0.181110 -0.523314
O44   O     O_R   0.713680 0.462770 0.826210 -0.519050
O45   O     O_R   0.736260 0.212010 0.826560 -0.506038
O46   O     O_R   0.286320 0.462770 0.173790 -0.519050
O47   O     O_R   0.213680 0.962770 0.826210 -0.519050
O48   O     O_R   0.786320 0.962770 0.173790 -0.519050
O49   O     O_R   0.263740 0.212010 0.173440 -0.506038
O50   O     O_R   0.236260 0.712010 0.826560 -0.506038
O51   O     O_R   0.763740 0.712010 0.173440 -0.506038
O52   O     O_R   0.832520 0.095300 0.836000 -0.534968

loop_
_geom_bond_atom_site_label_1
_geom_bond_atom_site_label_2
_ccdc_geom_bond_type
C19   H23   S    
Cr11  O26   S    
C17   H21   S    
C21   C110  S    
Cr7   O13   S    
C71   H126  S    
Cr8   O18   S    
C6    C85   S    
C1    O18   A    
C98   H6    S    
Cr2   O28   S    
C9    C114  S    
C89   H104  S    
Cr1   O1    S    
Cr3   O3    S    
C22   H27   S    
Cr10  O20   S    
C87   H103  S    
C21   H26   S    
C74   C92   S    
C76   C94   S    
C2    C22   S    
C38   H47   S    
C3    O43   A    
C97   C115  S    
C64   O30   A    
C47   H74   S    
C100  H3    S    
C25   C34   S    
C20   C29   S    
C74   H112  S    
C92   H121  S    
Cr12  O5    S    
C29   C64   S    
C3    C79   S    
C96   C114  S    
C11   O8    A    
C65   H90   S    
C50   H70   S    
C57   H77   S    
C112  O23   A    
C48   H67   S    
C27   C31   S    
C28   C32   S    
C15   H83   S    
C108  I1    S    
C93   H122  S    
C38   C99   S    
C35   C66   S    
C118  O44   A    
C119  O41   A    
C77   H36   S    
C13   C33   S    
C75   H109  S    
C42   H58   S    
C16   C20   S    
C119  O46   A    
C66   C110  S    
C67   H91   S    
C60   H80   S    
C73   H102  S    
C33   O19   A    
C103  H20   S    
C15   H64   S    
C74   C79   S    
Cr10  O25   S    
C30   H30   S    
Cr12  O31   S    
Cr6   O38   S    
C75   C93   S    
C104  C117  S    
C53   C109  S    
C45   H62   S    
C14   H53   S    
C5    O49   A    
C88   H37   S    
C70   C79   S    
C105  I4    S    
C106  I3    S    
C95   H120  S    
C85   C90   S    
C68   H96   S    
C81   C119  S    
C78   H111  S    
C61   O27   A    
C41   H57   S    
C106  C115  S    
C36   C77   S    
C35   H43   S    
C103  C116  S    
C51   H63   S    
C99   H42   S    
Cr1   O36   S    
C49   C53   S    
C84   C93   S    
C2    C14   S    
C86   C95   S    
C102  H17   S    
C28   C63   S    
C26   C35   S    
C48   C52   S    
C44   O20   A    
C104  H9    S    
C32   H48   S    
C100  C117  S    
C104  C107  S    
C108  H16   S    
Cr7   O39   S    
C112  O33   A    
Cr4   O30   S    
C46   H59   S    
C60   H89   S    
C12   C110  S    
C92   H116  S    
C72   H101  S    
C46   H76   S    
C113  O35   A    
C102  C105  S    
C27   C62   S    
C30   H35   S    
C77   H40   S    
C43   C52   S    
C7    C86   S    
Cr9   O19   S    
C4    O52   A    
C13   C23   S    
Cr4   O35   S    
C58   H87   S    
C47   H60   S    
C6    O50   A    
C70   H99   S    
C19   H132  S    
C70   H125  S    
C38   H119  S    
C25   H29   S    
Cr12  O27   S    
C29   C38   S    
C1    O14   A    
C111  O12   A    
C41   H52   S    
C34   H33   S    
Cr11  O48   S    
C18   H22   S    
Cr7   O17   S    
C40   H51   S    
C45   C53   S    
C96   C97   S    
C25   H24   S    
Cr2   O32   S    
C68   C85   S    
C68   H92   S    
C70   C87   S    
C94   H118  S    
C97   H5    S    
C59   H79   S    
C47   C50   S    
C9    O37   A    
Cr4   O8    S    
C49   H69   S    
Cr11  O13   S    
C31   H46   S    
C66   H39   S    
C39   C40   S    
C5    C84   S    
Cr6   O23   S    
C87   H134  S    
C46   C51   S    
C100  H7    S    
C72   C90   S    
C101  H10   S    
C58   C67   S    
Cr12  O9    S    
C67   H95   S    
C8    O36   A    
C19   C28   S    
Cr5   O15   S    
Cr6   O16   S    
C26   C30   S    
C7    O51   A    
C4    O45   A    
C101  C106  S    
C118  O40   A    
C108  C117  S    
C5    O2    A    
C109  O1    A    
C40   H56   S    
C37   H45   S    
C109  O31   A    
C43   H61   S    
C62   O28   A    
C18   H131  S    
C10   C117  S    
C103  H8    S    
C28   C37   S    
C32   H32   S    
C9    O6    A    
C107  C116  S    
C39   H50   S    
C55   O17   A    
C21   H130  S    
Cr12  O52   S    
C72   H127  S    
C102  H11   S    
C95   H124  S    
C47   C56   S    
C83   C87   S    
C41   C42   S    
C37   C88   S    
C16   H75   S    
C105  H12   S    
C96   H4    S    
C99   H38   S    
Cr1   O40   S    
C15   C19   S    
C50   C54   S    
C48   H68   S    
Cr1   O14   S    
C26   C61   S    
Cr8   O9    S    
C59   H88   S    
C101  H18   S    
Cr8   O45   S    
C14   H82   S    
C34   H49   S    
C16   H84   S    
C14   C18   S    
Cr5   O41   S    
C102  C115  S    
C42   C56   S    
Cr10  O50   S    
C55   O21   A    
Cr7   O43   S    
C36   H97   S    
Cr8   O44   S    
C12   C17   S    
C72   C81   S    
C58   C80   S    
C101  C114  S    
C12   H81   S    
C6    O3    A    
C50   H65   S    
C51   H71   S    
Cr4   O4    S    
C64   O26   A    
Cr4   O13   S    
C97   H139  S    
C37   H108  S    
C98   H140  S    
C29   C34   S    
C89   H135  S    
C10   O7    A    
C76   C81   S    
C90   H136  S    
C107  H15   S    
Cr11  O51   S    
C78   C95   S    
C46   C54   S    
Cr3   O33   S    
Cr1   O9    S    
C11   C116  S    
Cr2   O6    S    
Cr3   O11   S    
C10   O38   A    
C36   H44   S    
C98   C100  S    
C20   H25   S    
C7    O4    A    
C73   C82   S    
Cr10  O47   S    
C45   C48   S    
Cr7   O34   S    
Cr5   O10   S    
C90   H105  S    
Cr9   O49   S    
C59   C81   S    
C57   C65   S    
Cr10  O11   S    
C69   H93   S    
C27   C36   S    
C21   C30   S    
C113  O34   A    
C23   C32   S    
C2    C77   S    
C4    C83   S    
C57   H85   S    
C45   H72   S    
C91   H106  S    
C65   H94   S    
C17   H129  S    
C86   C91   S    
Cr11  O21   S    
C94   H123  S    
C80   C120  S    
C43   H73   S    
C24   C99   S    
C62   O24   A    
C57   C79   S    
C76   H110  S    
C63   O29   A    
C73   H128  S    
C83   C92   S    
C23   H13   S    
C22   H2    S    
C17   C26   S    
C60   C69   S    
C104  H19   S    
Cr9   O10   S    
C65   C83   S    
C120  O47   A    
C96   H138  S    
C54   C113  S    
C51   C56   S    
C74   H107  S    
C107  I2    S    
C78   C82   S    
C8    C115  S    
C60   C82   S    
C71   H100  S    
C103  C108  S    
C120  O42   A    
C75   C80   S    
C75   H113  S    
C39   H55   S    
C42   H54   S    
C39   C52   S    
Cr5   O12   S    
C67   C84   S    
C16   C24   S    
Cr6   O11   S    
C71   C80   S    
C33   O15   A    
C93   H117  S    
C49   H66   S    
C58   H78   S    
C111  O32   A    
C31   H31   S    
C22   C31   S    
C66   H34   S    
C105  C114  S    
C24   C25   S    
C73   C91   S    
Cr5   O37   S    
C2    C44   S    
Cr6   O42   S    
C43   C49   S    
C52   C111  S    
C88   H41   S    
C59   C68   S    
C85   C94   S    
C98   C116  S    
C3    O48   A    
C71   C89   S    
C23   H28   S    
C78   H115  S    
C1    C24   S    
C63   O25   A    
C12   H1    S    
C13   C15   S    
C55   C110  S    
C84   C89   S    
C35   H86   S    
C61   O22   A    
C44   O16   A    
C76   H114  S    
C18   C27   S    
C91   H137  S    
C20   H133  S    
Cr8   O22   S    
Cr9   O24   S    
C106  H14   S    
Cr3   O29   S    
Cr9   O46   S    
Cr2   O10   S    
Cr2   O2    S    
Cr3   O7    S    
C69   H98   S    
C8    O5    A    
C11   O39   A    
C13   C88   S    
C41   C54   S    
C40   C53   S    
C82   C118  S    
C56   C112  S    
C69   C86   S    
