data_mof_unit_36924.cif
_audit_creation_date              2012-12-10T17:02:19-0500
_audit_creation_method            fapswitch 2.2
_symmetry_space_group_name_H-M    P1
_symmetry_Int_Tables_number       1
_space_group_crystal_system       triclinic
_cell_length_a                    10.642199
_cell_length_b                    10.686057
_cell_length_c                    10.036602
_cell_angle_alpha                 90.506193
_cell_angle_beta                  90.009139
_cell_angle_gamma                 89.943985
_cell_volume                      1141.34884326

loop_
_atom_site_label
_atom_site_type_symbol
_atom_type_description
_atom_site_fract_x
_atom_site_fract_y
_atom_site_fract_z
_atom_type_partial_charge
C1    C     C_R   0.497493 0.262320 0.499158 0.895947
C2    C     C_2   0.491710 0.129559 0.496127 -0.271489
C3    C     C_2   0.568790 0.575090 0.925662 -0.124167
C4    C     C_R   0.260562 0.496334 0.499951 0.870881
C5    C     C_2   0.573348 0.570721 0.075623 -0.124551
C6    C     C_R   0.510584 0.737264 0.500535 0.835978
C7    C     C_R   0.739431 0.495857 0.499997 0.863495
C8    C     C_R   0.131581 0.290392 0.628342 -0.185398
C9    C     C_R   0.066361 0.195227 0.692430 -0.161453
C10   C     C_R   0.935690 0.195657 0.693656 -0.082122
C11   C     C_R   0.869672 0.290816 0.630046 -0.146884
C12   C     C_R   0.066188 0.389323 0.565960 0.098743
C13   C     C_R   0.934388 0.389374 0.566444 0.074471
C14   C     C_2   0.625348 0.911424 0.617667 0.382907
C15   C     C_R   0.128301 0.487211 0.499434 -0.098988
C16   C     C_R   0.063973 0.579315 0.430026 -0.202219
C17   C     C_R   0.935602 0.579180 0.430102 -0.200618
C18   C     C_R   0.871737 0.487031 0.499733 -0.095587
C19   C     C_2   0.531182 0.932302 0.389638 -0.187169
C20   C     C_2   0.551158 0.865584 0.500649 -0.157657
C21   C     C_2   0.535639 0.067014 0.390366 -0.094682
H1    H     H_    0.113502 0.653065 0.378281 0.155038
H2    H     H_    0.768285 0.285133 0.629911 0.171740
H3    H     H_    0.885700 0.652805 0.378359 0.154749
H4    H     H_    0.494322 0.889341 0.299214 0.159304
H5    H     H_    0.567928 0.114140 0.301192 0.163198
H6    H     H_    0.614825 0.867055 0.713857 0.067194
H7    H     H_    0.453534 0.082600 0.582755 0.137879
H8    H     H_    0.627524 0.643700 0.876730 0.154186
H9    H     H_    0.450037 0.432350 0.897111 0.163619
H10   H     H_    0.640407 0.631320 0.125756 0.159386
H11   H     H_    0.433730 0.448160 0.101693 0.163697
H12   H     H_    0.232939 0.284397 0.626806 0.143976
H13   H     H_    0.117386 0.120297 0.740218 0.139084
H14   H     H_    0.885382 0.121286 0.742942 0.176476
N1    N     N_2   0.501340 0.501330 0.852150 -0.189507
N2    N     N_2   0.501380 0.501360 0.147810 -0.191975
O1    O     O_R   0.499980 0.319060 0.613040 -0.625251
O2    O     O_R   0.500020 0.319100 0.386900 -0.614497
O3    O     O_R   0.316750 0.499980 0.613090 -0.611981
O4    O     O_R   0.316790 0.500020 0.386950 -0.609834
O5    O     O_R   0.499980 0.680900 0.613100 -0.623599
O6    O     O_R   0.500020 0.680940 0.386960 -0.606450
O7    O     O_R   0.683210 0.499980 0.613050 -0.618764
O8    O     O_R   0.683250 0.500020 0.386910 -0.607435
O9    O     O_2   0.703074 0.994610 0.606273 -0.585216
Zn1   Zn    Zn3+2 0.499970 0.499970 0.650990 0.939237
Zn2   Zn    Zn3+2 0.500030 0.500030 0.349010 0.946308

loop_
_geom_bond_atom_site_label_1
_geom_bond_atom_site_label_2
_ccdc_geom_bond_type
O3    Zn1   S    
C2    H7    S    
C21   H5    S    
C12   C15   A    
C10   H14   S    
C5    N2    D    
C14   H6    S    
C6    C20   S    
C9    C10   A    
C19   C20   D    
O7    Zn1   S    
H9    N1    S    
C8    C12   A    
C7    C18   S    
C2    C21   D    
C17   C18   A    
C4    O4    A    
C14   O9    D    
H11   N2    S    
N2    Zn2   S    
C11   C13   A    
O1    Zn1   S    
C16   C17   A    
C1    O1    A    
C4    C15   S    
C3    N1    D    
C11   H2    S    
O5    Zn1   S    
C19   C21   S    
O4    Zn2   S    
C6    O6    A    
C6    O5    A    
C9    H13   S    
C19   H4    S    
N1    Zn1   S    
C17   H3    S    
C10   C11   A    
C1    O2    A    
C15   C16   A    
C7    O8    A    
C12   C13   A    
C14   C20   S    
C13   C18   A    
C1    C2    S    
O6    Zn2   S    
O8    Zn2   S    
C3    H8    S    
C8    C9    A    
C16   H1    S    
C8    H12   S    
C3    C5    S    
C7    O7    A    
C4    O3    A    
O2    Zn2   S    
C5    H10   S    
