data_mof_unit_63761.cif
_audit_creation_date              2012-12-11T16:26:56-0500
_audit_creation_method            fapswitch 2.2
_symmetry_space_group_name_H-M    P1
_symmetry_Int_Tables_number       1
_space_group_crystal_system       triclinic
_cell_length_a                    8.249124
_cell_length_b                    17.43648
_cell_length_c                    18.881654
_cell_angle_alpha                 96.675316
_cell_angle_beta                  93.249865
_cell_angle_gamma                 96.162104
_cell_volume                      2675.27193788

loop_
_atom_site_label
_atom_site_type_symbol
_atom_type_description
_atom_site_fract_x
_atom_site_fract_y
_atom_site_fract_z
_atom_type_partial_charge
Ba1   Ba    Ba6+2 0.848080 0.535720 0.465810 1.534632
Ba2   Ba    Ba6+2 0.341750 0.464340 0.534200 1.915948
C1    C     C_3   0.676492 0.808274 0.273562 -0.048226
C2    C     C_3   0.643787 0.731024 0.303136 0.303841
C3    C     C_3   0.460729 0.338621 0.317828 0.274832
C4    C     C_3   0.430960 0.308758 0.238558 1.339678
C5    C     C_3   0.034336 0.261703 0.728429 0.920740
C6    C     C_3   0.105047 0.277801 0.805628 0.530135
C7    C     C_3   0.559124 0.258493 0.691957 0.296254
C8    C     C_3   0.531083 0.178165 0.715988 -0.220079
C9    C     C_2   0.300804 0.516118 0.294036 0.338053
C10   C     C_3   0.438570 0.509059 0.245053 -0.088882
C11   C     C_2   0.378193 0.514146 0.168259 -0.123420
C12   C     C_3   0.189464 0.740910 0.278398 0.865173
C13   C     C_2   0.216719 0.496278 0.146849 -0.040588
C14   C     C_2   0.100444 0.477030 0.203122 -0.098489
C15   C     C_1   0.154936 0.480896 0.271599 0.025401
C16   C     C_R   0.051666 0.490682 0.928375 0.542759
C17   C     C_R   0.157392 0.495031 0.069553 0.506434
C18   C     C_R   0.091072 0.520997 0.800002 0.598638
C19   C     C_R   0.034947 0.514165 0.726910 0.058044
C20   C     C_R   0.780398 0.444462 0.753873 0.059776
C21   C     C_R   0.836122 0.449251 0.826139 -0.132822
C22   C     C_R   0.993545 0.486669 0.850558 -0.043485
C23   C     C_3   0.133242 0.723281 0.199351 1.146905
C24   C     C_R   0.882543 0.473821 0.704699 -0.347568
C25   C     C_R   0.402131 0.719920 0.471927 -0.239833
C26   C     C_R   0.554134 0.744651 0.507752 0.065949
C27   C     C_R   0.615486 0.823701 0.514998 -0.096449
C28   C     C_R   0.523971 0.877777 0.486282 -0.018648
C29   C     C_R   0.369191 0.852085 0.450961 0.058133
C30   C     C_R   0.307690 0.773018 0.444808 0.061132
C31   C     C_R   0.587673 0.163192 0.488544 0.612767
C32   C     C_R   0.637843 0.243450 0.498317 -0.002317
C33   C     C_R   0.887843 0.221788 0.563061 0.039044
C34   C     C_3   0.214316 0.704404 0.623927 0.282547
C35   C     C_R   0.838754 0.141219 0.553466 -0.175634
C36   C     C_R   0.686161 0.111744 0.517499 -0.111726
C37   C     C_1   0.633201 0.028767 0.506679 0.129745
C38   C     C_1   0.584544 0.959910 0.497103 0.110765
C39   C     C_R   0.781925 0.272241 0.539527 -0.323816
C40   C     C_3   0.201686 0.790512 0.644819 0.397687
C41   C     C_3   0.987719 0.298381 0.380605 0.759904
C42   C     C_3   0.942007 0.211163 0.361227 1.282052
C43   C     C_3   0.716970 0.639440 0.683250 0.208157
C44   C     C_3   0.718342 0.665839 0.763116 0.473184
H1    H     H_    0.292021 0.813811 0.690115 0.069544
H2    H     H_    0.076892 0.798454 0.661456 0.063759
H3    H     H_    0.923086 0.183302 0.410444 -0.224032
H4    H     H_    0.625409 0.587627 0.669270 0.070796
H5    H     H_    0.813788 0.715900 0.778518 0.054523
H6    H     H_    0.342582 0.352658 0.338303 -1.651066
H7    H     H_    0.549373 0.392059 0.324296 -0.043759
H8    H     H_    0.372299 0.351632 0.209900 -0.261417
H9    H     H_    0.573327 0.816879 0.236107 0.172387
H10   H     H_    0.004698 0.284455 0.841887 -0.002156
H11   H     H_    0.171518 0.228866 0.819529 0.064766
H12   H     H_    0.488082 0.257548 0.640073 0.059085
H13   H     H_    0.572135 0.134472 0.675323 0.095134
H14   H     H_    0.399227 0.162556 0.722601 0.139948
H15   H     H_    0.601519 0.177230 0.767724 0.169436
H16   H     H_    0.467718 0.526683 0.129963 0.153005
H17   H     H_    0.972195 0.458939 0.187557 0.168878
H18   H     H_    0.755442 0.424913 0.863128 0.140149
H19   H     H_    0.295148 0.893356 0.430447 0.138420
H20   H     H_    0.920167 0.101918 0.572135 0.152885
H21   H     H_    0.352757 0.659622 0.469255 0.134687
H22   H     H_    0.819508 0.334215 0.547157 0.124921
H23   H     H_    0.128714 0.683315 0.576532 0.052314
N1    N     N_R   0.210011 0.515161 0.951544 -0.105109
N2    N     N_R   0.261473 0.517233 0.020251 -0.192236
N3    N     N_R   0.998915 0.470709 0.046532 -0.173791
N4    N     N_R   0.947566 0.468466 0.977733 -0.208649
O1    O     O_2   0.870670 0.457200 0.328780 -0.402068
O2    O     O_3   0.677127 0.701449 0.647586 -0.670187
O3    O     O_3   0.054203 0.753545 0.318554 -0.600257
O4    O     O_2   0.319030 0.542820 0.671260 -0.425371
O5    O     O_3   0.066510 0.541590 0.583850 -0.492165
O6    O     O_3   0.544220 0.404070 0.628440 -0.517444
O7    O     O_3   0.175613 0.666244 0.682915 -0.653974
O8    O     O_3   0.618730 0.408150 0.464380 -0.405779
O9    O     O_3   0.124970 0.364690 0.593190 -0.462179
O10   O     O_2   0.223441 0.228078 0.549192 -0.445746
O11   O     O_3   0.160917 0.248693 0.683253 -0.597825
O12   O     O_3   0.123190 0.458470 0.416160 -0.405525
O13   O     O_3   0.570980 0.591910 0.535630 -0.458616
O14   O     O_2   0.357950 0.313790 0.466200 -0.446377
O15   O     O_3   0.523663 0.280832 0.353439 -0.470000
O16   O     O_2   0.446404 0.458336 0.754690 -0.330418
O17   O     O_3   0.507082 0.313483 0.743601 -0.537657
O18   O     O_3   0.645490 0.595990 0.371560 -0.435750
O19   O     O_2   0.780188 0.555844 0.250234 -0.405303
O20   O     O_3   0.008229 0.333445 0.318505 -0.587990
O21   O     O_3   0.607242 0.671045 0.246193 -0.570830
O22   O     O_2   0.831760 0.686240 0.533840 -0.465944
O23   O     O_3   0.064740 0.635370 0.406810 -0.423693
O24   O     O_2   0.968220 0.772779 0.450155 -0.470577
P1    P     P_3+3 0.041170 0.434790 0.339740 1.179621
P2    P     P_3+3 0.658290 0.675180 0.554960 1.015479
P3    P     P_3+3 0.099733 0.736046 0.406527 1.071966
P4    P     P_3+3 0.148540 0.565270 0.660270 1.080249
P5    P     P_3+3 0.097318 0.264034 0.596548 1.060371
P6    P     P_3+3 0.618872 0.581095 0.278081 1.132324
P7    P     P_3+3 0.537625 0.310051 0.445604 1.234619
P8    P     P_3+3 0.569405 0.406209 0.721318 1.096139
H24   H     H_    0.754546 0.723104 0.336283 0.088010
F1    F     F_    0.231331 0.831907 0.588136 -0.736016
F2    F     F_    0.868256 0.329843 0.417518 -0.774095
H25   H     H_    0.100815 0.308033 0.415092 -0.043922
F3    F     F_    0.799739 0.196696 0.317074 -0.564640
F4    F     F_    0.066689 0.179134 0.326547 -0.581938
H26   H     H_    0.839782 0.624917 0.670023 -0.015679
H27   H     H_    0.789491 0.809291 0.244314 0.138321
F5    F     F_    0.750175 0.606564 0.802260 -0.717019
H28   H     H_    0.597393 0.684059 0.776134 0.095093
H29   H     H_    0.539018 0.733207 0.337306 0.012455
H30   H     H_    0.692434 0.856553 0.318149 0.078838
F6    F     F_    0.328625 0.239594 0.229420 -0.532162
F7    F     F_    0.577866 0.296783 0.209623 -0.587875
H31   H     H_    0.239827 0.712423 0.167743 -0.062253
H32   H     H_    0.971856 0.312785 0.716709 -0.245501
F8    F     F_    0.922451 0.195764 0.721631 -0.778071
F9    F     F_    0.211479 0.345590 0.815203 -0.688955
H33   H     H_    0.691202 0.271506 0.684541 -0.006741
H34   H     H_    0.251185 0.690658 0.293135 -0.183706
F10   F     F_    0.237274 0.562896 0.821728 -0.637012
F11   F     F_    0.320785 0.565604 0.355721 -0.718044
H35   H     H_    0.838466 0.469945 0.649188 0.072468
F12   F     F_    0.447278 0.135025 0.448543 -0.617627
F13   F     F_    0.299495 0.807500 0.288206 -0.743404
H36   H     H_    0.731782 0.843249 0.544624 0.109827
F14   F     F_    0.020058 0.657847 0.188135 -0.704171
F15   F     F_    0.063501 0.785549 0.176387 -0.602330
H37   H     H_    0.341051 0.696345 0.611216 -0.030896

loop_
_geom_bond_atom_site_label_1
_geom_bond_atom_site_label_2
_ccdc_geom_bond_type
C42   H3    S    
C16   N1    A    
C19   C24   A    
O10   P5    D    
O11   P5    S    
C34   C40   S    
C33   P5    S    
C6    H10   S    
C43   H26   S    
C5    C6    S    
O1    P1    D    
C27   H36   S    
C43   C44   S    
C13   C17   S    
C35   C36   A    
C12   H34   S    
C44   H28   S    
C16   C22   S    
Ba1   O1    S    
C3    H7    S    
C26   C27   A    
C33   C35   A    
C4    H8    S    
C7    H12   S    
C12   F13   S    
C28   C29   A    
O22   P2    D    
C17   N2    A    
Ba1   O8    S    
C13   C14   S    
C7    H33   S    
O6    P8    S    
Ba2   O12   S    
Ba1   Ba2   S    
O12   P1    S    
C1    H30   S    
O19   P6    D    
C3    O15   S    
C1    H9    S    
C11   H16   S    
C18   C22   A    
C14   C15   D    
C21   C22   A    
C3    H6    S    
N1    N2    A    
Ba2   O6    S    
C14   H17   S    
C23   F15   S    
C15   P1    S    
C40   H1    S    
C19   P4    S    
C5    O11   S    
Ba1   O18   S    
O5    P4    S    
Ba1   O5    S    
Ba1   P2    S    
C17   N3    A    
C32   C39   A    
C5    H32   S    
O15   P7    S    
C39   H22   S    
Ba1   O12   S    
C36   C37   S    
C44   F5    S    
C10   P6    S    
C1    H27   S    
C37   C38   T    
C40   H2    S    
Ba2   P4    S    
C2    H24   S    
C44   H5    S    
C32   P7    S    
C30   P3    S    
C12   O3    S    
C7    O17   S    
C9    F11   S    
C41   C42   S    
C18   F10   S    
C27   C28   A    
Ba2   O5    S    
C6    H11   S    
C29   C30   A    
Ba1   O22   S    
C35   H20   S    
O2    P2    S    
C31   C32   A    
O9    P5    S    
C28   C38   S    
Ba2   O14   S    
C24   H35   S    
C10   C11   S    
O13   P2    S    
C2    O21   S    
C26   P2    S    
C21   H18   S    
O21   P6    S    
C16   N4    A    
C11   C13   D    
C34   O7    S    
C40   F1    S    
Ba2   O9    S    
C8    H15   S    
C5    F8    S    
C1    C2    S    
C23   H31   S    
C4    F7    S    
O24   P3    D    
C34   H23   S    
C7    C8    S    
C31   F12   S    
Ba1   O13   S    
C29   H19   S    
C8    H14   S    
C9    C15   D    
C25   C30   A    
C2    H29   S    
O17   P8    S    
O18   P6    S    
N3    N4    A    
C34   H37   S    
Ba1   P1    S    
C9    C10   S    
C6    F9    S    
O3    P3    S    
C20   P8    S    
C31   C36   A    
O7    P4    S    
C43   O2    S    
C8    H13   S    
Ba2   O4    S    
C3    C4    S    
C43   H4    S    
Ba1   O23   S    
O23   P3    S    
C41   O20   S    
O4    P4    D    
Ba2   O13   S    
C41   F2    S    
C12   C23   S    
C33   C39   A    
C25   H21   S    
O14   P7    D    
C42   F4    S    
C18   C19   A    
C20   C24   A    
O16   P8    D    
C25   C26   A    
C20   C21   A    
Ba2   O8    S    
C41   H25   S    
C23   F14   S    
O20   P1    S    
C4    F6    S    
O8    P7    S    
C42   F3    S    
