data_mof_unit_41704.cif
_audit_creation_date              2012-12-10T18:07:33-0500
_audit_creation_method            fapswitch 2.2
_symmetry_space_group_name_H-M    P1
_symmetry_Int_Tables_number       1
_space_group_crystal_system       triclinic
_cell_length_a                    11.508958
_cell_length_b                    12.660972
_cell_length_c                    12.938189
_cell_angle_alpha                 83.418481
_cell_angle_beta                  91.465542
_cell_angle_gamma                 102.161174
_cell_volume                      1830.82751067

loop_
_atom_site_label
_atom_site_type_symbol
_atom_type_description
_atom_site_fract_x
_atom_site_fract_y
_atom_site_fract_z
_atom_type_partial_charge
C1    C     C_R   0.469627 0.441132 0.689399 0.918411
C2    C     C_R   0.489209 0.593096 0.198020 -0.071574
C3    C     C_R   0.382157 0.296986 0.829223 -0.258461
C4    C     C_R   0.340958 0.265270 0.930528 0.442537
C5    C     C_R   0.350398 0.342976 0.000407 -0.252984
C6    C     C_R   0.386142 0.454982 0.964726 0.026253
C7    C     C_R   0.395364 0.485546 0.857281 0.091101
C8    C     C_R   0.416881 0.538047 0.031030 0.088986
C9    C     C_R   0.429544 0.649452 0.990453 0.126383
C10   C     C_R   0.397034 0.672463 0.886381 -0.285110
C11   C     C_R   0.383293 0.591788 0.819575 -0.203137
C12   C     C_R   0.717794 0.500998 0.499627 0.933351
C13   C     C_R   0.447431 0.512414 0.133891 -0.267037
C14   C     C_R   0.503059 0.702560 0.158952 -0.279994
C15   C     C_R   0.415239 0.407874 0.792814 -0.200011
C16   C     C_R   0.328815 0.090137 0.342792 0.277324
C17   C     C_R   0.663596 0.811550 0.608381 0.055614
C18   C     C_R   0.715694 0.923411 0.602903 -0.096477
C19   C     C_R   0.654378 0.997310 0.552642 -0.184369
C20   C     C_R   0.539703 0.963607 0.513622 0.053548
C21   C     C_R   0.500674 0.852083 0.503337 0.191120
C22   C     C_R   0.471447 0.039614 0.471900 -0.132922
C23   C     C_R   0.508527 0.559628 0.307820 0.855629
C24   C     C_R   0.377711 0.007580 0.400728 -0.027104
C25   C     C_R   0.340134 0.895348 0.388856 -0.037054
C26   C     C_R   0.406174 0.821694 0.435462 -0.266638
C27   C     C_R   0.491059 0.146598 0.500736 0.438891
C28   C     C_R   0.363980 0.197060 0.365603 -0.143272
C29   C     C_R   0.282232 0.499424 0.499054 0.863775
C30   C     C_1   0.838806 0.502865 0.497783 -0.178855
C31   C     C_1   0.941003 0.502276 0.496462 -0.001538
C32   C     C_1   0.059338 0.500214 0.496205 0.000994
C33   C     C_1   0.161396 0.498776 0.497123 -0.175300
C34   C     C_R   0.474674 0.732968 0.055101 0.014631
H1    H     H_    0.538277 0.764558 0.209303 0.163945
H2    H     H_    0.700067 0.081518 0.540264 0.199511
H3    H     H_    0.383246 0.741294 0.414450 0.211942
H4    H     H_    0.389766 0.753494 0.854218 0.176339
H5    H     H_    0.443448 0.428704 0.164142 0.165850
H6    H     H_    0.385301 0.235107 0.778702 0.217930
H7    H     H_    0.324284 0.315179 0.080226 0.186496
H8    H     H_    0.364361 0.613821 0.738649 0.187420
H9    H     H_    0.328296 0.260912 0.321379 0.182543
N1    N     N_R   0.440320 0.222190 0.444690 -0.143777
N2    N     N_R   0.559060 0.776980 0.554780 -0.145897
O1    O     O_R   0.471500 0.366730 0.627160 -0.545678
O2    O     O_R   0.509620 0.544830 0.662520 -0.625521
O3    O     O_R   0.646490 0.410960 0.482310 -0.562510
O4    O     O_R   0.684610 0.589050 0.517670 -0.613811
O5    O     O_R   0.490380 0.455170 0.337480 -0.622463
O6    O     O_R   0.528500 0.633270 0.372840 -0.633154
O7    O     O_R   0.315390 0.410950 0.482330 -0.608816
O8    O     O_R   0.353510 0.589040 0.517690 -0.650142
Zn1   Zn    Zn3+2 0.474550 0.381080 0.476390 0.988542
Zn2   Zn    Zn3+2 0.525450 0.618920 0.523610 0.918322
C35   C     C_R   0.222637 0.847550 0.344848 0.196214
C36   C     C_R   0.213490 0.774574 0.269346 -0.139377
C37   C     C_R   0.102120 0.725586 0.232654 -0.104337
C38   C     C_R   0.998865 0.748022 0.271572 -0.093224
C39   C     C_R   0.006747 0.818895 0.347830 -0.119586
C40   C     C_R   0.117882 0.867402 0.385425 -0.080903
H10   H     H_    0.292228 0.754828 0.239482 0.118908
H11   H     H_    0.095887 0.669804 0.174324 0.134687
H12   H     H_    0.912707 0.710045 0.243050 0.124792
H13   H     H_    0.926656 0.836071 0.377909 0.122824
H14   H     H_    0.122425 0.920684 0.445866 0.123886
Cl1   Cl    Cl    0.237013 0.070220 0.232609 -0.598293
Cl2   Cl    Cl    0.561087 0.180413 0.619141 -0.649582
C41   C     C_R   0.730142 0.734054 0.664915 0.184516
C42   C     C_R   0.843785 0.728239 0.630896 -0.110934
C43   C     C_R   0.912405 0.665046 0.690661 -0.139379
C44   C     C_R   0.868986 0.607813 0.785324 -0.111639
C45   C     C_R   0.758030 0.615611 0.821244 -0.148709
C46   C     C_R   0.690274 0.680025 0.762121 -0.138998
H15   H     H_    0.879100 0.772965 0.558276 0.117265
H16   H     H_    0.999322 0.660694 0.663629 0.142826
H17   H     H_    0.921959 0.558647 0.831437 0.139866
H18   H     H_    0.725182 0.573124 0.895592 0.141230
H19   H     H_    0.607406 0.688953 0.792475 0.142021
C47   C     C_R   0.836966 0.965754 0.642876 0.126081
C48   C     C_R   0.863979 0.949135 0.749277 -0.151419
C49   C     C_R   0.978888 0.988141 0.785313 -0.093745
C50   C     C_R   0.067617 0.044095 0.715601 -0.081975
C51   C     C_R   0.041552 0.061259 0.609712 -0.148973
C52   C     C_R   0.926716 0.022555 0.573400 -0.168394
H20   H     H_    0.796568 0.905529 0.804117 0.123667
H21   H     H_    0.999220 0.974794 0.867310 0.174599
H22   H     H_    0.156563 0.074065 0.743586 0.171258
H23   H     H_    0.110421 0.104284 0.555700 0.148572
H24   H     H_    0.908041 0.035601 0.490980 0.139274
C53   C     C_R   0.503341 0.851549 0.016927 0.098890
C54   C     C_R   0.570519 0.890299 0.925799 -0.186877
C55   C     C_R   0.603688 0.001851 0.894224 -0.095996
C56   C     C_R   0.574698 0.076397 0.955436 -0.079489
C57   C     C_R   0.511874 0.039433 0.047959 -0.044899
C58   C     C_R   0.474803 0.927969 0.077834 -0.103271
H25   H     H_    0.599052 0.834563 0.879896 0.120559
H26   H     H_    0.653601 0.030620 0.823113 0.173182
H27   H     H_    0.601622 0.162772 0.931604 0.146367
H28   H     H_    0.490968 0.097252 0.096320 0.174418
H29   H     H_    0.425570 0.901754 0.149496 0.144798
Cl3   Cl    Cl    0.277222 0.128424 0.968731 -0.604479

loop_
_geom_bond_atom_site_label_1
_geom_bond_atom_site_label_2
_ccdc_geom_bond_type
C16   C28   A    
C21   C26   A    
C17   C41   S    
C55   C56   A    
C45   C46   A    
C57   C58   A    
C25   C35   S    
C12   O3    A    
C12   O4    A    
C36   H10   S    
C7    C11   A    
C38   H12   S    
O5    Zn1   S    
C17   N2    A    
C19   H2    S    
C30   C31   T    
C47   C48   A    
C1    O1    A    
C49   H21   S    
C29   C33   S    
C35   C36   A    
C11   H8    S    
C18   C19   A    
C2    C13   A    
C34   C53   S    
C27   Cl2   S    
C44   H17   S    
C53   C58   A    
C27   N1    A    
C31   C32   S    
C8    C9    A    
C4    Cl3   S    
C45   H18   S    
C42   C43   A    
C1    C15   S    
C9    C10   A    
C48   H20   S    
C7    C15   A    
C50   H22   S    
C38   C39   A    
C16   C24   A    
C58   H29   S    
C41   C42   A    
C40   H14   S    
O7    Zn1   S    
C54   H25   S    
C48   C49   A    
C21   N2    A    
O8    Zn2   S    
C24   C25   A    
C53   C54   A    
C57   H28   S    
C1    O2    A    
C23   O5    A    
C6    C8    A    
C37   C38   A    
O4    Zn2   S    
C28   N1    A    
C39   C40   A    
O3    Zn1   S    
C14   C34   A    
C47   C52   A    
C23   O6    A    
C50   C51   A    
O1    Zn1   S    
C17   C18   A    
C41   C46   A    
C16   Cl1   S    
C51   C52   A    
C20   C22   A    
C3    H6    S    
C46   H19   S    
C9    C34   A    
C22   C24   A    
C51   H23   S    
C3    C4    A    
C43   H16   S    
C14   H1    S    
C3    C15   A    
O2    Zn2   S    
C37   H11   S    
C5    H7    S    
C12   C30   S    
C44   C45   A    
C39   H13   S    
C52   H24   S    
C26   H3    S    
C6    C7    A    
C28   H9    S    
C22   C27   A    
C10   H4    S    
C32   C33   T    
C19   C20   A    
C25   C26   A    
C43   C44   A    
C36   C37   A    
C5    C6    A    
C29   O8    A    
C56   H27   S    
C54   C55   A    
O6    Zn2   S    
C56   C57   A    
C2    C14   A    
C13   H5    S    
C10   C11   A    
C8    C13   A    
N1    Zn1   S    
C4    C5    A    
C20   C21   A    
N2    Zn2   S    
C18   C47   S    
C49   C50   A    
C2    C23   S    
C35   C40   A    
C42   H15   S    
C55   H26   S    
C29   O7    A    
