data_mof_unit_30345.cif
_audit_creation_date              2012-12-10T20:37:28-0500
_audit_creation_method            fapswitch 2.2
_symmetry_space_group_name_H-M    P1
_symmetry_Int_Tables_number       1
_space_group_crystal_system       triclinic
_cell_length_a                    15.711825
_cell_length_b                    10.661132
_cell_length_c                    9.910687
_cell_angle_alpha                 90.198951
_cell_angle_beta                  88.969696
_cell_angle_gamma                 89.073024
_cell_volume                      1659.60057022

loop_
_atom_site_label
_atom_site_type_symbol
_atom_type_description
_atom_site_fract_x
_atom_site_fract_y
_atom_site_fract_z
_atom_type_partial_charge
C1    C     C_R   0.493838 0.260585 0.499987 0.859533
C2    C     C_3   0.083089 0.495283 0.504959 -0.091198
C3    C     C_3   0.971930 0.602828 0.452047 0.611850
C4    C     C_3   0.916843 0.494453 0.500174 -0.087308
C5    C     C_3   0.030313 0.508269 0.377590 0.607782
C6    C     C_3   0.974481 0.398251 0.424195 -0.372680
C7    C     C_1   0.173930 0.497182 0.504731 0.050253
C8    C     C_1   0.826050 0.496150 0.497076 0.034472
C9    C     C_R   0.495867 0.064826 0.620415 0.007949
C10   C     C_R   0.476721 0.129632 0.502844 -0.208259
C11   C     C_R   0.439825 0.064169 0.393980 0.167104
C12   C     C_R   0.338048 0.500069 0.501065 0.884150
C13   C     C_R   0.445851 0.933224 0.394175 -0.226116
C14   C     C_R   0.483374 0.871579 0.503278 -0.150344
C15   C     C_R   0.498350 0.937449 0.620947 0.044623
C16   C     C_3   0.570464 0.931169 0.717968 -0.181702
C17   C     C_3   0.568236 0.074580 0.715925 0.515128
C18   C     C_R   0.439223 0.564279 0.073280 0.048107
C19   C     C_R   0.563653 0.438880 0.067601 0.033004
C20   C     C_R   0.563059 0.440296 0.924044 0.674265
C21   C     C_R   0.439105 0.563847 0.931046 -0.005846
C22   C     C_3   0.345671 0.542056 0.928755 0.490989
C23   C     C_R   0.497582 0.739965 0.500385 0.899658
C24   C     C_3   0.345652 0.543214 0.081745 -0.468489
C25   C     C_R   0.661931 0.499665 0.498948 0.898596
C26   C     C_3   0.969467 0.481430 0.628884 0.157565
C27   C     C_3   0.028109 0.385732 0.553513 0.161040
C28   C     C_1   0.249194 0.498694 0.503502 -0.146552
C29   C     C_1   0.750786 0.497886 0.496812 -0.163168
C30   C     C_3   0.025409 0.591679 0.580636 -0.350020
H1    H     H_    0.629897 0.891689 0.670690 0.101988
H2    H     H_    0.625946 0.117166 0.669844 0.063761
H3    H     H_    0.328548 0.450491 0.883477 0.084439
H4    H     H_    0.310637 0.624789 0.127336 0.239868
H5    H     H_    0.329779 0.450778 0.126499 0.175727
H6    H     H_    0.951941 0.320644 0.359694 0.184720
H7    H     H_    0.047904 0.670682 0.643189 0.196812
H8    H     H_    0.423405 0.880413 0.308499 0.172044
N1    N     N_R   0.499430 0.499140 0.142800 -0.134875
N2    N     N_R   0.499430 0.499180 0.857150 -0.199706
O1    O     O_R   0.500010 0.316790 0.614690 -0.556555
O2    O     O_R   0.500000 0.316760 0.385350 -0.643012
O3    O     O_R   0.376780 0.500010 0.614650 -0.598831
O4    O     O_R   0.376770 0.499970 0.385310 -0.620616
O5    O     O_R   0.500000 0.683240 0.614650 -0.610188
O6    O     O_R   0.499990 0.683210 0.385310 -0.614718
O7    O     O_R   0.623230 0.500030 0.614690 -0.556869
O8    O     O_R   0.623220 0.499990 0.385350 -0.626582
Zn1   Zn    Zn3+2 0.500010 0.500020 0.653130 1.024261
Zn2   Zn    Zn3+2 0.499990 0.499980 0.346870 0.934507
C31   C     C_3   0.066490 0.261945 0.603686 -0.379072
C32   C     C_3   0.998211 0.166874 0.639064 -0.803544
H9    H     H_    0.958800 0.200017 0.726335 0.256239
H10   H     H_    0.956676 0.150648 0.551421 0.264745
H11   H     H_    0.029088 0.076373 0.666689 0.258114
H12   H     H_    0.108677 0.221870 0.522771 0.210729
H13   H     H_    0.106121 0.279778 0.693060 0.206527
F1    F     F_    0.542550 0.130052 0.836831 -0.646896
C33   C     C_3   0.634383 0.363483 0.131347 -0.324987
C34   C     C_3   0.718564 0.433587 0.125935 -0.784383
H14   H     H_    0.710578 0.529712 0.168189 0.271221
H15   H     H_    0.766939 0.381829 0.185321 0.238471
H16   H     H_    0.742499 0.440863 0.020191 0.273334
H17   H     H_    0.618513 0.335768 0.235070 0.241073
H18   H     H_    0.643256 0.272868 0.076582 0.228980
F2    F     F_    0.624365 0.377490 0.851725 -0.638052
F3    F     F_    0.301782 0.643783 0.876283 -0.646393
C35   C     C_3   0.928405 0.473168 0.769842 -0.408446
C36   C     C_3   0.994537 0.467268 0.880515 -0.735218
H19   H     H_    0.032825 0.379264 0.872606 0.250980
H20   H     H_    0.037430 0.548869 0.873753 0.278016
H21   H     H_    0.961760 0.469257 0.980734 0.271287
H22   H     H_    0.887142 0.557579 0.786698 0.218703
H23   H     H_    0.887344 0.389596 0.775709 0.217198
F4    F     F_    0.063664 0.523810 0.248774 -0.644101
F5    F     F_    0.940984 0.713549 0.398035 -0.637066
C37   C     C_3   0.393866 0.127302 0.278972 -0.418321
C38   C     C_3   0.449802 0.130770 0.151783 -0.745907
H24   H     H_    0.413723 0.173587 0.067838 0.251744
H25   H     H_    0.507202 0.186650 0.169144 0.266320
H26   H     H_    0.470593 0.034545 0.122640 0.256021
H27   H     H_    0.335376 0.074232 0.256754 0.204130
H28   H     H_    0.371429 0.223412 0.306383 0.221739
C39   C     C_3   0.548621 0.869685 0.855490 -0.287268
C40   C     C_3   0.454173 0.876482 0.897333 -0.713320
H29   H     H_    0.429670 0.974570 0.897148 0.280082
H30   H     H_    0.415852 0.820241 0.827078 0.296413
H31   H     H_    0.445787 0.837569 0.000367 0.220492
H32   H     H_    0.568262 0.769179 0.850343 0.198412
H33   H     H_    0.587088 0.913519 0.935409 0.221446

loop_
_geom_bond_atom_site_label_1
_geom_bond_atom_site_label_2
_ccdc_geom_bond_type
C23   O5    A    
C3    C30   S    
C18   C21   A    
C2    C7    S    
C4    C8    S    
O7    Zn1   S    
C37   C38   S    
C16   H1    S    
C26   C27   S    
C12   C28   S    
C34   H16   S    
C18   C24   S    
C8    C29   T    
C20   F2    S    
C12   O3    A    
C5    C6    S    
C20   N2    A    
C38   H25   S    
C37   H28   S    
C35   H23   S    
N2    Zn1   S    
C16   C39   S    
C34   H15   S    
C31   H12   S    
C36   H20   S    
O4    Zn2   S    
C11   C37   S    
C35   C36   S    
C19   C20   A    
C27   C31   S    
C16   C17   S    
C2    C27   S    
C31   H13   S    
C9    C10   A    
C25   O7    A    
C32   H11   S    
C17   F1    S    
O8    Zn2   S    
C33   C34   S    
C23   O6    A    
C13   C14   A    
C39   H33   S    
O1    Zn1   S    
C32   H10   S    
C40   H30   S    
C25   C29   S    
C24   H5    S    
C31   C32   S    
C39   C40   S    
C4    C6    S    
C38   H24   S    
O3    Zn1   S    
C19   C33   S    
C35   H22   S    
C40   H29   S    
C24   H4    S    
C7    C28   T    
C30   H7    S    
C34   H14   S    
C14   C23   S    
C5    F4    S    
C36   H21   S    
C18   N1    A    
C6    C27   S    
O5    Zn1   S    
C33   H17   S    
C3    F5    S    
C25   O8    A    
C13   H8    S    
C19   N1    A    
O2    Zn2   S    
C9    C17   S    
C26   C30   S    
C22   C24   S    
C2    C5    S    
C39   H32   S    
C3    C4    S    
C32   H9    S    
C40   H31   S    
C1    O1    A    
C22   H3    S    
C1    C10   S    
C3    C5    S    
C4    C26   S    
O6    Zn2   S    
C2    C30   S    
C26   C35   S    
C9    C15   A    
C12   O4    A    
C33   H18   S    
C11   C13   A    
C38   H26   S    
C21   N2    A    
C37   H27   S    
C6    H6    S    
C36   H19   S    
C22   F3    S    
C10   C11   A    
C1    O2    A    
N1    Zn2   S    
C17   H2    S    
C14   C15   A    
C21   C22   S    
C15   C16   S    
