data_mof_unit_46369.cif
_audit_creation_date              2012-12-10T18:07:30-0500
_audit_creation_method            fapswitch 2.2
_symmetry_space_group_name_H-M    P1
_symmetry_Int_Tables_number       1
_space_group_crystal_system       triclinic
_cell_length_a                    11.530944
_cell_length_b                    12.739647
_cell_length_c                    13.039184
_cell_angle_alpha                 81.891858
_cell_angle_beta                  91.973129
_cell_angle_gamma                 102.669126
_cell_volume                      1850.12867449

loop_
_atom_site_label
_atom_site_type_symbol
_atom_type_description
_atom_site_fract_x
_atom_site_fract_y
_atom_site_fract_z
_atom_type_partial_charge
C1    C     C_R   0.489133 0.438822 0.691301 0.861068
C2    C     C_R   0.699179 0.611362 0.914387 -0.258687
C3    C     C_R   0.656694 0.531831 0.850434 -0.135388
C4    C     C_R   0.717663 0.501490 0.499672 0.910844
C5    C     C_R   0.486362 0.527604 0.131196 -0.218531
C6    C     C_R   0.636905 0.682051 0.168635 -0.173456
C7    C     C_R   0.479775 0.397742 0.801366 -0.136137
C8    C     C_R   0.326388 0.090034 0.351448 -0.234852
C9    C     C_R   0.636182 0.796288 0.634090 -0.052918
C10   C     C_R   0.659348 0.895855 0.670205 -0.289766
C11   C     C_R   0.604606 0.977568 0.623798 0.690639
C12   C     C_R   0.540360 0.597084 0.199983 -0.041366
C13   C     C_R   0.527731 0.960729 0.537100 -0.168175
C14   C     C_R   0.503326 0.855415 0.505381 -0.069331
C15   C     C_R   0.471878 0.041862 0.482042 -0.064408
C16   C     C_R   0.514192 0.560897 0.308753 0.891299
C17   C     C_R   0.385413 0.013637 0.404316 -0.189709
C18   C     C_R   0.360093 0.910125 0.377765 0.560435
C19   C     C_R   0.419718 0.833781 0.424599 0.555518
C20   C     C_R   0.499532 0.151313 0.497778 -0.035394
C21   C     C_R   0.355025 0.194895 0.373696 0.747639
C22   C     C_R   0.282351 0.498714 0.499689 0.929010
C23   C     C_R   0.390166 0.306321 0.833801 -0.207618
C24   C     C_1   0.838983 0.503633 0.499722 -0.068443
C25   C     C_1   0.940996 0.502063 0.499452 0.055394
C26   C     C_1   0.059082 0.498564 0.499030 0.043749
C27   C     C_1   0.161069 0.496827 0.498990 -0.117693
C28   C     C_R   0.685355 0.690657 0.070533 -0.167319
C29   C     C_2   0.266746 0.180445 0.973714 0.948365
C30   C     C_2   0.737943 0.518609 0.768688 0.928836
C31   C     C_R   0.358209 0.279546 0.938019 0.002776
C32   C     C_R   0.409438 0.351231 0.007243 -0.226741
C33   C     C_R   0.497714 0.445628 0.974180 0.079587
C34   C     C_R   0.546063 0.457959 0.874384 0.001844
C35   C     C_R   0.540424 0.527378 0.037277 0.088671
C36   C     C_R   0.640448 0.611544 0.005970 0.147677
F1    F     F_    0.279055 0.882749 0.302321 -0.618442
F2    F     F_    0.622659 0.068346 0.670307 -0.676102
F3    F     F_    0.391190 0.739969 0.386164 -0.602913
F4    F     F_    0.298766 0.270464 0.324024 -0.645554
H1    H     H_    0.679822 0.736462 0.222104 0.164785
H2    H     H_    0.381497 0.330156 0.086877 0.202305
H3    H     H_    0.169955 0.087014 0.092536 0.363567
H4    H     H_    0.695554 0.353787 0.793035 0.323545
H5    H     H_    0.259296 0.069282 0.293092 0.237880
H6    H     H_    0.568781 0.184385 0.548620 0.234542
H7    H     H_    0.676617 0.732363 0.671842 0.197330
H8    H     H_    0.717673 0.908819 0.736246 0.190788
H9    H     H_    0.781523 0.670250 0.895376 0.181591
H10   H     H_    0.762465 0.754684 0.047941 0.157135
H11   H     H_    0.406141 0.469631 0.156541 0.181218
H12   H     H_    0.342369 0.258276 0.777188 0.198896
N1    N     N_R   0.440320 0.222190 0.444690 -0.179813
N2    N     N_R   0.559060 0.776980 0.554780 -0.095146
O1    O     O_R   0.471500 0.366730 0.627160 -0.603543
O2    O     O_R   0.232481 0.156840 0.077784 -0.789549
O3    O     O_2   0.806717 0.598026 0.725253 -0.598028
O4    O     O_R   0.742851 0.416156 0.744260 -0.773574
O5    O     O_R   0.509620 0.544830 0.662520 -0.620355
O6    O     O_R   0.646490 0.410960 0.482310 -0.616872
O7    O     O_R   0.684610 0.589050 0.517670 -0.603893
O8    O     O_R   0.490380 0.455170 0.337480 -0.585777
O9    O     O_R   0.528500 0.633270 0.372840 -0.544834
O10   O     O_R   0.315390 0.410950 0.482330 -0.571745
O11   O     O_R   0.353510 0.589040 0.517690 -0.542822
O12   O     O_2   0.221327 0.118807 0.912468 -0.604175
Zn1   Zn    Zn3+2 0.474550 0.381080 0.476390 1.025708
Zn2   Zn    Zn3+2 0.525450 0.618920 0.523610 1.026428

loop_
_geom_bond_atom_site_label_1
_geom_bond_atom_site_label_2
_ccdc_geom_bond_type
C17   C18   A    
C3    C30   S    
O1    Zn1   S    
C23   C31   A    
O10   Zn1   S    
C22   O11   A    
C33   C35   A    
C29   O2    S    
O5    Zn2   S    
C11   F2    S    
C9    C10   A    
C8    C17   A    
O11   Zn2   S    
C32   C33   A    
C4    O6    A    
C13   C15   A    
C33   C34   A    
C23   H12   S    
C29   C31   S    
C13   C14   A    
C2    H9    S    
C21   N1    A    
C11   C13   A    
O7    Zn2   S    
C26   C27   T    
C21   F4    S    
C16   O8    A    
O8    Zn1   S    
C4    C24   S    
C7    C23   A    
C5    C35   A    
C14   C19   A    
C16   O9    A    
C18   F1    S    
C9    H7    S    
C10   H8    S    
C2    C3    A    
C22   C27   S    
C1    O5    A    
C6    C12   A    
C15   C20   A    
N1    Zn1   S    
C7    C34   A    
C20   H6    S    
C1    O1    A    
C35   C36   A    
N2    Zn2   S    
C10   C11   A    
C22   O10   A    
C29   O12   D    
C30   O3    D    
C30   O4    S    
H3    O2    S    
C24   C25   T    
C28   C36   A    
C5    C12   A    
C19   F3    S    
C18   C19   A    
C2    C36   A    
C15   C17   A    
C32   H2    S    
O9    Zn2   S    
C5    H11   S    
C9    N2    A    
C12   C16   S    
C3    C34   A    
C14   N2    A    
C25   C26   S    
C1    C7    S    
C28   H10   S    
C4    O7    A    
C31   C32   A    
C6    C28   A    
C8    H5    S    
O6    Zn1   S    
H4    O4    S    
C20   N1    A    
C6    H1    S    
C8    C21   A    
