data_mof_unit_42852.cif
_audit_creation_date              2012-12-10T21:42:33-0500
_audit_creation_method            fapswitch 2.2
_symmetry_space_group_name_H-M    P1
_symmetry_Int_Tables_number       1
_space_group_crystal_system       triclinic
_cell_length_a                    10.748568
_cell_length_b                    16.132473
_cell_length_c                    16.878018
_cell_angle_alpha                 87.289667
_cell_angle_beta                  89.414883
_cell_angle_gamma                 93.391341
_cell_volume                      2918.02315556

loop_
_atom_site_label
_atom_site_type_symbol
_atom_type_description
_atom_site_fract_x
_atom_site_fract_y
_atom_site_fract_z
_atom_type_partial_charge
C1    C     C_R   0.497003 0.488514 0.652676 0.945784
C2    C     C_R   0.501540 0.511465 0.347448 0.932872
C3    C     C_R   0.127302 0.497582 0.501627 -0.099001
C4    C     C_R   0.872721 0.502280 0.497750 -0.104060
C5    C     C_R   0.053080 0.426117 0.527241 0.071946
C6    C     C_R   0.946961 0.573827 0.472497 0.087659
C7    C     C_R   0.487541 0.479944 0.738179 -0.227742
C8    C     C_R   0.505031 0.519799 0.262073 -0.222388
C9    C     C_R   0.424652 0.538220 0.780244 0.468647
C10   C     C_R   0.571051 0.464446 0.218246 0.485269
C11   C     C_R   0.416836 0.528337 0.862441 -0.355075
C12   C     C_R   0.562900 0.468536 0.136438 -0.320664
C13   C     C_R   0.479442 0.465112 0.902738 0.162242
C14   C     C_R   0.490605 0.527893 0.097930 0.151508
C15   C     C_R   0.537704 0.405460 0.860444 0.546769
C16   C     C_R   0.432779 0.586926 0.141349 0.545504
C17   C     C_R   0.542019 0.413365 0.777888 -0.409566
C18   C     C_R   0.438596 0.581797 0.223858 -0.442599
C19   C     C_R   0.462104 0.762364 0.450636 -0.130796
C20   C     C_R   0.532203 0.236990 0.551141 -0.122344
C21   C     C_R   0.462850 0.850037 0.451744 0.447284
C22   C     C_R   0.531550 0.149545 0.549549 0.450522
C23   C     C_R   0.740171 0.500935 0.498146 0.872230
C24   C     C_R   0.259834 0.499066 0.501602 0.866215
C25   C     C_R   0.515868 0.890109 0.517871 0.221134
C26   C     C_R   0.484542 0.109826 0.481587 0.206083
C27   C     C_R   0.568815 0.840704 0.577682 -0.407517
C28   C     C_R   0.437046 0.159750 0.420082 -0.381733
C29   C     C_R   0.568654 0.754413 0.572367 -0.013519
C30   C     C_R   0.437286 0.246078 0.425525 0.007172
C31   C     C_R   0.830340 0.744515 0.334258 0.492736
C32   C     C_R   0.144603 0.254856 0.673571 0.523832
C33   C     C_R   0.880089 0.668982 0.360816 0.421578
C34   C     C_R   0.105467 0.331622 0.642938 0.440180
C35   C     C_R   0.897271 0.652874 0.442642 -0.022430
C36   C     C_R   0.102511 0.348125 0.560205 -0.052118
C37   C     C_R   0.876421 0.714807 0.496016 -0.189043
C38   C     C_R   0.135788 0.287134 0.508748 -0.168802
C39   C     C_R   0.834729 0.791175 0.468743 -0.215927
C40   C     C_R   0.173067 0.210722 0.539089 -0.209955
C41   C     C_R   0.810866 0.805768 0.388379 -0.267031
C42   C     C_R   0.177363 0.194350 0.620860 -0.307349
C43   C     C_R   0.074112 0.570441 0.475004 -0.229016
C44   C     C_R   0.925898 0.429580 0.524888 -0.192064
H1    H     H_    0.592137 0.369488 0.745033 0.197950
H2    H     H_    0.387079 0.623884 0.258035 0.184042
H3    H     H_    0.610634 0.717259 0.618680 0.147119
H4    H     H_    0.400168 0.283589 0.377579 0.163152
H5    H     H_    0.893166 0.703945 0.558724 0.162735
H6    H     H_    0.131090 0.298494 0.445108 0.158180
H7    H     H_    0.820206 0.839044 0.510084 0.182728
H8    H     H_    0.196405 0.163359 0.499103 0.180483
H9    H     H_    0.131755 0.625169 0.455223 0.159906
H10   H     H_    0.868252 0.375275 0.545866 0.175676
N1    N     N_2   0.490036 0.461948 0.985816 -0.131789
N2    N     N_2   0.474991 0.529981 0.015300 -0.138885
N3    N     N_R   0.515300 0.716920 0.509720 -0.100181
N4    N     N_R   0.484700 0.283080 0.490280 -0.109433
N5    N     N_2   0.518407 0.978094 0.528381 -0.102078
N6    N     N_2   0.482332 0.021861 0.471016 -0.096559
O1    O     O_R   0.494530 0.422540 0.612660 -0.647038
O2    O     O_R   0.505470 0.577460 0.387340 -0.647247
O3    O     O_R   0.504350 0.561840 0.618900 -0.579026
O4    O     O_R   0.495650 0.438160 0.381100 -0.578608
O5    O     O_R   0.678330 0.430350 0.496870 -0.618714
O6    O     O_R   0.321670 0.569650 0.503130 -0.612549
O7    O     O_R   0.688150 0.569660 0.503110 -0.618308
O8    O     O_R   0.311850 0.430340 0.496890 -0.625113
Zn1   Zn    Zn3+2 0.493440 0.406980 0.495830 0.959549
Zn2   Zn    Zn3+2 0.506560 0.593020 0.504170 0.958717
H11   H     H_    0.777085 0.864854 0.367987 0.171536
H12   H     H_    0.202416 0.133639 0.642927 0.162180
H13   H     H_    0.572848 0.268359 0.600764 0.152223
H14   H     H_    0.416459 0.730005 0.403307 0.139656
O9    O     O_3   0.586875 0.105041 0.610275 -0.584881
C45   C     C_3   0.509232 0.102624 0.678300 -0.328422
H15   H     H_    0.549704 0.062030 0.724958 0.200002
H16   H     H_    0.414181 0.075444 0.665910 0.154675
H17   H     H_    0.504032 0.165314 0.702355 0.141046
O10   O     O_3   0.401655 0.895033 0.393680 -0.593113
C46   C     C_3   0.455219 0.883992 0.318476 -0.319242
H18   H     H_    0.558975 0.890274 0.319286 0.160481
H19   H     H_    0.423946 0.933187 0.276402 0.202064
H20   H     H_    0.422603 0.823241 0.295428 0.143821
H21   H     H_    0.610608 0.869268 0.628579 0.184656
H22   H     H_    0.399743 0.131604 0.367677 0.189727
O11   O     O_3   0.808505 0.761679 0.254870 -0.611306
C47   C     C_3   0.696442 0.718627 0.234413 -0.288829
H23   H     H_    0.617281 0.733734 0.273245 0.141910
H24   H     H_    0.706421 0.650407 0.236104 0.201032
H25   H     H_    0.673709 0.738130 0.172689 0.179980
O12   O     O_3   0.137720 0.237767 0.754767 -0.560887
C48   C     C_3   0.255089 0.216403 0.783272 -0.360018
H26   H     H_    0.332226 0.259773 0.758935 0.138382
H27   H     H_    0.272702 0.151171 0.770668 0.161237
H28   H     H_    0.254417 0.220704 0.848630 0.202619
O13   O     O_3   0.906412 0.609274 0.307949 -0.656116
C49   C     C_3   0.020355 0.632958 0.268677 -0.267995
H29   H     H_    0.097212 0.644334 0.311229 0.141911
H30   H     H_    0.011767 0.688678 0.228270 0.213749
H31   H     H_    0.046318 0.581378 0.231809 0.196242
O14   O     O_3   0.059414 0.387572 0.693691 -0.592734
C50   C     C_3   0.160070 0.437844 0.720992 -0.185640
H32   H     H_    0.211421 0.472396 0.671004 0.146793
H33   H     H_    0.224724 0.400637 0.757026 0.162001
H34   H     H_    0.122947 0.484472 0.759763 0.208617
O15   O     O_3   0.635473 0.401712 0.254615 -0.597991
C51   C     C_3   0.755431 0.434364 0.273528 -0.211792
H35   H     H_    0.809949 0.382870 0.297696 0.186387
H36   H     H_    0.750498 0.480355 0.320227 0.176972
H37   H     H_    0.806304 0.462616 0.220114 0.169818
O16   O     O_3   0.361429 0.599399 0.739897 -0.606039
C52   C     C_3   0.410418 0.678717 0.759850 -0.257785
H38   H     H_    0.377817 0.725487 0.715705 0.191557
H39   H     H_    0.514281 0.683601 0.757871 0.147034
H40   H     H_    0.375498 0.694874 0.818982 0.158670
H41   H     H_    0.611713 0.424324 0.103256 0.211978
H42   H     H_    0.363972 0.570938 0.894944 0.201347
O17   O     O_3   0.603895 0.346034 0.900529 -0.575372
C53   C     C_3   0.538730 0.268047 0.896066 -0.301074
H43   H     H_    0.535994 0.247475 0.834117 0.144558
H44   H     H_    0.442796 0.268942 0.921384 0.149534
H45   H     H_    0.588548 0.221424 0.931939 0.205499
O18   O     O_3   0.356982 0.642153 0.103323 -0.590471
C54   C     C_3   0.416501 0.722392 0.102317 -0.339305
H46   H     H_    0.508174 0.724284 0.070764 0.159267
H47   H     H_    0.427761 0.744816 0.163290 0.146660
H48   H     H_    0.357312 0.765947 0.069401 0.202058

loop_
_geom_bond_atom_site_label_1
_geom_bond_atom_site_label_2
_ccdc_geom_bond_type
C14   N2    S    
N1    N2    D    
C48   H26   S    
C27   C29   A    
C39   H7    S    
C45   H17   S    
O11   C47   S    
O13   C49   S    
C10   O15   S    
C39   C41   A    
O6    Zn2   S    
C6    C35   S    
C3    C43   A    
C34   O14   S    
C29   H3    S    
C30   H4    S    
C35   C37   A    
C45   H16   S    
C5    C36   S    
C1    O3    A    
C51   H35   S    
O2    Zn2   S    
C15   C17   A    
C23   O7    A    
C27   H21   S    
C43   H9    S    
C53   H44   S    
O8    Zn1   S    
C7    C17   A    
C54   H48   S    
O15   C51   S    
C47   H25   S    
N3    Zn2   S    
C34   C36   A    
C53   H45   S    
C24   O6    A    
C41   H11   S    
C52   H40   S    
C9    O16   S    
C40   C42   A    
N5    N6    D    
C48   H27   S    
C3    C24   S    
C22   O9    S    
C19   N3    A    
C18   H2    S    
C42   H12   S    
O16   C52   S    
C46   H19   S    
C2    O4    A    
C46   H18   S    
C31   O11   S    
C29   N3    A    
C45   H15   S    
C4    C6    A    
C4    C23   S    
C4    C44   A    
C40   H8    S    
C8    C18   A    
C17   H1    S    
C32   C34   A    
O9    C45   S    
C37   H5    S    
O3    Zn2   S    
C31   C33   A    
C50   H33   S    
O4    Zn1   S    
C9    C11   A    
C10   C12   A    
C16   C18   A    
C5    C44   A    
C20   C22   A    
C48   H28   S    
C49   H30   S    
C6    C43   A    
C13   C15   A    
C28   H22   S    
C54   H46   S    
C14   C16   A    
C20   N4    A    
C46   H20   S    
C53   H43   S    
C52   H38   S    
O1    Zn1   S    
C7    C9    A    
C21   C25   A    
C31   C41   A    
C19   C21   A    
C1    C7    S    
C19   H14   S    
C2    C8    S    
C47   H24   S    
O10   C46   S    
C3    C5    A    
C1    O1    A    
O17   C53   S    
C51   H36   S    
N4    Zn1   S    
C38   H6    S    
C25   C27   A    
C49   H31   S    
C26   C28   A    
C51   H37   S    
O7    Zn2   S    
C23   O5    A    
C28   C30   A    
C12   C14   A    
C37   C39   A    
C38   C40   A    
C11   C13   A    
C32   O12   S    
O5    Zn1   S    
C30   N4    A    
C21   O10   S    
C36   C38   A    
O12   C48   S    
C33   C35   A    
C15   O17   S    
C20   H13   S    
C50   H34   S    
C33   O13   S    
C16   O18   S    
O14   C50   S    
C24   O8    A    
C12   H41   S    
C44   H10   S    
C47   H23   S    
C8    C10   A    
C49   H29   S    
C22   C26   A    
C50   H32   S    
C54   H47   S    
C32   C42   A    
C25   N5    S    
C13   N1    S    
C11   H42   S    
C26   N6    S    
C2    O2    A    
O18   C54   S    
C52   H39   S    
