data_mof_unit_23902.cif
_audit_creation_date              2013-03-05T16:12:48-0500
_audit_creation_method            fapswitch 2.2
_symmetry_space_group_name_H-M    P1
_symmetry_Int_Tables_number       1
_space_group_crystal_system       triclinic
_cell_length_a                    10.735348
_cell_length_b                    9.951976
_cell_length_c                    27.613635
_cell_angle_alpha                 89.99834
_cell_angle_beta                  93.094713
_cell_angle_gamma                 89.990389
_cell_volume                      2945.8810577

loop_
_atom_site_label
_atom_site_type_symbol
_atom_site_description
_atom_site_fract_x
_atom_site_fract_y
_atom_site_fract_z
_atom_type_partial_charge
O1    O     O_R   0.316770 0.614620 0.500000 -0.626074
O2    O     O_R   0.683230 0.385380 0.500000 -0.600579
O3    O     O_R   0.683230 0.614620 0.500000 -0.626090
O4    O     O_R   0.316770 0.385380 0.500000 -0.601586
C1    C     C_R   0.260268 0.499910 0.500623 0.894342
C2    C     C_R   0.739742 0.499895 0.499439 0.895094
O5    O     O_R   0.500030 0.614650 0.428760 -0.578063
O6    O     O_R   0.499970 0.385350 0.571240 -0.627856
O7    O     O_R   0.499970 0.614650 0.571240 -0.577928
O8    O     O_R   0.500030 0.385350 0.428760 -0.627292
C3    C     C_R   0.501836 0.499887 0.406094 0.898212
C4    C     C_R   0.498234 0.499880 0.593907 0.898569
Zn1   Zn    Zn3+2 0.500000 0.653120 0.500000 1.019330
Zn2   Zn    Zn3+2 0.500000 0.346880 0.500000 1.011136
C5    C     C_R   0.402079 0.493559 0.174938 0.521295
C6    C     C_R   0.598836 0.493424 0.825079 0.521265
O9    O     O_2   0.296953 0.520224 0.197874 -0.535233
O10   O     O_2   0.703941 0.520087 0.802135 -0.535194
N1    N     N_R   0.513581 0.481622 0.200932 -0.357857
N2    N     N_R   0.487328 0.481473 0.799092 -0.357883
C7    C     C_R   0.621759 0.453295 0.179043 0.524713
C8    C     C_R   0.379170 0.453154 0.820990 0.524714
C9    C     C_R   0.542106 0.373769 0.279969 -0.091466
C10   C     C_R   0.458707 0.373630 0.720061 -0.091242
C11   C     C_R   0.539586 0.378354 0.330075 -0.204946
C12   C     C_R   0.460993 0.378258 0.669950 -0.205743
C13   C     C_R   0.485321 0.615093 0.325818 -0.168338
C14   C     C_R   0.515155 0.615020 0.674188 -0.168034
C15   C     C_R   0.488387 0.610408 0.275505 -0.093794
C16   C     C_R   0.512346 0.610285 0.724509 -0.093718
C17   C     C_R   0.515621 0.489309 0.252566 0.296516
C18   C     C_R   0.485240 0.489163 0.747457 0.296513
C19   C     C_R   0.506518 0.445319 0.101410 -0.052192
C20   C     C_R   0.494438 0.445217 0.898618 -0.052189
C21   C     C_R   0.396362 0.475815 0.124622 -0.035348
C22   C     C_R   0.604576 0.475702 0.875398 -0.035343
C23   C     C_R   0.283592 0.488546 0.097182 -0.099633
C24   C     C_R   0.717348 0.488452 0.902834 -0.099651
C25   C     C_R   0.620227 0.433924 0.128839 -0.042503
C26   C     C_R   0.380726 0.433800 0.871194 -0.042506
C27   C     C_R   0.508719 0.498262 0.353352 -0.056404
C28   C     C_R   0.491625 0.498217 0.646659 -0.056255
H1    H     H_    0.463485 0.709318 0.342949 0.208572
H2    H     H_    0.536896 0.709261 0.657046 0.208495
H3    H     H_    0.468695 0.700209 0.254304 0.156098
H4    H     H_    0.532098 0.700072 0.745708 0.156128
H5    H     H_    0.198243 0.515563 0.114011 0.204740
H6    H     H_    0.802684 0.515457 0.885998 0.204735
C29   C     C_R   0.384994 0.409921 0.972834 -0.018209
C30   C     C_R   0.615986 0.409962 0.027201 -0.018216
C31   C     C_R   0.613633 0.431669 0.976472 0.069341
C32   C     C_R   0.387339 0.431692 0.023558 0.069343
C33   C     C_R   0.497792 0.427892 0.949345 0.073048
C34   C     C_R   0.503179 0.427950 0.050686 0.073051
C35   C     C_R   0.274633 0.378410 0.944223 -0.073265
C36   C     C_R   0.726357 0.378490 0.055819 -0.073256
C37   C     C_R   0.272616 0.396829 0.893964 -0.174829
C38   C     C_R   0.728357 0.396948 0.106077 -0.174831
O11   O     O_2   0.270651 0.443644 0.794139 -0.537307
O12   O     O_2   0.730268 0.443789 0.205902 -0.537358
C39   C     C_R   0.279324 0.468043 0.047368 -0.133804
C40   C     C_R   0.721632 0.467994 0.952652 -0.133788
H7    H     H_    0.438453 0.287925 0.649508 0.206451
H8    H     H_    0.562129 0.288026 0.350522 0.207042
H9    H     H_    0.437285 0.279938 0.737753 0.155956
H10   H     H_    0.563643 0.280097 0.262285 0.155957
H11   H     H_    0.187526 0.376059 0.872328 0.222943
H12   H     H_    0.813451 0.376199 0.127718 0.222934
H13   H     H_    0.191394 0.486698 0.027626 0.162151
H14   H     H_    0.809558 0.486668 0.972388 0.162152
C41   C     C_R   0.063936 0.377094 0.501186 -0.124997
C42   C     C_R   0.936138 0.621630 0.498976 -0.178661
C43   C     C_R   0.936175 0.377073 0.499335 -0.124930
C44   C     C_R   0.063833 0.621642 0.501114 -0.178817
H15   H     H_    0.111974 0.281521 0.502528 0.215170
H16   H     H_    0.887899 0.716850 0.497314 0.200411
H17   H     H_    0.888202 0.281473 0.498204 0.215163
H18   H     H_    0.112024 0.716864 0.502639 0.200781
C45   C     C_R   0.872345 0.499480 0.498895 -0.037035
C46   C     C_R   0.127689 0.499505 0.501329 -0.037095
C47   C     C_R   0.578669 0.072055 0.531247 -0.038308
C48   C     C_R   0.414302 0.929200 0.471384 -0.042921
C49   C     C_R   0.421188 0.072119 0.468809 -0.038616
C50   C     C_R   0.585650 0.929162 0.528632 -0.042369
N3    N     N_R   0.500000 0.857200 0.500000 -0.160619
N4    N     N_R   0.500000 0.142800 0.500000 -0.176649
C51   C     C_2   0.650008 0.142001 0.570838 0.999434
O13   O     O_2   0.746948 0.200084 0.563106 -0.603755
O14   O     O_R   0.611516 0.130273 0.618154 -0.827111
H19   H     H_    0.669424 0.178439 0.642643 0.350167
C52   C     C_2   0.307553 0.863048 0.444845 0.942320
O15   O     O_2   0.324031 0.777444 0.414368 -0.606635
O16   O     O_R   0.186752 0.908946 0.451860 -0.811200
H20   H     H_    0.121401 0.862290 0.429943 0.348320
C53   C     C_2   0.349128 0.142340 0.429478 1.000208
O17   O     O_2   0.251294 0.198404 0.437396 -0.604112
O18   O     O_R   0.388047 0.133109 0.382158 -0.826687
H21   H     H_    0.329595 0.181246 0.357852 0.350163
C54   C     C_2   0.692583 0.863055 0.555092 0.942392
O19   O     O_2   0.676367 0.776925 0.585407 -0.605839
O20   O     O_R   0.813247 0.909512 0.548176 -0.812007
H22   H     H_    0.878739 0.862755 0.570006 0.348404
C55   C     C_2   0.168321 0.305402 0.964205 0.915219
O21   O     O_2   0.062566 0.320879 0.946313 -0.631696
O22   O     O_R   0.190325 0.214755 0.002436 -0.766398
H23   H     H_    0.111870 0.167363 0.011987 0.363071
C56   C     C_2   0.832701 0.305470 0.035851 0.915207
O23   O     O_2   0.938449 0.320975 0.053742 -0.631691
O24   O     O_R   0.810735 0.214776 0.997637 -0.766393
H24   H     H_    0.889211 0.167374 0.988096 0.363084

loop_
_geom_bond_atom_site_label_1
_geom_bond_atom_site_label_2
_geom_bond_distance
_ccdc_geom_bond_type
C16   C18   1.399715 A    
C51   O13   1.219397 D    
O20   H22   1.014079 S    
C13   C15   1.392286 A    
C53   O17   1.219352 D    
C42   H16   1.079600 S    
O3    C2    1.293307 A    
N1    C17   1.426840 S    
O18   H21   1.013959 S    
O5    C3    1.303030 A    
C19   C25   1.405992 A    
O1    C1    1.293368 A    
C9    H10   1.083100 S    
N1    C7    1.367174 A    
C10   C12   1.386056 A    
C42   C45   1.395319 A    
C32   C39   1.410661 A    
C35   C55   1.484310 S    
C40   H14   1.080305 S    
O7    Zn1   2.004108 S    
C4    C28   1.462290 S    
C56   O23   1.223168 D    
C23   H5    1.083360 S    
C24   H6    1.083361 S    
C47   N4    1.369139 A    
O3    Zn1   2.003944 S    
O6    C4    1.300989 A    
C49   C53   1.474937 S    
C44   C46   1.395244 A    
C56   O24   1.398950 S    
O2    C2    1.291650 A    
C31   C40   1.410672 A    
C37   H11   1.084091 S    
C5    C21   1.398659 A    
C41   C46   1.397325 A    
C32   C34   1.417197 A    
C50   N3    1.380295 A    
Zn2   N4    2.030999 S    
C7    O12   1.350055 S    
C42   C44   1.368935 A    
O8    Zn2   2.004113 S    
C11   C27   1.403515 A    
C8    O11   1.350065 S    
C41   C43   1.369748 A    
C29   C35   1.423113 A    
C25   C38   1.398799 A    
C14   H2    1.081725 S    
C30   C36   1.423125 A    
C48   C52   1.480994 S    
C15   H3    1.082896 S    
C31   C33   1.417202 A    
C11   H8    1.081942 S    
C9    C17   1.397215 A    
C5    N1    1.367245 A    
C12   H7    1.082000 S    
C10   C18   1.397262 A    
C36   C56   1.484310 S    
C52   O16   1.398180 S    
C13   C27   1.404361 A    
C54   O19   1.217180 D    
C7    C25   1.398878 A    
C6    N2    1.367246 A    
C29   C32   1.416216 A    
C8    C26   1.398845 A    
C30   C31   1.416251 A    
C43   C45   1.397322 A    
C55   O22   1.398947 S    
O16   H20   1.014081 S    
C30   C34   1.415598 A    
C1    C46   1.424475 S    
C47   C51   1.475154 S    
C10   H9    1.083124 S    
C38   H12   1.084091 S    
C54   O20   1.398252 S    
N2    C8    1.367177 A    
C35   C37   1.398895 A    
C20   C26   1.405989 A    
O1    Zn1   2.004070 S    
C22   C24   1.398828 A    
C52   O15   1.217131 D    
C47   C50   1.426060 A    
C12   C28   1.403542 A    
N2    C18   1.426841 S    
C39   H13   1.080310 S    
C19   C34   1.409834 A    
C5    O9    1.349916 S    
O6    Zn2   2.004129 S    
C26   C37   1.398788 A    
C21   C23   1.398822 A    
C50   C54   1.481102 S    
C16   H4    1.082942 S    
O4    C1    1.291610 A    
C23   C39   1.388915 A    
C53   O18   1.396181 S    
C48   N3    1.380395 A    
O22   H23   1.012672 S    
C51   O14   1.396348 S    
C14   C16   1.392305 A    
C15   C17   1.399664 A    
O24   H24   1.012678 S    
C6    C22   1.398698 A    
C41   H15   1.081552 S    
C2    C45   1.424427 S    
C29   C33   1.415591 A    
C14   C28   1.404402 A    
C19   C21   1.408237 A    
C36   C38   1.398926 A    
C3    C27   1.462350 S    
C20   C22   1.408239 A    
C9    C11   1.386089 A    
O4    Zn2   2.003944 S    
O2    Zn2   2.004070 S    
O7    C4    1.303057 A    
O8    C3    1.301032 A    
C13   H1    1.081655 S    
O5    Zn1   2.004135 S    
C49   N4    1.368945 A    
C20   C33   1.409836 A    
C6    O10   1.349915 S    
C48   C49   1.426226 A    
C44   H18   1.079481 S    
Zn1   N3    2.030999 S    
C55   O21   1.223160 D    
C43   H17   1.081586 S    
O14   H19   1.014046 S    
C24   C40   1.388945 A    
