data_mof_unit_47601.cif
_audit_creation_date              2012-10-26T20:17:37-0400
_audit_creation_method            fapswitch 2.2
_symmetry_space_group_name_H-M    P1
_symmetry_Int_Tables_number       1
_space_group_crystal_system       triclinic
_cell_length_a                    27.802993
_cell_length_b                    8.683457
_cell_length_c                    7.457759
_cell_angle_alpha                 103.341982
_cell_angle_beta                  94.808967
_cell_angle_gamma                 92.838008
_cell_volume                      1741.32721993

loop_
_atom_site_label
_atom_site_type_symbol
_atom_type_description
_atom_site_fract_x
_atom_site_fract_y
_atom_site_fract_z
_atom_type_partial_charge
C1    C     C_R   0.498515 0.199512 0.452872 0.554551
C2    C     C_R   0.869674 0.362582 0.484690 0.042117
C3    C     C_R   0.354524 0.490726 0.499850 -0.029665
C4    C     C_R   0.645425 0.506466 0.499027 -0.009795
C5    C     C_R   0.970594 0.353099 0.463823 0.028884
C6    C     C_R   0.029055 0.639466 0.516984 0.028421
C7    C     C_R   0.978979 0.646490 0.545423 0.006347
C8    C     C_R   0.020653 0.346178 0.435302 0.005939
C9    C     C_R   0.949621 0.502091 0.506251 0.027669
C10   C     C_R   0.050027 0.490495 0.475305 0.027106
C11   C     C_R   0.941040 0.216230 0.464056 -0.109642
C12   C     C_R   0.501483 0.800487 0.547128 0.553215
C13   C     C_R   0.058717 0.776150 0.516861 -0.111675
C14   C     C_R   0.891382 0.219399 0.463923 -0.079971
C15   C     C_R   0.108446 0.773009 0.519621 -0.079807
C16   C     C_R   0.407501 0.497554 0.500841 0.555269
C17   C     C_R   0.592491 0.501989 0.499035 0.556572
C18   C     C_R   0.042262 0.203009 0.354736 -0.037278
C19   C     C_R   0.957418 0.789780 0.626019 -0.038716
C20   C     C_2   0.497825 0.031331 0.426617 -0.144763
C21   C     C_2   0.502173 0.968669 0.573383 -0.145174
C22   C     C_R   0.173898 0.344366 0.451644 0.388350
C23   C     C_R   0.100934 0.486933 0.469451 -0.036530
C24   C     C_R   0.825746 0.647848 0.536103 0.452994
C25   C     C_R   0.180396 0.625984 0.503174 0.411919
C26   C     C_R   0.819494 0.366394 0.486876 0.448004
C27   C     C_R   0.282264 0.544727 0.658048 0.047440
C28   C     C_R   0.717094 0.448536 0.338463 0.001968
C29   C     C_R   0.332635 0.546405 0.662641 -0.138799
C30   C     C_R   0.666828 0.449330 0.335561 -0.158925
C31   C     C_R   0.325577 0.429781 0.332603 -0.104592
C32   C     C_R   0.674788 0.565532 0.665584 -0.168463
C33   C     C_R   0.275061 0.425671 0.325189 0.051366
C34   C     C_R   0.898768 0.505562 0.514277 -0.032564
C35   C     C_R   0.725191 0.566557 0.671951 0.051359
C36   C     C_R   0.253154 0.484254 0.489460 0.191060
C37   C     C_R   0.746722 0.507926 0.506114 0.237891
C38   C     C_2   0.245581 0.363692 0.144801 0.300737
C39   C     C_2   0.753332 0.626923 0.855585 0.295009
C40   C     C_1   0.113662 0.057552 0.259537 0.263426
C41   C     C_1   0.886193 0.935171 0.723632 0.278343
C42   C     C_1   0.737765 0.381460 0.168942 0.233193
C43   C     C_1   0.260879 0.609285 0.826734 0.288153
C44   C     C_1   0.013499 0.061929 0.248941 0.196248
C45   C     C_R   0.122755 0.341453 0.428914 -0.002723
C46   C     C_1   0.986248 0.931231 0.730449 0.196421
C47   C     C_R   0.876923 0.650999 0.555496 0.018948
C48   C     C_R   0.093027 0.200556 0.356182 -0.029214
C49   C     C_R   0.906684 0.792094 0.626364 -0.026332
C50   C     C_R   0.130122 0.629865 0.501003 0.037215
Cu1   Cu    Cu3+1 0.505380 0.517380 0.684380 0.969591
Cu2   Cu    Cu3+1 0.494620 0.482620 0.315620 0.971500
H1    H     H_    0.342498 0.386056 0.206706 0.176294
H2    H     H_    0.044269 0.887029 0.508230 0.133861
H3    H     H_    0.493749 0.958815 0.285579 0.136220
H4    H     H_    0.506248 0.041186 0.714421 0.136015
H5    H     H_    0.207067 0.378578 0.130984 0.134123
H6    H     H_    0.735385 0.690005 0.971663 0.107063
H7    H     H_    0.658293 0.610035 0.792404 0.118314
H8    H     H_    0.461969 0.376950 0.947921 0.242895
H9    H     H_    0.538031 0.623051 0.052080 0.238383
H10   H     H_    0.644389 0.402177 0.206443 0.135800
H11   H     H_    0.354741 0.594287 0.792365 0.140549
H12   H     H_    0.870119 0.108863 0.451051 0.187643
H13   H     H_    0.129799 0.883475 0.533067 0.192718
H14   H     H_    0.955542 0.105155 0.471330 0.133190
N1    N     N_R   0.201310 0.485012 0.484272 -0.421513
N2    N     N_1   0.008948 0.044850 0.812447 -0.278004
N3    N     N_R   0.798483 0.507276 0.507406 -0.373289
N4    N     N_2   0.486510 0.456430 0.038510 -0.256501
N5    N     N_2   0.513490 0.543570 0.961490 -0.258842
N6    N     N_1   0.129915 0.944056 0.181038 -0.213821
N7    N     N_1   0.870060 0.048711 0.802641 -0.202444
N8    N     N_1   0.754326 0.326216 0.033470 -0.204739
N9    N     N_1   0.243683 0.662045 0.961570 -0.233761
N10   N     N_1   0.990840 0.948591 0.165928 -0.272557
O1    O     O_R   0.503500 0.286120 0.619780 -0.503933
O2    O     O_2   0.803207 0.783103 0.545162 -0.453967
O3    O     O_2   0.791777 0.230464 0.468501 -0.448643
O4    O     O_2   0.208291 0.761949 0.524281 -0.439012
O5    O     O_2   0.264026 0.295236 0.008237 -0.480935
O6    O     O_2   0.795982 0.603719 0.882401 -0.460814
O7    O     O_R   0.496500 0.713880 0.380220 -0.503791
O8    O     O_R   0.494410 0.256780 0.308360 -0.495787
O9    O     O_R   0.505590 0.743220 0.691640 -0.497061
O10   O     O_R   0.434810 0.514700 0.655690 -0.501700
O11   O     O_R   0.565190 0.485300 0.344310 -0.507851
O12   O     O_R   0.425720 0.485350 0.344280 -0.501224
O13   O     O_R   0.574280 0.514650 0.655720 -0.501046
O14   O     O_2   0.196251 0.208804 0.442945 -0.434435

loop_
_geom_bond_atom_site_label_1
_geom_bond_atom_site_label_2
_ccdc_geom_bond_type
C29   H11   S    
C23   C45   A    
C37   N3    S    
C27   C29   A    
C25   O4    S    
C1    O1    A    
C25   N1    A    
Cu1   O9    S    
C36   N1    S    
C47   C49   A    
C1    O8    A    
C46   N2    T    
C12   O9    A    
C35   C37   A    
C5    C11   A    
C11   C14   A    
C15   H13   S    
C33   C36   A    
C44   N10   T    
C15   C50   A    
C3    C29   A    
C40   C48   S    
C25   C50   A    
C31   C33   A    
N4    N5    D    
C11   H14   S    
H9    N5    S    
C16   O10   A    
Cu1   N5    S    
C20   H3    S    
Cu1   O10   S    
C41   C49   S    
C24   N3    A    
C43   N9    T    
C19   C46   S    
C42   N8    T    
Cu1   Cu2   S    
C32   C35   A    
Cu2   O12   S    
C17   O13   A    
C23   C50   A    
C39   H6    S    
C12   C21   S    
C8    C18   A    
C12   O7    A    
Cu2   O7    S    
C35   C39   S    
Cu1   O1    S    
C5    C9    A    
C18   C44   S    
C5    C8    A    
C38   H5    S    
C19   C49   A    
C13   C15   A    
H8    N4    S    
C14   H12   S    
C22   O14   S    
C2    C26   A    
C31   H1    S    
C3    C31   A    
C4    C32   A    
C4    C17   S    
C24   O2    S    
C7    C19   A    
C30   H10   S    
C38   O5    D    
C9    C34   A    
C10   C23   A    
C13   H2    S    
C45   C48   A    
C7    C9    A    
C1    C20   S    
C40   N6    T    
C17   O11   A    
C24   C47   A    
Cu2   O11   S    
C26   O3    S    
C39   O6    D    
C18   C48   A    
C6    C10   A    
C21   H4    S    
C6    C7    A    
C27   C36   A    
C33   C38   S    
C28   C30   A    
Cu1   O13   S    
C6    C13   A    
C2    C34   A    
C28   C37   A    
C28   C42   S    
C2    C14   A    
C22   N1    A    
Cu2   N4    S    
C41   N7    T    
C27   C43   S    
C22   C45   A    
C20   C21   D    
C8    C10   A    
C16   O12   A    
C26   N3    A    
C34   C47   A    
C32   H7    S    
Cu2   O8    S    
C4    C30   A    
C3    C16   S    
