data_mof_unit_33213.cif
_audit_creation_date              2012-12-10T19:50:01-0500
_audit_creation_method            fapswitch 2.2
_symmetry_space_group_name_H-M    P1
_symmetry_Int_Tables_number       1
_space_group_crystal_system       triclinic
_cell_length_a                    14.277823
_cell_length_b                    15.009004
_cell_length_c                    15.491186
_cell_angle_alpha                 91.537904
_cell_angle_beta                  68.345793
_cell_angle_gamma                 90.50018
_cell_volume                      3084.30542127

loop_
_atom_site_label
_atom_site_type_symbol
_atom_type_description
_atom_site_fract_x
_atom_site_fract_y
_atom_site_fract_z
_atom_type_partial_charge
C1    C     C_R   0.500930 0.671644 0.499187 0.901679
C2    C     C_R   0.498410 0.327816 0.503356 0.893787
C3    C     C_R   0.387257 0.518357 0.105303 -0.149391
C4    C     C_R   0.617272 0.531212 0.897083 -0.167564
C5    C     C_R   0.313256 0.527947 0.067697 0.415697
C6    C     C_R   0.688097 0.551938 0.937250 0.424801
C7    C     C_R   0.421234 0.903150 0.574650 -0.161904
C8    C     C_R   0.586873 0.094816 0.499395 -0.164775
C9    C     C_R   0.421251 0.811382 0.568782 -0.209723
C10   C     C_R   0.585879 0.186511 0.497096 -0.240969
C11   C     C_R   0.501983 0.766880 0.501804 -0.116328
C12   C     C_R   0.495495 0.231803 0.512059 -0.146924
C13   C     C_R   0.584458 0.813675 0.440667 0.472181
C14   C     C_R   0.404125 0.184158 0.536412 0.536399
C15   C     C_R   0.580777 0.905951 0.443078 -0.232803
C16   C     C_R   0.407084 0.091937 0.532051 -0.243786
C17   C     C_R   0.500207 0.950723 0.510909 0.074596
C18   C     C_R   0.498026 0.047221 0.514227 0.064587
C19   C     C_R   0.867347 0.538524 0.571648 -0.287146
C20   C     C_R   0.114442 0.428388 0.469291 -0.299706
C21   C     C_R   0.769737 0.541403 0.570092 0.459678
C22   C     C_R   0.213982 0.428589 0.466276 0.456660
C23   C     C_R   0.437288 0.496432 0.675707 0.918561
C24   C     C_R   0.563124 0.499644 0.324285 0.961444
C25   C     C_R   0.824608 0.465957 0.423802 0.406115
C26   C     C_R   0.192256 0.574173 0.532515 0.464361
C27   C     C_R   0.925961 0.469760 0.419190 0.235987
C28   C     C_R   0.096235 0.579965 0.525177 0.263812
C29   C     C_R   0.948085 0.503472 0.495702 -0.000628
C30   C     C_R   0.053967 0.504647 0.496693 0.009788
C31   C     C_R   0.399052 0.492731 0.777093 -0.204032
C32   C     C_R   0.603452 0.506608 0.223551 -0.207074
C33   C     C_R   0.266373 0.520004 0.927597 0.545917
C34   C     C_R   0.725370 0.569765 0.082195 0.533960
C35   C     C_R   0.299327 0.515196 0.830681 -0.393338
C36   C     C_R   0.691549 0.555097 0.178813 -0.381113
C37   C     C_R   0.465500 0.472464 0.821098 0.373169
C38   C     C_R   0.545839 0.475962 0.173873 0.331383
C39   C     C_R   0.441087 0.498325 0.914200 -0.070418
C40   C     C_R   0.565219 0.507800 0.085462 -0.087138
C41   C     C_R   0.338340 0.515462 0.970894 -0.120040
C42   C     C_R   0.661586 0.543199 0.034131 -0.077700
C43   C     C_R   0.516865 0.509199 0.951866 0.050448
C44   C     C_R   0.489343 0.507516 0.048044 0.045594
H1    H     H_    0.880515 0.567413 0.630953 0.255208
H2    H     H_    0.085466 0.368699 0.447160 0.230637
H3    H     H_    0.731788 0.582932 0.220175 0.202123
H4    H     H_    0.246089 0.527663 0.797810 0.174993
H5    H     H_    0.365638 0.528369 0.179656 0.215726
H6    H     H_    0.639571 0.539916 0.823437 0.249754
H7    H     H_    0.359647 0.936793 0.628856 0.141288
H8    H     H_    0.657268 0.061125 0.488543 0.145935
H9    H     H_    0.359578 0.775128 0.617851 0.168186
H10   H     H_    0.656265 0.221507 0.483216 0.170283
H11   H     H_    0.640240 0.942426 0.391562 0.150624
H12   H     H_    0.337771 0.055584 0.543714 0.161829
N1    N     N_R   0.747530 0.500020 0.500000 -0.178497
N2    N     N_R   0.252470 0.499980 0.500000 -0.205577
O1    O     O_R   0.420530 0.630930 0.499990 -0.575349
O2    O     O_R   0.579470 0.369070 0.500010 -0.636541
O3    O     O_R   0.579480 0.630940 0.499990 -0.602668
O4    O     O_R   0.420520 0.369060 0.500010 -0.534346
O5    O     O_R   0.375120 0.499990 0.632240 -0.675073
O6    O     O_R   0.624880 0.500010 0.367760 -0.584433
O7    O     O_R   0.534080 0.500000 0.632240 -0.514658
O8    O     O_R   0.465920 0.500000 0.367760 -0.554815
Zn1   Zn    Zn3+2 0.393860 0.499990 0.500000 1.034242
Zn2   Zn    Zn3+2 0.606140 0.500010 0.500000 1.030960
Cl1   Cl    Cl    0.193469 0.560158 0.146538 -0.544006
Cl2   Cl    Cl    0.809740 0.581723 0.860669 -0.567479
Cl3   Cl    Cl    0.682610 0.612106 0.652108 -0.585847
Cl4   Cl    Cl    0.286563 0.335480 0.412189 -0.427793
O9    O     O_3   0.806191 0.444554 0.344272 -0.600837
C45   C     C_3   0.809052 0.351272 0.329026 0.142904
H13   H     H_    0.734010 0.323265 0.368632 0.153890
H14   H     H_    0.866165 0.317107 0.349981 0.143025
C46   C     C_3   0.833131 0.331942 0.225709 -0.329192
H15   H     H_    0.776659 0.365524 0.203851 0.232169
H16   H     H_    0.908834 0.359051 0.184880 0.245096
C47   C     C_3   0.831912 0.232122 0.204855 -0.927474
H17   H     H_    0.889390 0.197383 0.224272 0.271134
H18   H     H_    0.849413 0.220572 0.129405 0.275155
H19   H     H_    0.756331 0.203912 0.244029 0.272538
O10   O     O_3   0.226280 0.646403 0.569500 -0.576210
C48   C     C_3   0.202274 0.635034 0.665861 0.109009
H20   H     H_    0.273407 0.640304 0.678958 0.167803
H21   H     H_    0.167547 0.569257 0.692379 0.093372
C49   C     C_3   0.131978 0.709691 0.721939 -0.328508
H22   H     H_    0.162353 0.775251 0.692430 0.241490
H23   H     H_    0.056382 0.700523 0.718118 0.284353
C50   C     C_3   0.120793 0.709597 0.823820 -0.903297
H24   H     H_    0.090470 0.644696 0.854650 0.275984
H25   H     H_    0.067842 0.763149 0.863110 0.280210
H26   H     H_    0.194845 0.721556 0.830300 0.264910
Cl5   Cl    Cl    0.023913 0.441448 0.313068 -0.556419
Cl6   Cl    Cl    0.035477 0.684602 0.544203 -0.594244
Cl7   Cl    Cl    0.461889 0.385534 0.214526 -0.513509
Cl8   Cl    Cl    0.566925 0.396961 0.766704 -0.594274
O11   O     O_3   0.165956 0.538911 0.977167 -0.632896
C51   C     C_3   0.110268 0.458610 0.999610 0.135112
H27   H     H_    0.046914 0.470957 0.066786 0.204082
H28   H     H_    0.154138 0.402059 0.011406 0.149447
C52   C     C_3   0.067259 0.432284 0.925207 -0.445719
H29   H     H_    0.040358 0.492223 0.900869 0.248805
H30   H     H_    0.127485 0.400887 0.864512 0.215117
C53   C     C_3   0.979523 0.367267 0.962581 -0.902212
H31   H     H_    0.003611 0.307013 0.989066 0.268251
H32   H     H_    0.952905 0.346780 0.906129 0.283158
H33   H     H_    0.915787 0.399563 0.019518 0.259486
O12   O     O_3   0.807519 0.624414 0.037701 -0.585698
C54   C     C_3   0.889260 0.613971 0.067420 0.136868
H34   H     H_    0.958460 0.607668 0.004228 0.192478
H35   H     H_    0.885888 0.552515 0.107261 0.116497
C55   C     C_3   0.900139 0.697726 0.121499 -0.420144
H36   H     H_    0.910630 0.756548 0.076773 0.248418
H37   H     H_    0.830890 0.708658 0.184074 0.241232
C56   C     C_3   0.990321 0.690327 0.151110 -0.805144
H38   H     H_    0.979416 0.634173 0.199161 0.304841
H39   H     H_    0.998696 0.752982 0.187190 0.258145
H40   H     H_    0.060404 0.679665 0.089231 0.314726
O13   O     O_3   0.663747 0.769778 0.372850 -0.657950
C57   C     C_3   0.742312 0.754926 0.406125 0.119580
H41   H     H_    0.776219 0.688937 0.377786 0.184185
H42   H     H_    0.716098 0.751298 0.483416 0.174427
C58   C     C_3   0.824012 0.826318 0.371922 -0.461628
H43   H     H_    0.847880 0.832049 0.295481 0.244774
H44   H     H_    0.793634 0.891788 0.404967 0.221701
C59   C     C_3   0.915280 0.803556 0.396139 -0.786660
H45   H     H_    0.893204 0.800999 0.472706 0.298917
H46   H     H_    0.974040 0.855469 0.369249 0.269155
H47   H     H_    0.947479 0.738062 0.364413 0.280755
O14   O     O_3   0.311724 0.226023 0.560988 -0.589831
C60   C     C_3   0.276067 0.251407 0.656376 0.113782
H48   H     H_    0.218510 0.304299 0.667407 0.175107
H49   H     H_    0.336071 0.281514 0.677919 0.111431
C61   C     C_3   0.226654 0.172379 0.717721 -0.398151
H50   H     H_    0.174685 0.137432 0.689565 0.248442
H51   H     H_    0.285620 0.124554 0.717663 0.215079
C62   C     C_3   0.167506 0.202877 0.817613 -0.916173
H52   H     H_    0.216607 0.241544 0.846296 0.269854
H53   H     H_    0.137820 0.143933 0.861208 0.275050
H54   H     H_    0.102902 0.244698 0.820033 0.271412

loop_
_geom_bond_atom_site_label_1
_geom_bond_atom_site_label_2
_ccdc_geom_bond_type
C27   C29   A    
C11   C13   A    
O9    C45   S    
C27   Cl5   S    
C54   H34   S    
C1    C11   S    
C2    C12   S    
C59   H45   S    
C16   H12   S    
C55   H36   S    
C3    H5    S    
C39   C41   A    
C20   C30   A    
C48   H20   S    
C45   H14   S    
O4    Zn1   S    
C21   Cl3   S    
C32   C36   A    
C19   C21   A    
C1    O1    A    
C62   H54   S    
C2    O2    A    
C23   O5    A    
C46   C47   S    
C53   H31   S    
C59   H46   S    
C13   O13   S    
C36   H3    S    
C15   C17   A    
O12   C54   S    
C5    Cl1   S    
O1    Zn1   S    
C52   H30   S    
O14   C60   S    
C7    C17   A    
C45   C46   S    
C34   C42   A    
C58   C59   S    
C32   C38   A    
C54   C55   S    
C8    H8    S    
C25   O9    S    
C24   O8    A    
C40   C42   A    
O8    Zn1   S    
C24   O6    A    
C15   H11   S    
C25   N1    A    
C38   Cl7   S    
C35   H4    S    
C22   Cl4   S    
C37   Cl8   S    
C46   H16   S    
O5    Zn1   S    
C3    C44   A    
C45   H13   S    
C48   H21   S    
O10   C48   S    
C47   H18   S    
C56   H40   S    
C50   H24   S    
C47   H17   S    
C39   C43   A    
C46   H15   S    
C51   C52   S    
C8    C18   A    
C31   C37   A    
C4    H6    S    
C33   O11   S    
C61   C62   S    
C43   C44   A    
C24   C32   S    
C21   N1    A    
C29   C30   S    
C50   H25   S    
C9    C11   A    
O11   C51   S    
C49   C50   S    
O7    Zn2   S    
C51   H28   S    
C17   C18   S    
C54   H35   S    
C16   C18   A    
C58   H44   S    
C26   N2    A    
O13   C57   S    
C10   C12   A    
C60   C61   S    
C61   H51   S    
C49   H23   S    
C13   C15   A    
C60   H48   S    
C34   O12   S    
C14   C16   A    
C4    C6    A    
C9    H9    S    
N1    Zn2   S    
C57   H42   S    
C19   C29   A    
C59   H47   S    
O6    Zn2   S    
C47   H19   S    
C48   C49   S    
C6    Cl2   S    
C5    C41   A    
C26   O10   S    
C20   C22   A    
C61   H50   S    
C3    C5    A    
C1    O3    A    
C22   N2    A    
C55   H37   S    
C62   H52   S    
C19   H1    S    
C4    C43   A    
C25   C27   A    
C26   C28   A    
C28   Cl6   S    
C14   O14   S    
C33   C41   A    
C23   O7    A    
C57   C58   S    
C56   H39   S    
C12   C14   A    
C7    H7    S    
C37   C39   A    
C56   H38   S    
C50   H26   S    
C38   C40   A    
C62   H53   S    
O3    Zn2   S    
C58   H43   S    
C53   H32   S    
C31   C35   A    
C28   C30   A    
C51   H27   S    
C33   C35   A    
C52   C53   S    
C34   C36   A    
C10   H10   S    
C55   C56   S    
C7    C9    A    
N2    Zn1   S    
C40   C44   A    
C49   H22   S    
O2    Zn2   S    
C8    C10   A    
C6    C42   A    
C52   H29   S    
C60   H49   S    
C57   H41   S    
C20   H2    S    
C2    O4    A    
C23   C31   S    
C53   H33   S    
