data_mof_unit_54531.cif
_audit_creation_date              2012-12-10T19:34:39-0500
_audit_creation_method            fapswitch 2.2
_symmetry_space_group_name_H-M    P1
_symmetry_Int_Tables_number       1
_space_group_crystal_system       triclinic
_cell_length_a                    10.798625
_cell_length_b                    15.837781
_cell_length_c                    17.050378
_cell_angle_alpha                 96.205323
_cell_angle_beta                  91.176152
_cell_angle_gamma                 92.179325
_cell_volume                      2895.98912498

loop_
_atom_site_label
_atom_site_type_symbol
_atom_type_description
_atom_site_fract_x
_atom_site_fract_y
_atom_site_fract_z
_atom_type_partial_charge
C1    C     C_R   0.496689 0.489809 0.348714 0.848700
C2    C     C_R   0.065364 0.454198 0.562880 0.018512
C3    C     C_R   0.128776 0.503027 0.509974 -0.216941
C4    C     C_R   0.063718 0.557124 0.465167 0.417719
C5    C     C_R   0.935592 0.551871 0.462885 -0.282869
C6    C     C_R   0.871151 0.499616 0.509811 -0.155246
C7    C     C_R   0.499654 0.485738 0.262732 -0.234593
C8    C     C_R   0.432533 0.542492 0.221364 -0.141122
C9    C     C_R   0.462505 0.551094 0.142539 0.418799
C10   C     C_R   0.541048 0.491974 0.101706 0.130677
C11   C     C_R   0.599311 0.431483 0.142132 0.399902
C12   C     C_R   0.262369 0.500733 0.502696 0.847580
C13   C     C_R   0.581754 0.430867 0.223109 -0.319991
C14   C     C_R   0.597940 0.492484 0.859828 0.483312
C15   C     C_R   0.599376 0.490635 0.777763 -0.347353
C16   C     C_R   0.487921 0.515341 0.899928 0.206939
C17   C     C_R   0.497030 0.515561 0.736139 -0.152876
C18   C     C_R   0.391138 0.543142 0.775690 0.375534
C19   C     C_R   0.386667 0.541157 0.857243 -0.340991
C20   C     C_R   0.451670 0.749530 0.453133 0.013596
C21   C     C_R   0.452008 0.838764 0.453577 -0.294312
C22   C     C_R   0.517993 0.891345 0.513511 0.337545
C23   C     C_R   0.500188 0.510270 0.650917 0.846535
C24   C     C_R   0.582071 0.852031 0.570244 -0.263225
C25   C     C_R   0.581838 0.762829 0.567912 0.160342
C26   C     C_R   0.556107 0.157334 0.533287 -0.248421
C27   C     C_R   0.560822 0.246664 0.537251 -0.033405
C28   C     C_R   0.472929 0.108705 0.479604 0.326953
C29   C     C_R   0.400833 0.242621 0.439402 0.641044
C30   C     C_R   0.396877 0.152665 0.432024 -0.402433
C31   C     C_R   0.737475 0.499805 0.504030 0.798637
C32   C     C_R   0.129304 0.410985 0.618530 -0.192059
C33   C     C_R   0.066595 0.363497 0.671141 -0.024290
C34   C     C_R   0.935517 0.361582 0.671136 0.010412
C35   C     C_R   0.871638 0.406374 0.617274 -0.218781
C36   C     C_R   0.934736 0.452218 0.562613 0.060444
Cu1   Cu    Cu3+1 0.493970 0.415220 0.496180 0.977401
Cu2   Cu    Cu3+1 0.506030 0.584780 0.503820 0.928896
H1    H     H_    0.634350 0.388568 0.255528 0.177542
H2    H     H_    0.302822 0.558509 0.887702 0.185363
H3    H     H_    0.625825 0.283136 0.577777 0.192778
H4    H     H_    0.617952 0.127066 0.571378 0.187395
H5    H     H_    0.634798 0.891779 0.615914 0.190730
H6    H     H_    0.229361 0.414594 0.622815 0.168352
H7    H     H_    0.401590 0.865778 0.407438 0.167562
H8    H     H_    0.334289 0.116933 0.389184 0.154620
H9    H     H_    0.400475 0.710008 0.407046 0.142706
H10   H     H_    0.772077 0.407919 0.620945 0.168366
H11   H     H_    0.886095 0.589389 0.423826 0.172789
H12   H     H_    0.680348 0.469483 0.746237 0.172944
N1    N     N_2   0.562607 0.491368 0.019862 -0.150851
N2    N     N_2   0.471672 0.513323 0.982056 -0.183483
N3    N     N_R   0.515100 0.712130 0.509560 -0.211314
N4    N     N_2   0.526011 0.982668 0.519806 -0.228657
N5    N     N_2   0.462829 0.017154 0.470835 -0.222035
N6    N     N_R   0.484890 0.287850 0.490450 -0.212191
O1    O     O_R   0.494360 0.420530 0.382500 -0.524896
O2    O     O_R   0.504550 0.563720 0.388950 -0.606241
O3    O     O_R   0.314550 0.428390 0.496780 -0.577459
O4    O     O_R   0.324740 0.571580 0.503230 -0.571427
O5    O     O_R   0.495450 0.436280 0.611050 -0.589294
O6    O     O_R   0.505640 0.579470 0.617500 -0.610248
O7    O     O_R   0.675260 0.428420 0.496770 -0.586678
O8    O     O_R   0.685450 0.571610 0.503220 -0.612086
O9    O     O_3   0.124843 0.610854 0.418522 -0.611380
C37   C     C_3   0.114244 0.696377 0.451430 0.038005
H13   H     H_    0.193092 0.714084 0.493664 0.171853
H14   H     H_    0.026652 0.708112 0.483862 0.135902
C38   C     C_3   0.118670 0.754473 0.385498 -0.309719
H15   H     H_    0.207485 0.747735 0.354294 0.231848
H16   H     H_    0.041670 0.735468 0.342164 0.239168
C39   C     C_3   0.106428 0.847388 0.417946 -0.924857
H17   H     H_    0.014751 0.856499 0.445322 0.262423
H18   H     H_    0.114482 0.888199 0.369140 0.262125
H19   H     H_    0.180710 0.867446 0.462848 0.265456
O10   O     O_3   0.286856 0.561554 0.733365 -0.632158
C40   C     C_3   0.276010 0.650504 0.739525 0.062952
H20   H     H_    0.362726 0.682441 0.720834 0.171664
H21   H     H_    0.255867 0.675681 0.801303 0.146438
C41   C     C_3   0.169098 0.670728 0.685403 -0.340274
H22   H     H_    0.187198 0.644238 0.624024 0.227610
H23   H     H_    0.081414 0.640461 0.703884 0.229758
C42   C     C_3   0.154255 0.766273 0.687114 -0.896137
H24   H     H_    0.134579 0.794487 0.747860 0.268310
H25   H     H_    0.075815 0.778359 0.647227 0.256453
H26   H     H_    0.239931 0.797239 0.666600 0.260862
O11   O     O_3   0.412509 0.615988 0.105138 -0.542769
C43   C     C_3   0.504176 0.681451 0.099518 0.098139
H27   H     H_    0.478967 0.714614 0.047624 0.165760
H28   H     H_    0.598659 0.657240 0.088456 0.115585
C44   C     C_3   0.507049 0.746109 0.173385 -0.342956
H29   H     H_    0.413297 0.771531 0.182470 0.254984
H30   H     H_    0.533917 0.714595 0.225973 0.213234
C45   C     C_3   0.599509 0.819852 0.165727 -0.919080
H31   H     H_    0.694455 0.796134 0.157926 0.260617
H32   H     H_    0.599416 0.865338 0.220070 0.264291
H33   H     H_    0.573556 0.853815 0.114492 0.260413
C46   C     C_2   0.329134 0.589991 0.259826 0.389153
H34   H     H_    0.303609 0.580558 0.319383 0.113229
O12   O     O_2   0.267543 0.637718 0.224807 -0.518534
C47   C     C_2   0.657900 0.727078 0.628748 0.348623
H35   H     H_    0.693290 0.664356 0.619169 0.122448
O13   O     O_2   0.684577 0.769045 0.691607 -0.575650
O14   O     O_3   0.328602 0.285877 0.390152 -0.585217
C48   C     C_3   0.200423 0.265294 0.396528 0.048305
H36   H     H_    0.153560 0.324703 0.416700 0.184067
H37   H     H_    0.178062 0.219642 0.440245 0.124256
C49   C     C_3   0.146119 0.230976 0.315293 -0.356050
H38   H     H_    0.166065 0.277835 0.272670 0.236971
H39   H     H_    0.190247 0.170727 0.294240 0.213761
C50   C     C_3   0.006136 0.214626 0.317871 -0.898723
H40   H     H_    0.983870 0.166841 0.359143 0.261842
H41   H     H_    0.969924 0.189896 0.258071 0.257644
H42   H     H_    0.959739 0.274529 0.337146 0.259454
C51   C     C_2   0.143671 0.317105 0.724035 0.320616
H43   H     H_    0.238324 0.339756 0.738935 0.106704
O15   O     O_2   0.105966 0.251189 0.747975 -0.545118
C52   C     C_2   0.863358 0.318719 0.729916 0.382990
H44   H     H_    0.906795 0.303480 0.784126 0.137574
O16   O     O_2   0.752807 0.301135 0.719148 -0.562201
O17   O     O_3   0.701148 0.467124 0.899164 -0.566013
C53   C     C_3   0.793232 0.533959 0.908449 0.084446
H45   H     H_    0.822058 0.543794 0.971822 0.182123
H46   H     H_    0.761126 0.596541 0.892921 0.113890
C54   C     C_3   0.906097 0.508569 0.859789 -0.346010
H47   H     H_    0.939648 0.447383 0.876612 0.233383
H48   H     H_    0.879763 0.500027 0.796146 0.205475
C55   C     C_3   0.011165 0.576005 0.872587 -0.908232
H49   H     H_    0.980360 0.637641 0.855255 0.260183
H50   H     H_    0.089946 0.555451 0.835453 0.277195
H51   H     H_    0.042958 0.584380 0.935409 0.268481
O18   O     O_3   0.681923 0.378124 0.102638 -0.574771
C56   C     C_3   0.644743 0.291575 0.104702 0.096751
H52   H     H_    0.630819 0.262323 0.042766 0.180435
H53   H     H_    0.555340 0.281067 0.134804 0.125909
C57   C     C_3   0.747534 0.245701 0.143862 -0.351810
H54   H     H_    0.834317 0.251458 0.110548 0.239374
H55   H     H_    0.765437 0.275702 0.205190 0.217265
C58   C     C_3   0.712218 0.151745 0.145961 -0.904336
H56   H     H_    0.627568 0.144533 0.180974 0.260024
H57   H     H_    0.788934 0.120001 0.173837 0.257764
H58   H     H_    0.695048 0.120069 0.085143 0.262950

loop_
_geom_bond_atom_site_label_1
_geom_bond_atom_site_label_2
_ccdc_geom_bond_type
C34   C52   S    
C37   H14   S    
O11   C43   S    
C47   H35   S    
C11   C13   A    
C35   C36   A    
C11   O18   S    
C7    C8    A    
C22   N4    S    
C40   H20   S    
C48   H37   S    
C26   C27   A    
C17   C23   S    
C5    C6    A    
Cu1   Cu2   S    
C25   N3    A    
C18   C19   A    
C57   C58   S    
C4    O9    S    
C58   H58   S    
C37   C38   S    
C35   H10   S    
C51   H43   S    
C49   H38   S    
C8    C9    A    
C2    C32   A    
C34   C35   A    
C15   H12   S    
C38   H16   S    
C8    C46   S    
C52   H44   S    
C3    C12   S    
Cu2   O2    S    
C12   O3    A    
C23   O6    A    
C50   H40   S    
C6    C36   A    
O18   C56   S    
C51   O15   D    
C56   C57   S    
C9    C10   A    
C21   H7    S    
C6    C31   S    
C47   O13   D    
C14   O17   S    
C21   C22   A    
C55   H49   S    
Cu1   N6    S    
C5    H11   S    
C38   H15   S    
C39   H19   S    
C10   N1    S    
O14   C48   S    
Cu1   O7    S    
C28   N5    S    
C33   C34   A    
Cu2   O8    S    
C40   H21   S    
C48   C49   S    
C33   C51   S    
N1    N2    D    
C31   O7    A    
C24   C25   A    
C57   H55   S    
C19   H2    S    
C44   H29   S    
C27   N6    A    
C41   H22   S    
C45   H33   S    
C29   O14   S    
C38   C39   S    
C29   C30   A    
C54   H48   S    
C1    O1    A    
C44   H30   S    
C27   H3    S    
C42   H24   S    
C43   C44   S    
C23   O5    A    
C20   C21   A    
C17   C18   A    
C32   H6    S    
C50   H41   S    
O10   C40   S    
C45   H32   S    
O17   C53   S    
Cu1   O3    S    
Cu2   O4    S    
C20   N3    A    
C39   H18   S    
C42   H25   S    
C43   H28   S    
C46   H34   S    
C46   O12   D    
C56   H52   S    
C22   C24   A    
C53   H46   S    
C3    C4    A    
C55   H51   S    
C26   H4    S    
C41   C42   S    
C40   C41   S    
C2    C36   A    
C15   C17   A    
N4    N5    D    
C18   O10   S    
C1    C7    S    
C31   O8    A    
C30   H8    S    
C16   N2    S    
C39   H17   S    
C55   H50   S    
Cu1   O5    S    
C58   H56   S    
C29   N6    A    
C48   H36   S    
C26   C28   A    
C49   C50   S    
C32   C33   A    
C53   C54   S    
C28   C30   A    
C2    C3    A    
C1    O2    A    
C9    O11   S    
C44   C45   S    
C58   H57   S    
C25   C47   S    
C54   H47   S    
Cu2   N3    S    
C16   C19   A    
C4    C5    A    
C41   H23   S    
C49   H39   S    
C37   H13   S    
C50   H42   S    
C14   C16   A    
C45   H31   S    
C52   O16   D    
C13   H1    S    
C20   H9    S    
C10   C11   A    
C12   O4    A    
C7    C13   A    
C42   H26   S    
C43   H27   S    
O9    C37   S    
C54   C55   S    
C56   H53   S    
C24   H5    S    
C14   C15   A    
C57   H54   S    
C53   H45   S    
Cu1   O1    S    
Cu2   O6    S    
