data_mof_unit_5125.cif
_audit_creation_date              2012-10-26T20:02:30-0400
_audit_creation_method            fapswitch 2.2
_symmetry_space_group_name_H-M    P1
_symmetry_Int_Tables_number       1
_space_group_crystal_system       triclinic
_cell_length_a                    18.970834
_cell_length_b                    18.608944
_cell_length_c                    12.399693
_cell_angle_alpha                 89.954183
_cell_angle_beta                  129.791794
_cell_angle_gamma                 90.030589
_cell_volume                      3363.50658229

loop_
_atom_site_label
_atom_site_type_symbol
_atom_type_description
_atom_site_fract_x
_atom_site_fract_y
_atom_site_fract_z
_atom_type_partial_charge
C1    C     C_R   0.606632 0.894643 0.645985 0.596792
C2    C     C_R   0.666738 0.740908 0.042511 0.001393
C3    C     C_R   0.161701 0.764875 0.032512 0.028179
C4    C     C_R   0.166758 0.240931 0.042545 0.001382
C5    C     C_R   0.586160 0.224409 0.925472 0.443092
C6    C     C_R   0.592978 0.784003 0.939655 0.451617
C7    C     C_R   0.086158 0.724416 0.925458 0.443118
C8    C     C_R   0.093002 0.284032 0.939700 0.451624
C9    C     C_R   0.581145 0.198769 0.815804 -0.042430
C10   C     C_R   0.583871 0.805910 0.824579 -0.022808
C11   C     C_R   0.081140 0.698776 0.815789 -0.042427
C12   C     C_R   0.607411 0.104998 0.646778 0.594400
C13   C     C_R   0.083880 0.305923 0.824604 -0.022783
C14   C     C_R   0.304035 0.825922 0.129873 -0.155293
C15   C     C_R   0.302484 0.172824 0.128528 -0.169471
C16   C     C_R   0.804036 0.325919 0.129878 -0.155280
C17   C     C_R   0.802491 0.672833 0.128538 -0.169491
C18   C     C_R   0.243981 0.829296 0.253229 0.424140
C19   C     C_R   0.250026 0.175891 0.262627 0.419458
C20   C     C_R   0.743972 0.329300 0.253226 0.424116
C21   C     C_R   0.749998 0.675862 0.262587 0.419472
C22   C     C_R   0.658490 0.172889 0.716555 -0.025231
C23   C     C_R   0.106631 0.394643 0.645985 0.596787
C24   C     C_R   0.655758 0.825927 0.714505 -0.026708
C25   C     C_R   0.158488 0.672891 0.716549 -0.025240
C26   C     C_R   0.155753 0.325925 0.714501 -0.026718
C27   C     C_R   0.678640 0.037919 0.286633 0.450803
C28   C     C_R   0.178619 0.537978 0.286614 0.450815
C29   C     C_R   0.343115 0.990920 0.624261 0.190863
C30   C     C_R   0.843116 0.490902 0.624261 0.190847
C31   C     C_R   0.306378 0.991220 0.691595 0.248135
C32   C     C_R   0.806375 0.491186 0.691592 0.248128
C33   C     C_R   0.384307 0.099146 0.342651 0.552396
C34   C     C_R   0.107411 0.604998 0.646776 0.594383
C35   C     C_R   0.383986 0.901008 0.342209 0.556111
C36   C     C_R   0.884306 0.599145 0.342649 0.552392
C37   C     C_R   0.883986 0.401008 0.342209 0.556109
C38   C     C_R   0.363419 0.999880 0.836538 -0.027421
C39   C     C_R   0.863412 0.499851 0.836532 -0.027418
C40   C     C_R   0.459066 0.008326 0.918067 -0.010066
C41   C     C_R   0.959059 0.508322 0.918061 -0.010037
C42   C     C_R   0.494553 0.009978 0.844241 0.119734
C43   C     C_R   0.994547 0.509986 0.844237 0.119765
C44   C     C_R   0.521421 0.014597 0.070063 -0.086162
C45   C     C_R   0.229110 0.784967 0.021416 -0.053514
C46   C     C_R   0.021413 0.514607 0.070056 -0.086148
C47   C     C_R   0.612352 0.037976 0.139447 -0.056103
C48   C     C_R   0.112331 0.538023 0.139428 -0.056084
C49   C     C_R   0.639145 0.055222 0.062009 0.458778
C50   C     C_R   0.139116 0.555289 0.061976 0.458783
C51   C     C_R   0.590582 0.027622 0.928013 0.253805
C52   C     C_R   0.090566 0.527653 0.928000 0.253807
C53   C     C_R   0.499798 0.998403 0.158624 0.489255
C54   C     C_R   0.999798 0.498395 0.158623 0.489290
C55   C     C_R   0.655040 0.015325 0.365837 0.390957
C56   C     C_R   0.229126 0.216154 0.023709 -0.063924
C57   C     C_R   0.155033 0.515353 0.365827 0.390952
C58   C     C_R   0.670349 0.286737 0.149255 0.492797
C59   C     C_R   0.678204 0.720792 0.162413 0.479917
C60   C     C_R   0.170359 0.786735 0.149255 0.492832
C61   C     C_R   0.178239 0.220830 0.162466 0.479919
C62   C     C_R   0.310640 0.850022 0.242987 -0.049436
C63   C     C_R   0.312113 0.151097 0.245405 -0.053785
C64   C     C_R   0.810638 0.350023 0.242987 -0.049439
C65   C     C_R   0.812107 0.651091 0.245396 -0.053781
C66   C     C_R   0.715196 0.201232 0.690395 0.439950
C67   C     C_R   0.729108 0.284966 0.021419 -0.053532
C68   C     C_R   0.708804 0.794842 0.683677 0.440915
C69   C     C_R   0.215190 0.701236 0.690383 0.439949
C70   C     C_R   0.208794 0.294836 0.683665 0.440911
C71   C     C_R   0.269913 0.760955 0.764180 0.316162
C72   C     C_R   0.260953 0.233646 0.754986 0.315819
C73   C     C_R   0.769919 0.260950 0.764192 0.316148
C74   C     C_R   0.760967 0.733653 0.755002 0.315820
C75   C     C_R   0.276299 0.788844 0.874350 -0.094545
C76   C     C_R   0.269023 0.207164 0.867521 -0.097027
C77   C     C_R   0.776298 0.288843 0.874354 -0.094553
C78   C     C_R   0.729126 0.716151 0.023704 -0.063931
C79   C     C_R   0.769038 0.707172 0.867539 -0.097030
C80   C     C_R   0.721189 0.261318 0.904818 -0.001159
C81   C     C_R   0.718357 0.737876 0.903647 -0.005136
C82   C     C_R   0.221190 0.761320 0.904814 -0.001154
C83   C     C_R   0.218350 0.237872 0.903641 -0.005132
C84   C     C_R   0.653310 0.209750 0.812241 -0.071984
C85   C     C_R   0.652186 0.790960 0.813657 -0.080164
C86   C     C_R   0.153309 0.709753 0.812234 -0.071981
C87   C     C_R   0.152184 0.290961 0.813659 -0.080155
C88   C     C_R   0.661697 0.264874 0.032517 0.028103
Cl1   Cl    Cl    0.187584 0.981531 0.593263 -0.419042
Cl2   Cl    Cl    0.242102 0.506566 0.548356 -0.279615
Cl3   Cl    Cl    0.687582 0.481468 0.593257 -0.419028
Cl4   Cl    Cl    0.672929 0.993982 0.918056 -0.434812
Cl5   Cl    Cl    0.172917 0.493963 0.918096 -0.434851
Cl6   Cl    Cl    0.331033 0.801143 0.717956 -0.357341
Cl7   Cl    Cl    0.316799 0.189572 0.703043 -0.357581
Cl8   Cl    Cl    0.831050 0.301131 0.717981 -0.357395
Cl9   Cl    Cl    0.816810 0.689577 0.703056 -0.357616
Cl10  Cl    Cl    0.742100 0.006545 0.548369 -0.279608
Cu1   Cu    Cu3+1 0.526340 0.000000 0.421010 1.207263
Cu2   Cu    Cu3+1 0.026340 0.500000 0.421010 1.207261
Cu3   Cu    Cu3+1 0.473640 0.000000 0.578990 1.090065
Cu4   Cu    Cu3+1 0.973640 0.500000 0.578990 1.090066
F1    F     F_    0.248855 0.850795 0.362469 -0.526663
F2    F     F_    0.913937 0.480325 0.105015 -0.641642
F3    F     F_    0.517463 0.207906 0.927683 -0.549347
F4    F     F_    0.529837 0.806423 0.950787 -0.534580
F5    F     F_    0.017455 0.707920 0.927659 -0.549360
F6    F     F_    0.029880 0.306475 0.950863 -0.534588
F7    F     F_    0.607360 0.267597 0.163073 -0.483530
F8    F     F_    0.619617 0.743823 0.182913 -0.473285
F9    F     F_    0.107375 0.767592 0.163076 -0.483554
F10   F     F_    0.119673 0.243885 0.182999 -0.473263
F11   F     F_    0.716179 0.172513 0.590714 -0.511525
F12   F     F_    0.257851 0.156442 0.375475 -0.513867
F13   F     F_    0.708530 0.822386 0.581913 -0.506588
F14   F     F_    0.216167 0.672521 0.590695 -0.511519
F15   F     F_    0.208519 0.322379 0.581901 -0.506562
F16   F     F_    0.748840 0.350803 0.362461 -0.526668
F17   F     F_    0.757806 0.656396 0.375412 -0.513880
F18   F     F_    0.722802 0.085778 0.125908 -0.502876
F19   F     F_    0.222763 0.585886 0.125852 -0.502930
F20   F     F_    0.767684 0.055454 0.354215 -0.466874
F21   F     F_    0.267650 0.555551 0.354188 -0.466878
F22   F     F_    0.413926 0.980354 0.105016 -0.641631
H1    H     H_    0.298124 0.984718 0.511519 0.212768
H2    H     H_    0.311832 0.160412 0.920190 0.155169
H3    H     H_    0.821154 0.334384 0.929299 0.181162
H4    H     H_    0.811851 0.660422 0.920215 0.155172
H5    H     H_    0.517917 0.172533 0.731875 0.191547
H6    H     H_    0.520266 0.832374 0.742728 0.200636
H7    H     H_    0.017908 0.672544 0.731852 0.191528
H8    H     H_    0.020275 0.332388 0.742761 0.200636
H9    H     H_    0.798127 0.484694 0.511521 0.212795
H10   H     H_    0.329695 0.003099 0.880326 0.212677
H11   H     H_    0.829683 0.503054 0.880317 0.212680
H12   H     H_    0.359164 0.838774 0.129281 0.206355
H13   H     H_    0.354143 0.156261 0.122227 0.184319
H14   H     H_    0.859173 0.338766 0.129292 0.206370
H15   H     H_    0.854166 0.656291 0.122262 0.184306
H16   H     H_    0.321158 0.834385 0.929298 0.181151
N1    N     N_R   0.566260 0.000000 0.302220 -0.265208
N2    N     N_R   0.066260 0.500000 0.302220 -0.265190
N3    N     N_R   0.434410 0.000000 0.697680 -0.275195
N4    N     N_R   0.934410 0.500000 0.697680 -0.275198
O1    O     O_R   0.608610 0.924520 0.551740 -0.400164
O2    O     O_R   0.435880 0.924530 0.314850 -0.453853
O3    O     O_R   0.935880 0.575470 0.314850 -0.493844
O4    O     O_R   0.935880 0.424530 0.314850 -0.453835
O5    O     O_R   0.391380 0.075460 0.448260 -0.463058
O6    O     O_R   0.391380 0.924540 0.448260 -0.478697
O7    O     O_R   0.891380 0.575460 0.448260 -0.463041
O8    O     O_R   0.891380 0.424540 0.448260 -0.478716
O9    O     O_R   0.608610 0.075480 0.551740 -0.412050
O10   O     O_R   0.108610 0.424520 0.551740 -0.400158
O11   O     O_R   0.108610 0.575480 0.551740 -0.412061
O12   O     O_R   0.564110 0.924510 0.685150 -0.495994
O13   O     O_R   0.564110 0.075490 0.685150 -0.507803
O14   O     O_R   0.064110 0.424510 0.685150 -0.495989
O15   O     O_R   0.064110 0.575490 0.685150 -0.507810
O16   O     O_R   0.435880 0.075470 0.314850 -0.493808

loop_
_geom_bond_atom_site_label_1
_geom_bond_atom_site_label_2
_ccdc_geom_bond_type
C83   C87   A    
C79   H4    S    
C10   C85   A    
C8    C13   A    
C55   N1    A    
C66   F11   S    
C29   H1    S    
C58   F7    S    
C76   H2    S    
C1    O1    A    
C45   C82   A    
C75   C82   A    
C12   O9    A    
C80   C84   A    
Cu4   O14   S    
C20   F16   S    
C28   F21   S    
C39   C41   A    
C71   Cl6   S    
C39   H11   S    
C28   C57   A    
C7    C11   A    
C67   C88   A    
C57   N2    A    
C54   F2    S    
C38   C40   A    
C19   C61   A    
C21   C59   A    
C3    C7    A    
C75   H16   S    
C27   C55   A    
C43   C52   A    
C32   C39   A    
C32   Cl3   S    
C70   F15   S    
C27   C47   A    
C29   N3    A    
C23   O14   A    
C12   C22   S    
Cu3   O6    S    
C59   F8    S    
C30   N4    A    
C23   C26   S    
C69   C71   A    
C22   C66   A    
C5    C88   A    
C44   C53   A    
C19   C63   A    
C26   C87   A    
C49   C51   A    
C50   C52   A    
C41   C46   A    
C35   O6    A    
C12   O13   A    
C14   C45   A    
C24   C85   A    
C77   H3    S    
C44   C47   A    
C4    C8    A    
C42   C51   A    
C3    C60   A    
C40   C42   A    
Cu1   O1    S    
Cu3   O13   S    
Cu1   O16   S    
C4    C56   A    
C41   C43   A    
C13   C87   A    
C43   N4    A    
C2    C6    A    
C50   F19   S    
Cu4   N4    S    
C34   O11   A    
C8    F6    S    
C76   C83   A    
C27   F20   S    
C74   Cl9   S    
C46   C48   A    
C71   C75   A    
C57   Cl2   S    
C72   Cl7   S    
C47   C49   A    
C79   C81   A    
C2    C59   A    
C18   C62   A    
C5    F3    S    
C9    C84   A    
C19   F12   S    
C31   Cl1   S    
C82   C86   A    
C66   C73   A    
C4    C61   A    
C3    C45   A    
C58   C88   A    
C35   O2    A    
C22   C84   A    
C20   C64   A    
C1    O12   A    
C10   H6    S    
C5    C9    A    
C2    C78   A    
C51   Cl4   S    
C36   O3    A    
C54   N2    A    
C33   C63   S    
C30   H9    S    
C46   C54   A    
Cu2   Cu4   S    
C6    F4    S    
C52   Cl5   S    
C17   H15   S    
C16   C67   A    
C48   C50   A    
Cu2   O11   S    
C18   C60   A    
Cu1   Cu3   S    
Cu1   O2    S    
C74   C79   A    
C26   C70   A    
C7    F5    S    
C25   C69   A    
C37   O8    A    
C20   C58   A    
C37   C64   S    
C56   C83   A    
C77   C80   A    
Cu2   O10   S    
C28   C48   A    
C73   C77   A    
C21   C65   A    
C36   C65   S    
Cu1   N1    S    
C16   H14   S    
C67   C80   A    
C69   F14   S    
C53   F22   S    
C11   H7    S    
Cu4   O15   S    
C6    C10   A    
C70   C72   A    
Cu2   O3    S    
C33   O16   A    
C36   O7    A    
C9    H5    S    
C16   C64   A    
Cu4   O7    S    
C17   C65   A    
Cu3   O12   S    
C31   C38   A    
C15   C56   A    
C21   F17   S    
C60   F9    S    
C33   O5    A    
C34   O15   A    
C30   C32   A    
Cu3   N3    S    
C78   C81   A    
C25   C86   A    
C14   H12   S    
Cu2   O4    S    
C72   C76   A    
Cu1   O9    S    
C55   Cl10  S    
Cu3   O5    S    
C17   C78   A    
C13   H8    S    
C35   C62   S    
C53   N1    A    
C18   F1    S    
C38   H10   S    
C37   O4    A    
C81   C85   A    
C24   C68   A    
C68   F13   S    
C49   F18   S    
C40   C44   A    
C1    C24   S    
C29   C31   A    
C23   O10   A    
C42   N3    A    
C15   C63   A    
Cu2   N2    S    
C11   C86   A    
C73   Cl8   S    
C61   F10   S    
C68   C74   A    
C25   C34   S    
Cu4   O8    S    
C15   H13   S    
C14   C62   A    
