data_mof_unit_47550.cif
_audit_creation_date              2012-12-10T19:42:55-0500
_audit_creation_method            fapswitch 2.2
_symmetry_space_group_name_H-M    P1
_symmetry_Int_Tables_number       1
_space_group_crystal_system       triclinic
_cell_length_a                    10.873925
_cell_length_b                    13.009612
_cell_length_c                    11.651295
_cell_angle_alpha                 99.974421
_cell_angle_beta                  94.555333
_cell_angle_gamma                 90.686904
_cell_volume                      1617.65923453

loop_
_atom_site_label
_atom_site_type_symbol
_atom_type_description
_atom_site_fract_x
_atom_site_fract_y
_atom_site_fract_z
_atom_type_partial_charge
C1    C     C_R   0.497638 0.298966 0.478453 0.860335
C2    C     C_R   0.500683 0.701014 0.521506 0.851865
C3    C     C_R   0.871918 0.497848 0.502670 -0.055078
C4    C     C_R   0.127954 0.500576 0.496983 -0.056761
C5    C     C_R   0.947974 0.484595 0.603321 0.044667
C6    C     C_R   0.051771 0.512751 0.395970 0.045215
C7    C     C_R   0.495183 0.814276 0.533996 -0.058037
C8    C     C_R   0.491707 0.185511 0.465541 -0.054183
C9    C     C_R   0.474457 0.015288 0.340975 0.015743
C10   C     C_R   0.482592 0.983861 0.656803 0.018567
C11   C     C_R   0.482061 0.123674 0.354390 -0.248396
C12   C     C_R   0.490924 0.875819 0.644383 -0.244143
C13   C     C_R   0.492150 0.139429 0.565031 -0.165571
C14   C     C_R   0.489622 0.860233 0.434201 -0.157561
C15   C     C_R   0.482984 0.031158 0.555687 0.120320
C16   C     C_R   0.480281 0.968096 0.442443 0.127906
C17   C     C_R   0.426888 0.376098 0.019151 -0.312885
C18   C     C_R   0.572835 0.624027 0.980852 -0.298724
C19   C     C_R   0.427447 0.391419 0.141652 0.103666
C20   C     C_R   0.572442 0.608632 0.858353 0.109612
C21   C     C_R   0.525370 0.557479 0.158479 0.035131
C22   C     C_R   0.474520 0.442562 0.841517 0.024772
C23   C     C_R   0.261948 0.500564 0.499161 0.841042
C24   C     C_R   0.738003 0.498897 0.500751 0.838518
C25   C     C_R   0.524638 0.546116 0.035234 0.040843
C26   C     C_R   0.475198 0.453952 0.964762 0.033218
C27   C     C_R   0.191019 0.636780 0.163420 -0.086468
C28   C     C_R   0.805651 0.354389 0.829624 -0.112905
C29   C     C_R   0.150946 0.622583 0.270377 0.417215
C30   C     C_R   0.847115 0.371271 0.724140 0.422300
C31   C     C_R   0.099228 0.525544 0.282582 -0.079369
C32   C     C_R   0.899969 0.468897 0.715556 -0.073010
C33   C     C_R   0.085776 0.442917 0.184648 -0.088096
C34   C     C_R   0.913002 0.549423 0.815589 -0.091085
C35   C     C_R   0.128680 0.458479 0.076403 -0.011867
C36   C     C_R   0.868995 0.531082 0.922421 0.001497
C37   C     C_R   0.180130 0.555860 0.067732 -0.269174
C38   C     C_R   0.816572 0.433149 0.927500 -0.263929
C39   C     C_R   0.924860 0.511777 0.400779 -0.211893
C40   C     C_R   0.074979 0.486279 0.598797 -0.208509
Cu1   Cu    Cu3+1 0.509250 0.507730 0.615930 0.967639
Cu2   Cu    Cu3+1 0.490750 0.492270 0.384070 0.967763
H1    H     H_    0.214016 0.568968 0.986338 0.184744
H2    H     H_    0.781802 0.417963 0.007738 0.181611
H3    H     H_    0.433242 0.373021 0.786933 0.146162
H4    H     H_    0.566621 0.627028 0.213062 0.128043
H5    H     H_    0.610814 0.669274 0.818108 0.133047
H6    H     H_    0.388983 0.330815 0.181891 0.137830
H7    H     H_    0.388428 0.304006 0.967463 0.208681
H8    H     H_    0.611038 0.696237 0.032573 0.176085
H9    H     H_    0.230992 0.711135 0.154113 0.228657
H10   H     H_    0.764390 0.279630 0.835974 0.182635
H11   H     H_    0.867244 0.522464 0.323573 0.156097
H12   H     H_    0.132602 0.475389 0.675926 0.157799
H13   H     H_    0.496885 0.810971 0.350541 0.188981
H14   H     H_    0.503734 0.189021 0.649781 0.192556
H15   H     H_    0.491756 0.839374 0.721399 0.154475
H16   H     H_    0.478898 0.160034 0.277218 0.152517
N1    N     N_R   0.523180 0.519350 0.790130 -0.187875
N2    N     N_R   0.476820 0.480650 0.209870 -0.186706
O1    O     O_R   0.506570 0.354460 0.582000 -0.591832
O2    O     O_R   0.493430 0.645540 0.418000 -0.589716
O3    O     O_R   0.490940 0.341410 0.386200 -0.601046
O4    O     O_R   0.509060 0.658590 0.613800 -0.600884
O5    O     O_R   0.327460 0.506540 0.597900 -0.585876
O6    O     O_R   0.672540 0.493460 0.402100 -0.588113
O7    O     O_R   0.311830 0.493480 0.402100 -0.582615
O8    O     O_R   0.688170 0.506520 0.597900 -0.584015
Cl1   Cl    Cl    0.165209 0.728856 0.387450 -0.587014
Cl2   Cl    Cl    0.832912 0.267573 0.604194 -0.620129
C41   C     C_2   0.024320 0.343392 0.197654 0.452748
H17   H     H_    0.040658 0.313051 0.278469 0.084414
O9    O     O_2   0.949792 0.297653 0.121491 -0.501770
C42   C     C_2   0.974485 0.649869 0.805876 0.450756
H18   H     H_    0.958409 0.682245 0.726347 0.079719
O10   O     O_2   0.048719 0.694201 0.883208 -0.491910
C43   C     C_2   0.126192 0.376019 0.970632 0.440865
H19   H     H_    0.129137 0.398189 0.885206 0.049996
O11   O     O_2   0.127664 0.283443 0.977209 -0.478275
C44   C     C_2   0.871133 0.611147 0.030314 0.426040
H20   H     H_    0.866299 0.586621 0.114336 0.046015
O12   O     O_2   0.871553 0.704381 0.027031 -0.498491
C45   C     C_2   0.458502 0.956791 0.219133 0.363241
H21   H     H_    0.497766 0.988839 0.149652 0.080906
O13   O     O_2   0.395225 0.876761 0.193460 -0.543678
C46   C     C_2   0.470861 0.041903 0.776854 0.365892
H22   H     H_    0.513749 0.012146 0.851435 0.077821
O14   O     O_2   0.407063 0.118705 0.794538 -0.548577

loop_
_geom_bond_atom_site_label_1
_geom_bond_atom_site_label_2
_ccdc_geom_bond_type
C8    C13   A    
C27   C29   A    
C1    C8    S    
Cu1   Cu2   S    
C2    C7    S    
Cu1   O1    S    
C43   H19   S    
C42   O10   D    
C17   C26   A    
C35   C37   A    
C9    C16   A    
C10   C15   A    
C46   O14   D    
C15   C16   A    
C23   O7    A    
C33   C35   A    
C7    C14   A    
C4    C40   A    
C2    O4    A    
C31   C33   A    
C11   H16   S    
Cu2   O2    S    
C18   C20   A    
C24   O6    A    
C5    C32   S    
C6    C31   S    
C3    C39   A    
C3    C24   S    
C18   C25   A    
C1    O3    A    
C30   Cl2   S    
C27   H9    S    
Cu1   O8    S    
C29   Cl1   S    
C43   O11   D    
C7    C12   A    
C42   H18   S    
Cu1   N1    S    
C21   N2    A    
C4    C6    A    
C36   C44   S    
Cu2   N2    S    
C22   N1    A    
C41   O9    D    
C4    C23   S    
C24   O8    A    
C46   H22   S    
Cu1   O5    S    
C25   C26   A    
C35   C43   S    
C32   C34   A    
C37   H1    S    
C38   H2    S    
C45   H21   S    
C28   C38   A    
C20   N1    A    
C9    C11   A    
C10   C12   A    
C9    C45   S    
C12   H15   S    
C44   O12   D    
C45   O13   D    
C34   C42   S    
C40   H12   S    
C13   C15   A    
Cu2   O7    S    
C14   C16   A    
C17   H7    S    
C18   H8    S    
C21   H4    S    
C21   C25   A    
C10   C46   S    
C19   H6    S    
C44   H20   S    
C3    C5    A    
C1    O1    A    
C19   N2    A    
C13   H14   S    
C36   C38   A    
C41   H17   S    
C29   C31   A    
C30   C32   A    
C28   H10   S    
C23   O5    A    
C39   H11   S    
C27   C37   A    
C8    C11   A    
C28   C30   A    
C17   C19   A    
C14   H13   S    
C34   C36   A    
C20   H5    S    
C33   C41   S    
C22   H3    S    
C22   C26   A    
C5    C40   A    
Cu2   O6    S    
C6    C39   A    
Cu1   O4    S    
Cu2   O3    S    
C2    O2    A    
