data_mof_unit_63665.cif
_audit_creation_date              2012-12-10T20:19:12-0500
_audit_creation_method            fapswitch 2.2
_symmetry_space_group_name_H-M    P1
_symmetry_Int_Tables_number       1
_space_group_crystal_system       triclinic
_cell_length_a                    41.643803
_cell_length_b                    35.485464
_cell_length_c                    21.489868
_cell_angle_alpha                 90.02837
_cell_angle_beta                  58.496135
_cell_angle_gamma                 90.056243
_cell_volume                      27075.8589338

loop_
_atom_site_label
_atom_site_type_symbol
_atom_type_description
_atom_site_fract_x
_atom_site_fract_y
_atom_site_fract_z
_atom_type_partial_charge
C1    C     C_R   0.926526 0.499972 0.573426 0.861218
C2    C     C_R   0.326417 0.499605 0.118777 -0.163240
C3    C     C_R   0.000013 0.807193 0.000625 -0.000693
C4    C     C_1   0.500486 0.266947 0.000247 -0.056120
C5    C     C_1   0.000485 0.766947 0.000247 -0.056120
C6    C     C_1   0.000589 0.733279 0.000124 -0.080092
C7    C     C_1   0.500589 0.233279 0.000123 -0.080091
C8    C     C_R   0.034550 0.673684 0.965175 -0.167222
C9    C     C_R   0.966215 0.673876 0.035031 -0.167035
C10   C     C_R   0.534550 0.173684 0.965174 -0.167221
C11   C     C_R   0.466215 0.173876 0.035030 -0.167034
C12   C     C_R   0.034440 0.634479 0.965088 -0.203978
C13   C     C_R   0.173581 0.999318 0.881242 -0.162156
C14   C     C_R   0.966009 0.634665 0.035005 -0.203644
C15   C     C_R   0.534440 0.134479 0.965088 -0.203978
C16   C     C_R   0.466009 0.134665 0.035004 -0.203641
C17   C     C_R   0.000145 0.614677 0.000018 -0.041529
C18   C     C_R   0.500145 0.114677 0.000018 -0.041534
C19   C     C_3   0.027485 0.530506 0.186492 -0.439694
C20   C     C_3   0.974612 0.532173 0.811808 -0.438252
C21   C     C_3   0.527505 0.030489 0.186474 -0.439659
C22   C     C_3   0.474674 0.032217 0.811753 -0.438335
C23   C     C_R   0.000462 0.693239 0.000134 0.163374
C24   C     C_R   0.826417 0.999608 0.118776 -0.163239
C25   C     C_R   0.500462 0.193239 0.000134 0.163373
C26   C     C_R   0.499892 0.673727 0.056647 -0.163170
C27   C     C_R   0.499906 0.673717 0.943716 -0.163045
C28   C     C_R   0.999893 0.173726 0.056647 -0.163167
C29   C     C_R   0.999906 0.173717 0.943716 -0.163048
C30   C     C_R   0.499935 0.634536 0.056662 -0.196861
C31   C     C_R   0.499949 0.634528 0.943565 -0.197005
C32   C     C_R   0.999936 0.134536 0.056662 -0.196862
C33   C     C_R   0.999949 0.134528 0.943565 -0.197003
C34   C     C_R   0.499965 0.614646 0.000079 -0.038538
C35   C     C_R   0.634414 0.499754 0.921032 -0.197935
C36   C     C_R   0.999965 0.114646 0.000079 -0.038538
C37   C     C_R   0.499877 0.693159 0.000215 0.160629
C38   C     C_R   0.999878 0.193159 0.000215 0.160628
C39   C     C_1   0.499857 0.733165 0.000252 -0.067117
C40   C     C_1   0.999858 0.233165 0.000252 -0.067118
C41   C     C_1   0.999859 0.266809 0.000249 -0.065371
C42   C     C_1   0.499859 0.766809 0.000249 -0.065371
C43   C     C_R   0.034067 0.326251 0.964388 -0.159810
C44   C     C_R   0.965734 0.326249 0.035963 -0.159483
C45   C     C_R   0.534066 0.826251 0.964393 -0.159808
C46   C     C_R   0.365585 0.499983 0.078980 -0.198215
C47   C     C_R   0.465733 0.826249 0.035958 -0.159476
C48   C     C_R   0.034146 0.365437 0.964293 -0.183725
C49   C     C_R   0.965718 0.365436 0.035939 -0.180648
C50   C     C_R   0.534146 0.865437 0.964298 -0.183778
C51   C     C_R   0.465718 0.865436 0.035934 -0.180595
C52   C     C_R   0.999949 0.385301 0.000087 -0.030670
C53   C     C_R   0.499949 0.885301 0.000087 -0.030644
C54   C     C_3   0.012236 0.460395 0.272081 -0.407012
C55   C     C_3   0.984605 0.461268 0.730845 -0.413223
C56   C     C_3   0.512209 0.960388 0.272107 -0.406992
C57   C     C_R   0.134414 0.999752 0.921033 -0.197935
C58   C     C_3   0.484515 0.961299 0.730931 -0.413319
C59   C     C_R   0.999885 0.306814 0.000206 0.158637
C60   C     C_R   0.499885 0.806814 0.000206 0.158642
C61   C     C_3   0.960163 0.510881 0.327304 -0.073723
C62   C     C_3   0.040010 0.507539 0.671959 -0.073053
C63   C     C_3   0.460168 0.010908 0.327298 -0.073711
C64   C     C_3   0.540022 0.007447 0.671943 -0.073043
C65   C     C_3   0.000304 0.499700 0.310158 0.114174
C66   C     C_3   0.999170 0.499707 0.690366 0.142544
C67   C     C_3   0.500302 0.999700 0.310160 0.114169
C68   C     C_R   0.865585 0.999986 0.078979 -0.198215
C69   C     C_3   0.499164 0.999706 0.690371 0.142549
C70   C     C_3   0.999491 0.500381 0.190066 0.086368
C71   C     C_3   0.000410 0.500098 0.810002 0.108254
C72   C     C_3   0.499490 0.000384 0.190066 0.086376
C73   C     C_3   0.500409 0.000089 0.810003 0.108242
C74   C     C_3   0.012306 0.460850 0.200338 -0.150237
C75   C     C_3   0.984662 0.461629 0.802493 -0.148449
C76   C     C_3   0.512278 0.960843 0.200365 -0.150255
C77   C     C_3   0.484582 0.961653 0.802568 -0.148372
C78   C     C_1   0.988687 0.429998 0.199199 0.134968
C79   C     C_R   0.614511 0.499467 0.884681 -0.039031
C80   C     C_1   0.005985 0.429142 0.805758 0.129848
C81   C     C_1   0.488636 0.930008 0.199250 0.135004
C82   C     C_1   0.505845 0.929123 0.805881 0.129761
C83   C     C_1   0.806723 0.570171 0.691775 0.143909
C84   C     C_1   0.193335 0.570329 0.308211 0.142568
C85   C     C_1   0.306723 0.070171 0.691769 0.143912
C86   C     C_1   0.693335 0.070329 0.308192 0.142567
C87   C     C_R   0.385492 0.499468 0.115319 -0.038693
C88   C     C_R   0.114511 0.999467 0.884681 -0.039031
C89   C     C_R   0.073474 0.499999 0.426713 0.894620
C90   C     C_R   0.885492 0.999468 0.115318 -0.038692
C91   C     C_R   0.634361 0.498604 0.808025 -0.195800
C92   C     C_R   0.365646 0.498407 0.191963 -0.198993
C93   C     C_R   0.134361 0.998606 0.808025 -0.195800
C94   C     C_R   0.865646 0.998405 0.191963 -0.198996
C95   C     C_R   0.673533 0.498167 0.768394 -0.162759
C96   C     C_R   0.326472 0.498026 0.231601 -0.161237
C97   C     C_R   0.173533 0.998170 0.768394 -0.162757
C98   C     C_R   0.826472 0.998023 0.231601 -0.161241
C99   C     C_R   0.692989 0.498561 0.805121 0.159868
C100  C     C_R   0.426526 0.999972 0.573426 0.861198
C101  C     C_R   0.307012 0.498671 0.194890 0.160074
C102  C     C_R   0.192989 0.998561 0.805121 0.159868
C103  C     C_R   0.807012 0.998670 0.194889 0.160075
C104  C     C_1   0.732982 0.498702 0.764638 -0.060198
C105  C     C_1   0.267020 0.498866 0.235384 -0.060974
C106  C     C_1   0.232982 0.998702 0.764638 -0.060197
C107  C     C_1   0.767019 0.998865 0.235383 -0.060976
C108  C     C_1   0.766613 0.499149 0.730869 -0.052716
C109  C     C_1   0.233390 0.499332 0.269166 -0.053227
C110  C     C_1   0.266613 0.999149 0.730868 -0.052715
C111  C     C_R   0.573474 0.999999 0.426713 0.894600
C112  C     C_1   0.733390 0.999332 0.269165 -0.053229
C113  C     C_R   0.826283 0.465923 0.671300 -0.181142
C114  C     C_R   0.173696 0.466065 0.328797 -0.185623
C115  C     C_R   0.326283 0.965923 0.671303 -0.181145
C116  C     C_R   0.673696 0.966065 0.328803 -0.185633
C117  C     C_R   0.001109 0.499889 0.377408 0.843441
C118  C     C_R   0.998560 0.499910 0.622900 0.885716
C119  C     C_R   0.501107 0.999889 0.377411 0.843442
C120  C     C_R   0.498554 0.999911 0.622906 0.885653
C121  C     C_R   0.865415 0.465855 0.632925 -0.200835
C122  C     C_3   0.959526 0.509724 0.256366 -0.356448
C123  C     C_R   0.134566 0.465958 0.367201 -0.197608
C124  C     C_R   0.365414 0.965855 0.632928 -0.200833
C125  C     C_R   0.634566 0.965958 0.367208 -0.197604
C126  C     C_R   0.885313 0.500026 0.613911 -0.059286
C127  C     C_R   0.114688 0.500108 0.386212 -0.058770
C128  C     C_R   0.385313 0.000026 0.613911 -0.059282
C129  C     C_R   0.614688 0.000108 0.386211 -0.058791
C130  C     C_R   0.865566 0.534299 0.633598 -0.241505
C131  C     C_R   0.134460 0.534401 0.366475 -0.247620
C132  C     C_R   0.365566 0.034299 0.633594 -0.241504
C133  C     C_3   0.040882 0.506598 0.742856 -0.415410
C134  C     C_R   0.634460 0.034401 0.366466 -0.247633
C135  C     C_R   0.826304 0.534492 0.672101 0.034253
C136  C     C_R   0.173725 0.534633 0.327937 0.034172
C137  C     C_R   0.326304 0.034492 0.672098 0.034253
C138  C     C_R   0.673725 0.034633 0.327927 0.034178
C139  C     C_R   0.806731 0.500052 0.690940 0.106061
C140  C     C_R   0.193273 0.500212 0.309115 0.105341
C141  C     C_R   0.306731 0.000052 0.690939 0.106062
C142  C     C_R   0.693273 0.000212 0.309113 0.105343
C143  C     C_R   0.000026 0.573409 0.999993 0.858977
C144  C     C_3   0.459532 0.009755 0.256359 -0.356472
C145  C     C_R   0.500026 0.073409 0.999993 0.858993
C146  C     C_R   0.999789 0.501118 0.121644 0.858182
C147  C     C_R   0.000215 0.500812 0.878332 0.859793
C148  C     C_R   0.499789 0.001121 0.121644 0.858166
C149  C     C_R   0.500216 0.000803 0.878331 0.859817
C150  C     C_R   0.999985 0.426514 0.000025 0.894211
C151  C     C_R   0.499985 0.926514 0.000025 0.894201
C152  C     C_R   0.499477 0.426935 0.000509 0.913176
C153  C     C_R   0.999477 0.926935 0.000509 0.913176
C154  C     C_R   0.573281 0.499941 0.926477 0.877325
C155  C     C_3   0.540893 0.006510 0.742841 -0.415370
C156  C     C_R   0.426719 0.499940 0.073522 0.850711
C157  C     C_R   0.073281 0.999941 0.926477 0.877325
C158  C     C_R   0.926719 0.999940 0.073522 0.850710
C159  C     C_3   0.028881 0.529268 0.256448 -0.440926
C160  C     C_3   0.972988 0.531254 0.742087 -0.457448
C161  C     C_3   0.528899 0.029250 0.256434 -0.440955
C162  C     C_3   0.473052 0.031310 0.742030 -0.457323
C163  C     C_R   0.499996 0.573397 0.000018 0.870216
C164  C     C_R   0.999996 0.073397 0.000018 0.870216
C165  C     C_R   0.529609 0.327122 0.942270 0.065189
C166  C     C_R   0.673581 0.499321 0.881242 -0.162155
C167  C     C_R   0.469672 0.326362 0.059075 0.101537
C168  C     C_R   0.029609 0.827122 0.942270 0.065188
C169  C     C_R   0.969672 0.826362 0.059075 0.101536
C170  C     C_R   0.528992 0.366564 0.942654 0.064697
C171  C     C_R   0.468579 0.365809 0.059300 0.062591
C172  C     C_R   0.028992 0.866564 0.942654 0.064696
C173  C     C_R   0.968579 0.865809 0.059301 0.062592
C174  C     C_R   0.498783 0.385889 0.001108 -0.151314
C175  C     C_R   0.998783 0.885889 0.001108 -0.151315
C176  C     C_R   0.500013 0.307193 0.000624 -0.000694
H1    H     H_    0.057885 0.522016 0.242721 0.171227
H2    H     H_    0.001773 0.437536 0.694982 0.192119
H3    H     H_    0.950545 0.789325 0.142880 0.194257
H4    H     H_    0.584413 0.379787 0.881482 0.197130
H5    H     H_    0.561593 0.379503 0.835331 0.204580
H6    H     H_    0.412568 0.375902 0.116796 0.190815
H7    H     H_    0.437283 0.413558 0.112685 0.179368
H8    H     H_    0.084413 0.879787 0.881481 0.197130
H9    H     H_    0.061593 0.879503 0.835331 0.204581
H10   H     H_    0.912568 0.875902 0.116796 0.190814
H11   H     H_    0.937283 0.913558 0.112685 0.179367
H12   H     H_    0.934809 0.458855 0.369299 0.204266
H13   H     H_    0.493711 0.937679 0.309282 0.182753
H14   H     H_    0.928106 0.490982 0.433333 0.186549
H15   H     H_    0.064079 0.454380 0.640475 0.204087
H16   H     H_    0.094383 0.490362 0.600731 0.185898
H17   H     H_    0.434781 0.958896 0.369312 0.204261
H18   H     H_    0.428100 0.991022 0.433333 0.186533
H19   H     H_    0.563971 0.954233 0.640593 0.204117
H20   H     H_    0.594356 0.990145 0.600755 0.185871
H21   H     H_    0.501626 0.937527 0.695115 0.192152
H22   H     H_    0.688709 0.499686 0.909721 0.135788
H23   H     H_    0.311287 0.500155 0.090310 0.135642
H24   H     H_    0.188709 0.999682 0.909721 0.135789
H25   H     H_    0.811286 0.000160 0.090309 0.135643
H26   H     H_    0.619792 0.500387 0.980051 0.159201
H27   H     H_    0.380206 0.500768 0.019968 0.158961
H28   H     H_    0.119791 0.000382 0.980051 0.159201
H29   H     H_    0.943495 0.526211 0.756399 0.172108
H30   H     H_    0.880206 0.000773 0.019968 0.158961
H31   H     H_    0.619692 0.498305 0.778699 0.159227
H32   H     H_    0.380318 0.497916 0.221275 0.160443
H33   H     H_    0.119692 0.998309 0.778699 0.159227
H34   H     H_    0.880318 0.997911 0.221275 0.160443
H35   H     H_    0.688621 0.497629 0.709287 0.136560
H36   H     H_    0.311387 0.497339 0.290703 0.136164
H37   H     H_    0.188621 0.997634 0.709286 0.136561
H38   H     H_    0.811387 0.997334 0.290702 0.136163
H39   H     H_    0.811242 0.439333 0.685794 0.142129
H40   H     H_    0.557897 0.021980 0.242715 0.171223
H41   H     H_    0.188717 0.439489 0.314314 0.142551
H42   H     H_    0.311242 0.939333 0.685799 0.142130
H43   H     H_    0.688717 0.939489 0.314327 0.142551
H44   H     H_    0.880039 0.439085 0.618225 0.160139
H45   H     H_    0.119926 0.439171 0.381924 0.160599
H46   H     H_    0.380039 0.939085 0.618231 0.160140
H47   H     H_    0.619926 0.939171 0.381937 0.160606
H48   H     H_    0.880639 0.560880 0.619116 0.162720
H49   H     H_    0.119404 0.560967 0.380943 0.162528
H50   H     H_    0.380639 0.060880 0.619110 0.162721
H51   H     H_    0.443548 0.026336 0.756347 0.172124
H52   H     H_    0.619404 0.060967 0.380927 0.162529
H53   H     H_    0.022348 0.557854 0.281471 0.190837
H54   H     H_    0.981674 0.559317 0.715123 0.192578
H55   H     H_    0.522382 0.057840 0.281439 0.190834
H56   H     H_    0.481804 0.059355 0.715011 0.192589
H57   H     H_    0.061130 0.688723 0.938060 0.131561
H58   H     H_    0.939751 0.689074 0.062165 0.131431
H59   H     H_    0.561130 0.188723 0.938059 0.131560
H60   H     H_    0.439752 0.189074 0.062165 0.131432
H61   H     H_    0.061132 0.619735 0.937725 0.156771
H62   H     H_    0.938704 0.488533 0.260773 0.201850
H63   H     H_    0.939213 0.620065 0.062323 0.156972
H64   H     H_    0.561132 0.119735 0.937724 0.156771
H65   H     H_    0.439212 0.120065 0.062323 0.156972
H66   H     H_    0.499874 0.688848 0.100493 0.136116
H67   H     H_    0.499898 0.688832 0.899913 0.136199
H68   H     H_    0.999874 0.188848 0.100493 0.136117
H69   H     H_    0.999898 0.188832 0.899913 0.136197
H70   H     H_    0.499945 0.619886 0.100847 0.158693
H71   H     H_    0.499969 0.619872 0.899332 0.158585
H72   H     H_    0.999946 0.119886 0.100846 0.158694
H73   H     H_    0.060282 0.484246 0.740205 0.189344
H74   H     H_    0.999969 0.119872 0.899332 0.158583
H75   H     H_    0.060570 0.311136 0.936620 0.135773
H76   H     H_    0.939206 0.311132 0.063772 0.136085
H77   H     H_    0.560570 0.811135 0.936628 0.135768
H78   H     H_    0.439205 0.811132 0.063763 0.136085
H79   H     H_    0.060895 0.380112 0.936221 0.157068
H80   H     H_    0.938994 0.380111 0.063967 0.157990
H81   H     H_    0.560895 0.880112 0.936230 0.157050
H82   H     H_    0.438994 0.880111 0.063958 0.157991
H83   H     H_    0.018638 0.559066 0.179779 0.169182
H84   H     H_    0.438695 0.988580 0.260778 0.201866
H85   H     H_    0.985517 0.559997 0.816641 0.169383
H86   H     H_    0.518680 0.059056 0.179738 0.169181
H87   H     H_    0.485632 0.060018 0.816542 0.169381
H88   H     H_    0.056336 0.525465 0.138804 0.194208
H89   H     H_    0.945519 0.529119 0.859920 0.192393
H90   H     H_    0.556353 0.025426 0.138793 0.194216
H91   H     H_    0.445575 0.029216 0.859869 0.192365
H92   H     H_    0.041138 0.453541 0.259466 0.157734
H93   H     H_    0.955335 0.456282 0.743737 0.151624
H94   H     H_    0.541107 0.953516 0.259495 0.157756
H95   H     H_    0.560250 0.984122 0.740239 0.189288
H96   H     H_    0.455232 0.956381 0.743844 0.151562
H97   H     H_    0.041583 0.455528 0.154318 0.140492
H98   H     H_    0.955082 0.458397 0.848839 0.141924
H99   H     H_    0.541550 0.955500 0.154348 0.140468
H100  H     H_    0.454998 0.958477 0.848928 0.141971
H101  H     H_    0.954451 0.540476 0.347739 0.160580
H102  H     H_    0.048123 0.536448 0.648389 0.154834
H103  H     H_    0.454474 0.040505 0.347718 0.160597
H104  H     H_    0.548201 0.036336 0.648300 0.154755
H105  H     H_    0.950079 0.537584 0.247931 0.150794
H106  H     H_    0.993753 0.437675 0.309241 0.182767
H107  H     H_    0.052208 0.533893 0.748883 0.159380
H108  H     H_    0.450106 0.037623 0.247905 0.150769
H109  H     H_    0.552272 0.033784 0.748807 0.159447
H110  H     H_    0.550067 0.290248 0.858022 0.192860
H111  H     H_    0.573571 0.290902 0.902906 0.191009
H112  H     H_    0.427029 0.288443 0.098009 0.180545
H113  H     H_    0.450545 0.289325 0.142880 0.194257
H114  H     H_    0.050067 0.790248 0.858022 0.192859
H115  H     H_    0.073571 0.790902 0.902906 0.191010
H116  H     H_    0.927029 0.788443 0.098009 0.180545
N1    N     N_1   0.970231 0.405887 0.198191 -0.204994
N2    N     N_3   0.439367 0.306098 0.118740 -0.442503
N3    N     N_3   0.060629 0.807770 0.882361 -0.472880
N4    N     N_3   0.939367 0.806098 0.118740 -0.442505
N5    N     N_3   0.559427 0.387351 0.884289 -0.444886
N6    N     N_3   0.436144 0.384359 0.118552 -0.423143
N7    N     N_3   0.059427 0.887351 0.884289 -0.444885
N8    N     N_3   0.936144 0.884359 0.118552 -0.423144
N9    N     N_3   0.929773 0.487308 0.383479 -0.459882
N10   N     N_3   0.067227 0.481036 0.617258 -0.462573
N11   N     N_3   0.429764 0.987351 0.383483 -0.459883
N12   N     N_1   0.022653 0.403756 0.808417 -0.207676
N13   N     N_3   0.567179 0.980879 0.617309 -0.462479
N14   N     N_1   0.470161 0.905911 0.198262 -0.204993
N15   N     N_1   0.522467 0.903703 0.808577 -0.207691
N16   N     N_1   0.791028 0.598740 0.707545 -0.201670
N17   N     N_1   0.209053 0.598912 0.292400 -0.202434
N18   N     N_1   0.291028 0.098740 0.707535 -0.201666
N19   N     N_1   0.709054 0.098912 0.292373 -0.202436
N20   N     N_3   0.560629 0.307770 0.882361 -0.472880
O1    O     O_R   0.944550 0.531270 0.555450 -0.623384
O2    O     O_R   0.444590 0.500090 0.003140 -0.624719
O3    O     O_R   0.055410 0.000090 0.996860 -0.623021
O4    O     O_R   0.944590 0.000090 0.003140 -0.624719
O5    O     O_R   0.500010 0.555520 0.947680 -0.623607
O6    O     O_R   0.499990 0.555520 0.052320 -0.622746
O7    O     O_R   0.000010 0.055520 0.947680 -0.623608
O8    O     O_R   0.999990 0.055520 0.052320 -0.622746
O9    O     O_R   0.944500 0.468660 0.555500 -0.628423
O10   O     O_R   0.055500 0.468660 0.444500 -0.620823
O11   O     O_R   0.444500 0.968660 0.555500 -0.628426
O12   O     O_R   0.055450 0.531270 0.444550 -0.624143
O13   O     O_R   0.555500 0.968660 0.444500 -0.620799
O14   O     O_R   0.999990 0.531270 0.407410 -0.631656
O15   O     O_R   0.000010 0.531270 0.592590 -0.635713
O16   O     O_R   0.499990 0.031270 0.407410 -0.631655
O17   O     O_R   0.500010 0.031270 0.592590 -0.635734
O18   O     O_R   0.999940 0.468660 0.407460 -0.631110
O19   O     O_R   0.000060 0.468660 0.592540 -0.620131
O20   O     O_R   0.499940 0.968660 0.407460 -0.631108
O21   O     O_R   0.500060 0.968660 0.592540 -0.620054
O22   O     O_R   0.968670 0.555400 0.031330 -0.626305
O23   O     O_R   0.444550 0.031270 0.555450 -0.623388
O24   O     O_R   0.031330 0.555400 0.968670 -0.626947
O25   O     O_R   0.468670 0.055400 0.031330 -0.626302
O26   O     O_R   0.531330 0.055400 0.968670 -0.626940
O27   O     O_R   0.968670 0.499940 0.123930 -0.624743
O28   O     O_R   0.031330 0.499940 0.876070 -0.624920
O29   O     O_R   0.468670 0.999940 0.123930 -0.624731
O30   O     O_R   0.531330 0.999940 0.876070 -0.624950
O31   O     O_R   0.031270 0.499990 0.061330 -0.632995
O32   O     O_R   0.968730 0.499990 0.938670 -0.634544
O33   O     O_R   0.531270 0.999990 0.061330 -0.632995
O34   O     O_R   0.555450 0.031270 0.444550 -0.624148
O35   O     O_R   0.468730 0.999990 0.938670 -0.634539
O36   O     O_R   0.968660 0.444490 0.031330 -0.620757
O37   O     O_R   0.031340 0.444490 0.968670 -0.622584
O38   O     O_R   0.468660 0.944490 0.031330 -0.620741
O39   O     O_R   0.531340 0.944490 0.968670 -0.622615
O40   O     O_R   0.499920 0.444610 0.947830 -0.604734
O41   O     O_R   0.500080 0.444610 0.052170 -0.616493
O42   O     O_R   0.999920 0.944610 0.947830 -0.604733
O43   O     O_R   0.000080 0.944610 0.052170 -0.616494
O44   O     O_R   0.555400 0.500060 0.892310 -0.620110
O45   O     O_R   0.444600 0.500060 0.107690 -0.626965
O46   O     O_R   0.055400 0.000060 0.892310 -0.620110
O47   O     O_R   0.944600 0.000060 0.107690 -0.626965
O48   O     O_R   0.555410 0.500090 0.996860 -0.623021
Zn1   Zn    Zn3+2 0.000000 0.541770 0.500000 0.937068
Zn2   Zn    Zn3+2 0.500040 0.500060 0.069780 0.952905
Zn3   Zn    Zn3+2 0.999960 0.000060 0.930220 0.951769
Zn4   Zn    Zn3+2 0.000040 0.000060 0.069780 0.952905
Zn5   Zn    Zn3+2 0.500000 0.041770 0.500000 0.937059
Zn6   Zn    Zn3+2 1.000000 0.458160 0.500000 0.939172
Zn7   Zn    Zn3+2 0.500000 0.958160 0.500000 0.939199
Zn8   Zn    Zn3+2 0.958170 0.499940 0.041830 0.943329
Zn9   Zn    Zn3+2 0.041830 0.499940 0.958170 0.939224
Zn10  Zn    Zn3+2 0.458170 0.999940 0.041830 0.943352
Zn11  Zn    Zn3+2 0.541830 0.999940 0.958170 0.939191
Zn12  Zn    Zn3+2 0.499960 0.500060 0.930220 0.951770

loop_
_geom_bond_atom_site_label_1
_geom_bond_atom_site_label_2
_ccdc_geom_bond_type
C82   N15   T    
C54   H106  S    
O1    Zn1   S    
C115  C141  A    
C13   H24   S    
C156  O2    A    
C107  C112  T    
C146  O31   A    
O44   Zn12  S    
C151  O38   A    
C136  C140  A    
C56   H94   S    
C54   C65   S    
C135  C139  A    
C120  O17   A    
C10   H59   S    
C32   H72   S    
C157  O46   A    
H8    N7    S    
C19   H83   S    
C5    C6    T    
C95   C99   A    
H16   N10   S    
C29   C33   A    
C153  O42   A    
C11   H60   S    
C33   C36   A    
C61   N9    S    
O21   Zn7   S    
C54   C74   S    
C117  O14   A    
C70   C74   S    
C68   C90   A    
C63   C144  S    
C20   C71   S    
H112  N2    S    
C155  H109  S    
C172  C175  A    
C8    H57   S    
C98   H38   S    
C89   C127  S    
H3    N4    S    
C152  O40   A    
C50   C53   A    
C21   C72   S    
C27   C31   A    
C28   C32   A    
H19   N13   S    
C58   C69   S    
C62   C66   S    
O36   Zn8   S    
C167  C171  A    
C154  O48   A    
C132  C137  A    
C133  H107  S    
H115  N3    S    
C166  H22   S    
C155  H95   S    
C73   C155  S    
O5    Zn12  S    
C35   H26   S    
O37   Zn9   S    
C1    C126  S    
C116  C142  A    
O11   Zn7   S    
C46   H27   S    
C100  O23   A    
C124  H46   S    
C145  O26   A    
C125  C129  A    
C121  H44   S    
C160  H54   S    
O7    Zn3   S    
C103  C107  S    
C170  C174  A    
C72   C144  S    
C30   H70   S    
C85   N18   T    
C153  C175  S    
H5    N5    S    
C163  O5    A    
H12   N9    S    
C14   H63   S    
C45   C50   A    
C57   H28   S    
C33   H74   S    
C122  H105  S    
C127  C131  A    
C43   H75   S    
C48   C52   A    
C20   C160  S    
C100  O11   A    
C126  C130  A    
C61   C122  S    
O22   Zn8   S    
C28   H68   S    
C15   C18   A    
C71   C147  S    
C90   C158  S    
O28   Zn9   S    
C111  O34   A    
C58   H96   S    
C148  O33   A    
C30   C34   A    
C8    C23   A    
O38   Zn10  S    
C123  H45   S    
C159  H53   S    
C151  O39   A    
C13   C57   A    
C11   C25   A    
C44   C59   A    
C119  O16   A    
C92   C96   A    
C58   C77   S    
C19   H88   S    
C161  H55   S    
O39   Zn11  S    
H4    N5    S    
C113  C139  A    
O47   Zn4   S    
C70   C146  S    
C114  C140  A    
H7    N6    S    
C79   C91   A    
C118  O19   A    
C43   C59   A    
C55   C75   S    
C172  N7    S    
C164  O8    A    
C14   C17   A    
C4    C7    T    
C84   N17   T    
C171  N6    S    
C173  C175  A    
C86   N19   T    
C24   H25   S    
O23   Zn5   S    
C2    H23   S    
H116  N4    S    
C69   C162  S    
C47   H78   S    
C131  C136  A    
C9    C23   A    
C78   N1    T    
H14   N9    S    
H110  N20   S    
C156  O45   A    
C119  O20   A    
C147  O28   A    
C76   H99   S    
C51   C53   A    
C158  O47   A    
C12   C17   A    
C110  C141  S    
C132  H50   S    
C70   C122  S    
C123  C127  A    
C8    C12   A    
C31   C34   A    
C64   C69   S    
O10   Zn6   S    
C48   H79   S    
C21   H90   S    
C118  O15   A    
C10   C25   A    
C51   H82   S    
C94   H34   S    
C116  C125  A    
C74   C78   S    
C114  C123  A    
C169  N4    S    
C133  H73   S    
C46   C87   A    
C105  C109  T    
C168  N3    S    
C73   C77   S    
C100  C128  S    
C61   H101  S    
C27   H67   S    
O18   Zn6   S    
C108  C139  S    
C91   H31   S    
C32   C36   A    
C26   C30   A    
O6    Zn2   S    
C74   H97   S    
O3    Zn4   S    
C24   C103  A    
C95   H35   S    
C130  H48   S    
C68   H30   S    
O13   Zn7   S    
C63   H103  S    
C122  H62   S    
C83   N16   T    
C64   H104  S    
C35   C79   A    
C61   C65   S    
O9    Zn6   S    
O31   Zn9   S    
C91   C95   A    
C21   H86   S    
C113  C121  A    
C52   C150  S    
C149  O35   A    
C53   C151  S    
C169  C173  A    
O27   Zn8   S    
O40   Zn12  S    
C13   C102  A    
C96   C101  A    
C67   C119  S    
C162  H56   S    
C3    C168  A    
O33   Zn11  S    
C58   H21   S    
C96   H36   S    
C93   C97   A    
H6    N6    S    
C130  C135  A    
C18   C145  S    
C165  C176  A    
O43   Zn4   S    
C64   C155  S    
C109  C140  S    
C89   O10   A    
C62   C133  S    
O29   Zn10  S    
O26   Zn11  S    
C147  O32   A    
C22   C162  S    
H18   N11   S    
C94   C98   A    
C98   C103  A    
H20   N13   S    
C35   C166  A    
C150  O36   A    
C77   C82   S    
C88   C93   A    
C22   H91   S    
C111  C129  S    
O25   Zn10  S    
C115  H42   S    
C90   C94   A    
H111  N20   S    
C97   C102  A    
C72   C76   S    
C124  C128  A    
C167  N2    S    
C99   C104  S    
C97   H37   S    
C87   C92   A    
O48   Zn2   S    
O8    Zn4   S    
C39   C42   T    
C125  H47   S    
C171  C174  A    
C143  O22   A    
C138  C142  A    
C49   H80   S    
C47   C51   A    
C15   H64   S    
C153  O43   A    
C54   H92   S    
C157  O3    A    
C62   N10   S    
C76   C81   S    
C9    C14   A    
C134  C138  A    
C20   H85   S    
C164  O7    A    
C11   C16   A    
C67   C161  S    
C22   H87   S    
C49   C52   A    
C88   C157  S    
C64   N13   S    
O4    Zn3   S    
C12   H61   S    
C161  H40   S    
C152  O41   A    
C85   C137  S    
C104  C108  T    
C55   C66   S    
C80   N12   T    
H15   N10   S    
C165  C170  A    
C137  C141  A    
O16   Zn5   S    
C84   C136  S    
C115  C124  A    
C73   C149  S    
C9    H58   S    
C89   O12   A    
C29   H69   S    
C3    C169  A    
C3    C5    S    
O14   Zn1   S    
C1    O9    A    
C26   C37   A    
C69   C120  S    
H113  N2    S    
C7    C25   S    
O35   Zn10  S    
C17   C143  S    
C19   C159  S    
C146  O27   A    
C37   C39   S    
C38   C40   S    
C120  O21   A    
C24   C68   A    
C129  C134  A    
C168  C172  A    
C75   C80   S    
O24   Zn9   S    
C4    C176  S    
C36   C164  S    
O34   Zn5   S    
C158  O4    A    
C44   C49   A    
C45   C60   A    
C63   N11   S    
C56   C76   S    
C1    O1    A    
C65   C159  S    
C66   C160  S    
C162  H51   S    
C2    C46   A    
C163  O6    A    
C145  O25   A    
C10   C15   A    
C173  N8    S    
C112  C142  S    
C160  H29   S    
C44   H76   S    
C154  O44   A    
C144  H108  S    
C134  H52   S    
C43   C48   A    
C83   C135  S    
C99   C166  A    
C152  C174  S    
C16   H65   S    
C47   C60   A    
O2    Zn12  S    
C77   H100  S    
C31   H71   S    
C159  H1    S    
C128  C132  A    
C81   N14   T    
C101  C105  S    
C63   C67   S    
C21   C161  S    
H114  N3    S    
C41   C59   S    
C34   C163  S    
C42   C60   S    
C2    C101  A    
C72   C148  S    
C165  N20   S    
C111  O13   A    
O42   Zn3   S    
O30   Zn11  S    
H9    N7    S    
C29   C38   A    
H10   N8    S    
C92   H32   S    
C170  N5    S    
C131  H49   S    
C28   C38   A    
O46   Zn3   S    
C116  H43   S    
C55   H93   S    
O41   Zn2   S    
C40   C41   T    
O15   Zn1   S    
C75   H98   S    
C93   H33   S    
O12   Zn1   S    
C113  H39   S    
C114  H41   S    
H11   N8    S    
C106  C110  T    
O45   Zn2   S    
C56   H13   S    
O19   Zn6   S    
C65   C117  S    
C87   C156  S    
C20   H89   S    
C71   C133  S    
C26   H66   S    
O17   Zn5   S    
C50   H81   S    
C56   C67   S    
C143  O24   A    
C57   C88   A    
C148  O29   A    
C121  C126  A    
H17   N11   S    
C79   C154  S    
C71   C75   S    
C27   C37   A    
O20   Zn7   S    
C6    C23   S    
C55   H2    S    
C102  C106  S    
C144  H84   S    
C150  O37   A    
C86   C138  S    
C117  O18   A    
O32   Zn8   S    
C16   C18   A    
C66   C118  S    
C149  O30   A    
C19   C70   S    
C62   H102  S    
C22   C73   S    
C45   H77   S    
C167  C176  A    
