data_mof_unit_9185.cif
_audit_creation_date              2012-12-11T14:30:03-0500
_audit_creation_method            fapswitch 2.2
_symmetry_space_group_name_H-M    P1
_symmetry_Int_Tables_number       1
_space_group_crystal_system       triclinic
_cell_length_a                    12.910282
_cell_length_b                    12.850938
_cell_length_c                    27.067566
_cell_angle_alpha                 89.829436
_cell_angle_beta                  89.96123
_cell_angle_gamma                 119.861223
_cell_volume                      3894.50931965

loop_
_atom_site_label
_atom_site_type_symbol
_atom_type_description
_atom_site_fract_x
_atom_site_fract_y
_atom_site_fract_z
_atom_type_partial_charge
C1    C     C_R   0.557931 0.456995 0.821561 0.569420
C2    C     C_R   0.891591 0.435960 0.676375 0.538787
C3    C     C_R   0.544076 0.107185 0.823285 0.561351
C4    C     C_R   0.564524 0.455703 0.676380 0.537322
C5    C     C_R   0.896664 0.438545 0.822586 0.570829
C6    C     C_R   0.544999 0.110342 0.676126 0.537693
C7    C     C_R   0.455016 0.557504 0.321525 0.563485
C8    C     C_R   0.442366 0.898361 0.178545 0.559481
C9    C     C_R   0.101464 0.544163 0.321354 0.560305
C10   C     C_R   0.455066 0.558741 0.177955 0.562971
C11   C     C_R   0.442013 0.897053 0.321455 0.561956
C12   C     C_R   0.102230 0.544879 0.178295 0.559101
C13   C     C_R   0.976321 0.488980 0.977337 -0.031114
C14   C     C_R   0.507340 0.025241 0.521727 -0.036791
C15   C     C_R   0.509072 0.510586 0.974069 -0.017759
C16   C     C_R   0.970903 0.484381 0.521573 -0.036972
C17   C     C_R   0.516620 0.030512 0.978157 -0.027711
C18   C     C_R   0.513765 0.484715 0.521773 -0.041115
C19   C     C_R   0.506149 0.007009 0.470293 -0.028497
C20   C     C_R   0.987765 0.504628 0.029228 -0.034381
C21   C     C_R   0.497075 0.484349 0.470187 -0.045133
C22   C     C_R   0.515847 0.015488 0.029851 -0.020983
C23   C     C_R   0.985503 0.500279 0.469864 -0.010570
C24   C     C_R   0.496452 0.511430 0.025766 -0.025747
C25   C     C_R   0.085549 0.706322 0.966108 0.222676
C26   C     C_R   0.604645 0.905300 0.534494 0.209594
C27   C     C_R   0.293750 0.412361 0.963434 0.218343
C28   C     C_R   0.089048 0.701533 0.532952 0.212076
C29   C     C_R   0.616380 0.912632 0.967250 0.205795
C30   C     C_R   0.298186 0.389541 0.534423 0.226950
C31   C     C_R   0.601692 0.885882 0.483424 0.172020
C32   C     C_R   0.103612 0.721334 0.017451 0.169567
C33   C     C_R   0.282416 0.394011 0.483268 0.161249
C34   C     C_R   0.617903 0.900593 0.018860 0.164435
C35   C     C_R   0.103814 0.716630 0.481510 0.163375
C36   C     C_R   0.280155 0.409731 0.015111 0.210469
C37   C     C_R   0.000601 0.573230 0.894441 -0.115530
C38   C     C_R   0.572181 0.006410 0.604162 -0.086301
C39   C     C_R   0.424661 0.459033 0.890592 -0.106569
C40   C     C_R   0.995402 0.568455 0.604100 -0.087435
C41   C     C_R   0.575412 0.004354 0.895592 -0.085011
C42   C     C_R   0.431740 0.426626 0.604742 -0.089387
C43   C     C_R   0.531814 0.902333 0.401761 -0.105461
C44   C     C_R   0.086246 0.631394 0.099228 -0.113944
C45   C     C_R   0.370218 0.464192 0.401427 -0.120800
C46   C     C_R   0.544635 0.916861 0.099953 -0.099200
C47   C     C_R   0.085334 0.628280 0.400098 -0.096321
C48   C     C_R   0.369675 0.475982 0.096696 -0.111369
C49   C     C_R   0.042965 0.530261 0.130204 0.011994
C50   C     C_R   0.483936 0.952770 0.369648 0.003729
C51   C     C_R   0.468934 0.522455 0.127989 0.000685
C52   C     C_R   0.041546 0.528047 0.369134 0.011891
C53   C     C_R   0.485577 0.958556 0.130599 0.008563
C54   C     C_R   0.469253 0.513964 0.369652 0.017227
C55   C     C_R   0.521220 0.069929 0.623931 -0.022996
C56   C     C_R   0.945360 0.458642 0.874016 0.011269
C57   C     C_R   0.546371 0.479039 0.624266 -0.021014
C58   C     C_R   0.521380 0.065365 0.875347 0.008065
C59   C     C_R   0.932960 0.453659 0.624211 -0.021261
C60   C     C_R   0.533660 0.475418 0.873139 0.030835
C61   C     C_R   0.024061 0.590248 0.945566 0.029903
C62   C     C_R   0.559185 0.976290 0.553852 0.036771
C63   C     C_R   0.408292 0.465303 0.942263 0.017592
C64   C     C_R   0.021769 0.585390 0.553293 0.039198
C65   C     C_R   0.566716 0.978969 0.946579 0.041379
C66   C     C_R   0.413923 0.435579 0.554020 0.042052
C67   C     C_R   0.548498 0.932670 0.451682 0.021083
C68   C     C_R   0.058720 0.620154 0.048823 -0.014001
C69   C     C_R   0.382375 0.447381 0.451562 -0.030153
C70   C     C_R   0.560378 0.944449 0.049669 0.026435
C71   C     C_R   0.057826 0.615947 0.450361 0.026743
C72   C     C_R   0.381355 0.465805 0.045928 0.024364
C73   C     C_R   0.918518 0.357658 0.905441 0.251835
C74   C     C_R   0.447363 0.097329 0.593173 0.210261
C75   C     C_R   0.623944 0.500220 0.907094 0.119768
C76   C     C_R   0.904150 0.352423 0.593327 0.206529
C77   C     C_R   0.451767 0.096575 0.906546 0.188473
C78   C     C_R   0.646539 0.550059 0.592804 0.207202
C79   C     C_R   0.463741 0.043804 0.385740 0.218586
C80   C     C_R   0.955990 0.417541 0.112711 0.193599
C81   C     C_R   0.580410 0.533794 0.386138 0.198807
C82   C     C_R   0.456810 0.043924 0.112835 0.173483
C83   C     C_R   0.954417 0.414828 0.386457 0.183548
C84   C     C_R   0.580883 0.548854 0.109413 0.207385
C85   C     C_R   0.920167 0.371811 0.957520 0.061476
C86   C     C_R   0.452618 0.088106 0.541099 0.045237
C87   C     C_R   0.620422 0.540090 0.954418 0.022037
C88   C     C_R   0.909320 0.367087 0.541412 0.036509
C89   C     C_R   0.465322 0.095635 0.958141 0.003294
C90   C     C_R   0.630854 0.539849 0.540967 0.037705
C91   C     C_R   0.463433 0.063357 0.437194 0.044870
C92   C     C_R   0.928193 0.404556 0.061547 0.012825
C93   C     C_R   0.595008 0.520072 0.437227 0.012741
C94   C     C_R   0.473632 0.074147 0.061886 -0.014246
C95   C     C_R   0.925554 0.400840 0.437510 0.010131
C96   C     C_R   0.597503 0.549885 0.057408 0.035894
C97   C     C_R   0.852098 0.292145 0.040626 0.264770
C98   C     C_R   0.413722 0.129926 0.456320 0.269666
C99   C     C_R   0.712045 0.594273 0.035902 0.334922
C100  C     C_R   0.846211 0.288578 0.458196 0.260844
C101  C     C_R   0.445045 0.157285 0.041146 0.334493
C102  C     C_R   0.707103 0.552873 0.457425 0.258665
C103  C     C_R   0.401358 0.135621 0.507804 0.260962
C104  C     C_R   0.863295 0.273108 0.990644 0.338196
C105  C     C_R   0.727845 0.581200 0.507444 0.324886
C106  C     C_R   0.433449 0.162021 0.990425 0.350086
C107  C     C_R   0.852620 0.268785 0.508509 0.327880
C108  C     C_R   0.723124 0.591831 0.984244 0.291888
Cr1   Cr    Cr6+3 0.487630 0.241180 0.750000 1.148439
Cr2   Cr    Cr6+3 0.753550 0.512370 0.750000 1.129134
Cr3   Cr    Cr6+3 0.758820 0.246450 0.750000 1.147804
Cr4   Cr    Cr6+3 0.241180 0.487630 0.250000 1.150324
Cr5   Cr    Cr6+3 0.512370 0.753550 0.250000 1.145258
Cr6   Cr    Cr6+3 0.246450 0.758820 0.250000 1.143183
H1    H     H_    0.150179 0.718140 0.113917 0.186246
H2    H     H_    0.549221 0.833567 0.387979 0.180213
H3    H     H_    0.283657 0.454126 0.111944 0.176758
H4    H     H_    0.150413 0.715182 0.385601 0.181523
H5    H     H_    0.568244 0.853049 0.114630 0.180143
H6    H     H_    0.284764 0.447251 0.387421 0.186595
H7    H     H_    0.620745 0.980040 0.628907 0.200793
H8    H     H_    0.022826 0.647933 0.869879 0.177539
H9    H     H_    0.357405 0.379994 0.629892 0.199608
H10   H     H_    0.623480 0.977052 0.871017 0.193813
H11   H     H_    0.022770 0.643590 0.628777 0.199473
H12   H     H_    0.352300 0.431904 0.864570 0.173790
O1    O     O_R   0.460870 0.120930 0.805240 -0.452743
O2    O     O_R   0.660060 0.539130 0.694760 -0.457862
O3    O     O_R   0.879070 0.339940 0.805240 -0.454210
O4    O     O_R   0.460870 0.120930 0.694760 -0.455127
O5    O     O_R   0.660060 0.539130 0.805240 -0.470749
O6    O     O_R   0.879070 0.339940 0.694760 -0.456627
O7    O     O_R   0.120930 0.460870 0.305240 -0.448690
O8    O     O_R   0.539130 0.660060 0.194760 -0.454034
O9    O     O_R   0.339940 0.879070 0.305240 -0.454112
O10   O     O_R   0.120930 0.460870 0.194760 -0.448670
O11   O     O_R   0.539130 0.660060 0.305240 -0.449401
O12   O     O_R   0.339940 0.879070 0.194760 -0.449704
O13   O     O_R   0.498910 0.350470 0.801870 -0.463373
O14   O     O_R   0.851560 0.501090 0.698130 -0.484967
O15   O     O_R   0.649530 0.148440 0.801870 -0.471680
O16   O     O_R   0.498910 0.350470 0.698130 -0.485747
O17   O     O_R   0.851560 0.501090 0.801870 -0.473966
O18   O     O_R   0.649530 0.148440 0.698130 -0.485040
O19   O     O_R   0.350470 0.498910 0.301870 -0.499175
O20   O     O_R   0.501090 0.851560 0.198130 -0.501839
O21   O     O_R   0.148440 0.649530 0.301870 -0.502362
O22   O     O_R   0.350470 0.498910 0.198130 -0.494346
O23   O     O_R   0.501090 0.851560 0.301870 -0.497259
O24   O     O_R   0.148440 0.649530 0.198130 -0.500675
O25   O     O_3   0.666667 0.333333 0.750000 -0.299185
O26   O     O_3   0.333333 0.666667 0.250000 -0.323996
Br1   Br    Br    0.176691 0.880695 0.044846 -0.356598
Br2   Br    Br    0.688248 0.812671 0.456575 -0.392698
Br3   Br    Br    0.124875 0.308968 0.043861 -0.355290
Br4   Br    Br    0.165018 0.874112 0.453389 -0.388969
Br5   Br    Br    0.721549 0.849650 0.047615 -0.358556
Br6   Br    Br    0.123705 0.308711 0.456227 -0.410708
Br7   Br    Br    0.676895 0.839209 0.577039 -0.339696
Br8   Br    Br    0.140820 0.845581 0.924643 -0.342414
Br9   Br    Br    0.160236 0.316274 0.576833 -0.339725
Br10  Br    Br    0.689156 0.843990 0.926021 -0.398348
Br11  Br    Br    0.154425 0.841075 0.574519 -0.346222
Br12  Br    Br    0.156736 0.321583 0.922801 -0.340608
Br13  Br    Br    0.889515 0.282820 0.158701 -0.295285
Br14  Br    Br    0.449280 0.143369 0.335132 -0.288247
Br15  Br    Br    0.701205 0.569052 0.157315 -0.286838
Br16  Br    Br    0.888613 0.281021 0.340451 -0.294314
Br17  Br    Br    0.384739 0.107316 0.158094 -0.286109
Br18  Br    Br    0.710539 0.591773 0.338390 -0.297250
Br19  Br    Br    0.327150 0.130392 0.621828 -0.278047
Br20  Br    Br    0.878117 0.200294 0.878176 -0.257870
Br21  Br    Br    0.801047 0.670172 0.619716 -0.270684
Br22  Br    Br    0.326551 0.125978 0.880825 -0.272285
Br23  Br    Br    0.871152 0.197728 0.620973 -0.266962
Br24  Br    Br    0.692099 0.399441 0.902837 -0.577046
O27   O     O_3   0.765335 0.198076 0.067398 -0.656542
H13   H     H_    0.725108 0.231554 0.087837 0.338728
O28   O     O_3   0.363204 0.175657 0.424297 -0.608625
H14   H     H_    0.355406 0.239560 0.440623 0.351488
O29   O     O_3   0.812375 0.647540 0.065480 -0.599024
H15   H     H_    0.885160 0.692812 0.045246 0.399167
O30   O     O_3   0.759162 0.196147 0.431087 -0.658209
H16   H     H_    0.721320 0.231636 0.410287 0.339811
O31   O     O_3   0.436751 0.242621 0.068683 -0.592773
H17   H     H_    0.508383 0.280059 0.090179 0.328499
O32   O     O_3   0.799395 0.559280 0.429872 -0.659100
H18   H     H_    0.765217 0.484032 0.410468 0.336661
O33   O     O_3   0.337302 0.186727 0.525037 -0.662078
H19   H     H_    0.259678 0.148691 0.507394 0.396531
O34   O     O_3   0.812816 0.157143 0.974478 -0.612054
H20   H     H_    0.821603 0.108749 0.001006 0.403477
O35   O     O_3   0.843607 0.644833 0.523247 -0.625298
H21   H     H_    0.891321 0.702403 0.496758 0.401266
O36   O     O_3   0.404387 0.244777 0.973854 -0.594072
H22   H     H_    0.460030 0.287784 0.946536 0.338131
O37   O     O_3   0.796794 0.152811 0.525340 -0.626872
H23   H     H_    0.802737 0.101994 0.499252 0.399902
O38   O     O_3   0.835801 0.644789 0.963653 -0.673207
H24   H     H_    0.831707 0.662407 0.928267 0.379154

loop_
_geom_bond_atom_site_label_1
_geom_bond_atom_site_label_2
_ccdc_geom_bond_type
C44   C49   A    
C80   C92   A    
C77   Br22  S    
C82   C94   A    
C18   C21   A    
C5    C56   S    
C3    O15   A    
Cr6   O26   S    
Cr4   O7    S    
C6    O4    A    
C50   C79   A    
C12   C49   S    
O29   H15   S    
C78   C90   A    
C105  O35   S    
C99   C108  A    
C20   C92   A    
C77   C89   A    
C41   H10   S    
Cr1   O25   S    
C48   C72   A    
C41   C58   A    
C11   O9    A    
C24   C96   A    
C4    O16   A    
C43   H2    S    
C3    O1    A    
C5    O17   A    
C86   C103  A    
C98   C103  A    
C14   C62   A    
C96   C99   A    
Cr4   O19   S    
C102  C105  A    
C8    O12   A    
C102  O32   S    
C84   C96   A    
C100  O30   S    
C84   Br15  S    
C58   C77   A    
C37   C56   A    
Cr3   O3    S    
C48   C51   A    
C38   C55   A    
C44   H1    S    
C4    C57   S    
C42   H9    S    
C78   Br21  S    
C2    O6    A    
Cr6   O9    S    
Cr4   O26   S    
C19   C67   A    
Cr1   O16   S    
C103  O33   S    
Cr2   O2    S    
C76   C88   A    
C79   C91   A    
C1    O13   A    
C33   C69   A    
C32   C68   A    
C25   C32   A    
C5    O3    A    
C82   Br17  S    
C35   C71   A    
C26   C31   A    
C79   Br14  S    
C40   C59   A    
C22   C94   A    
Cr5   O26   S    
O33   H19   S    
C9    C52   S    
Cr4   O10   S    
C6    C55   S    
C101  O31   S    
C10   C51   S    
C57   C78   A    
C42   C57   A    
Cr1   O1    S    
C92   C97   A    
C47   H4    S    
C16   C88   A    
C99   O29   S    
C87   C108  A    
C45   C69   A    
O34   H20   S    
C18   C90   A    
C12   O24   A    
Cr2   O5    S    
C17   C89   A    
C35   Br4   S    
C14   C86   A    
Cr2   O25   S    
C1    C60   S    
C7    O11   A    
C88   C107  A    
C4    O2    A    
C2    C59   S    
C14   C19   A    
C41   C65   A    
O36   H22   S    
C104  O34   S    
C29   C34   A    
C9    O21   A    
C37   H8    S    
C21   C69   A    
C53   C82   A    
Cr5   O20   S    
C89   C106  A    
C52   C83   A    
C31   C67   A    
O30   H16   S    
C3    C58   S    
C43   C67   A    
C20   C68   A    
Cr5   O23   S    
C27   Br12  S    
C81   C93   A    
C97   O27   S    
O37   H23   S    
C83   C95   A    
C25   Br8   S    
C26   Br7   S    
C25   C61   A    
C81   Br18  S    
C74   C86   A    
C73   Br20  S    
C47   C71   A    
C74   Br19  S    
C30   C66   A    
C85   C104  A    
C27   C63   A    
Cr3   O18   S    
C29   C65   A    
C39   C60   A    
C28   C64   A    
C45   H6    S    
C75   C87   A    
C15   C24   A    
C45   C54   A    
O27   H13   S    
C16   C23   A    
C107  O37   S    
Cr5   O8    S    
C7    C54   S    
Cr5   O11   S    
C44   C68   A    
Cr6   O24   S    
C6    O18   A    
C80   Br13  S    
C31   Br2   S    
C33   Br6   S    
C24   C72   A    
C15   C87   A    
C73   C85   A    
C101  C106  A    
C28   C35   A    
C34   C70   A    
C100  C107  A    
C56   C73   A    
C94   C101  A    
C30   C33   A    
C75   Br24  S    
C95   C100  A    
C93   C102  A    
C29   Br10  S    
C13   C20   A    
C76   Br23  S    
C8    O20   A    
C10   O8    A    
C90   C105  A    
C1    O5    A    
Cr3   O25   S    
C8    C53   S    
Cr6   O21   S    
C37   C61   A    
C43   C50   A    
C48   H3    S    
C27   C36   A    
C18   C66   A    
C39   C63   A    
C83   Br16  S    
C60   C75   A    
C17   C65   A    
C17   C22   A    
C40   C64   A    
C49   C80   A    
C97   C104  A    
Cr1   O13   S    
C2    O14   A    
C108  O38   S    
Cr2   O14   S    
C26   C62   A    
C106  O36   S    
O32   H18   S    
C55   C74   A    
C11   C50   S    
O31   H17   S    
C21   C93   A    
C40   H11   S    
C59   C76   A    
C46   C53   A    
C42   C66   A    
C23   C95   A    
C46   H5    S    
Cr6   O12   S    
C91   C98   A    
Cr2   O17   S    
C46   C70   A    
C38   H7    S    
C19   C91   A    
Cr3   O15   S    
C32   Br1   S    
C34   Br5   S    
Cr4   O22   S    
Cr3   O6    S    
O38   H24   S    
C13   C61   A    
C36   Br3   S    
C23   C71   A    
C11   O23   A    
O35   H21   S    
C12   O10   A    
C13   C85   A    
Cr1   O4    S    
C39   H12   S    
O28   H14   S    
C15   C63   A    
C47   C52   A    
C16   C64   A    
C30   Br9   S    
C38   C62   A    
C98   O28   S    
C51   C84   A    
C22   C70   A    
C54   C81   A    
C36   C72   A    
C28   Br11  S    
C10   O22   A    
C7    O19   A    
C9    O7    A    
