data_mof_unit_44759.cif
_audit_creation_date              2012-10-26T19:42:19-0400
_audit_creation_method            fapswitch 2.2
_symmetry_space_group_name_H-M    P1
_symmetry_Int_Tables_number       1
_space_group_crystal_system       triclinic
_cell_length_a                    9.575318
_cell_length_b                    10.865345
_cell_length_c                    17.37252
_cell_angle_alpha                 92.650575
_cell_angle_beta                  85.922126
_cell_angle_gamma                 90.378339
_cell_volume                      1800.90735228

loop_
_atom_site_label
_atom_site_type_symbol
_atom_type_description
_atom_site_fract_x
_atom_site_fract_y
_atom_site_fract_z
_atom_type_partial_charge
C1    C     C_R   0.500488 0.736879 0.493820 0.555788
C2    C     C_R   0.527619 0.503877 0.266092 0.014398
C3    C     C_R   0.252454 0.876999 0.448542 -0.063839
C4    C     C_R   0.481677 0.498293 0.649714 0.559273
C5    C     C_R   0.122532 0.934845 0.456815 -0.106234
C6    C     C_R   0.109670 0.049718 0.494902 -0.114401
C7    C     C_R   0.228886 0.112030 0.517417 -0.092425
C8    C     C_R   0.364252 0.060245 0.501314 0.023737
C9    C     C_R   0.372157 0.934360 0.478212 0.033406
C10   C     C_R   0.498763 0.870629 0.486788 -0.008825
C11   C     C_R   0.621484 0.937005 0.499194 -0.160070
C12   C     C_R   0.342497 0.499010 0.776392 -0.118238
C13   C     C_R   0.619027 0.064192 0.505731 -0.160793
C14   C     C_R   0.491923 0.127640 0.506996 -0.007159
C15   C     C_R   0.867832 0.336124 0.397115 -0.085457
C16   C     C_R   0.497878 0.262368 0.504139 0.528105
C17   C     C_R   0.946089 0.255904 0.346970 -0.180315
C18   C     C_R   0.089969 0.255981 0.346939 -0.165256
C19   C     C_R   0.156401 0.336127 0.397152 -0.091285
C20   C     C_R   0.080824 0.419359 0.449457 0.087093
C21   C     C_R   0.931100 0.419383 0.449463 0.128299
C22   C     C_R   0.920321 0.576950 0.547871 0.016774
C23   C     C_R   0.412602 0.522916 0.147816 -0.108376
C24   C     C_R   0.068343 0.577009 0.547924 0.468830
C25   C     C_R   0.518303 0.500562 0.350252 0.522316
C26   C     C_R   0.472286 0.489947 0.733640 0.013493
C27   C     C_R   0.593999 0.469116 0.771449 -0.128182
C28   C     C_R   0.586676 0.459621 0.850919 -0.104848
C29   C     C_R   0.457623 0.472691 0.894011 0.043723
C30   C     C_R   0.335336 0.489975 0.856252 -0.114728
C31   C     C_R   0.405447 0.519274 0.227637 -0.136087
C32   C     C_R   0.657541 0.493519 0.223582 -0.132782
C33   C     C_R   0.664551 0.496766 0.143401 -0.116334
C34   C     C_R   0.542002 0.509351 0.105072 0.043817
C35   C     C_2   0.447899 0.469192 0.978421 -0.133208
C36   C     C_2   0.552297 0.509916 0.020537 -0.133237
Cu1   Cu    Cu3+1 0.359340 0.500010 0.500010 0.991118
Cu2   Cu    Cu3+1 0.640660 0.499990 0.499990 0.921764
F1    F     F_    0.131382 0.656222 0.597185 -0.622489
H1    H     H_    0.695075 0.459070 0.739663 0.133225
H2    H     H_    0.894388 0.193211 0.307790 0.118050
H3    H     H_    0.304118 0.529535 0.259151 0.128135
H4    H     H_    0.150883 0.193093 0.307913 0.122929
H5    H     H_    0.753339 0.482244 0.252090 0.127545
H6    H     H_    0.649411 0.543252 0.992640 0.116997
H7    H     H_    0.234792 0.498844 0.888761 0.103575
H8    H     H_    0.246966 0.513860 0.748332 0.157315
H9    H     H_    0.350660 0.435958 0.006202 0.114863
H10   H     H_    0.681969 0.440889 0.878158 0.104138
H11   H     H_    0.860128 0.639952 0.587047 0.139552
H12   H     H_    0.765341 0.487625 0.111163 0.100520
H13   H     H_    0.266972 0.327869 0.392628 0.188514
H14   H     H_    0.316929 0.538132 0.120109 0.101924
H15   H     H_    0.720164 0.890690 0.503967 0.138788
H16   H     H_    0.257956 0.788540 0.417380 0.135362
H17   H     H_    0.031158 0.888862 0.435722 0.107823
H18   H     H_    0.007578 0.092013 0.505540 0.114693
H19   H     H_    0.211277 0.198271 0.549780 0.151367
H20   H     H_    0.717268 0.112792 0.511180 0.137592
H21   H     H_    0.758396 0.328631 0.392002 0.186043
N1    N     N_R   0.852190 0.498790 0.499250 -0.287467
N2    N     N_R   0.148060 0.498710 0.499220 -0.246966
O1    O     O_R   0.381190 0.680360 0.500010 -0.450147
O2    O     O_R   0.618760 0.680340 0.500000 -0.510618
O3    O     O_R   0.367440 0.500030 0.613600 -0.450106
O4    O     O_R   0.605010 0.500010 0.613590 -0.512057
O5    O     O_R   0.381240 0.319660 0.500000 -0.545324
O6    O     O_R   0.618810 0.319640 0.499990 -0.524890
O7    O     O_R   0.394990 0.499990 0.386410 -0.542532
O8    O     O_R   0.632560 0.499970 0.386400 -0.526211

loop_
_geom_bond_atom_site_label_1
_geom_bond_atom_site_label_2
_ccdc_geom_bond_type
C4    C26   S    
Cu2   O8    S    
C23   H14   S    
C6    C7    A    
C13   H20   S    
C31   H3    S    
Cu1   O7    S    
C33   H12   S    
C9    C10   A    
C29   C35   S    
C7    H19   S    
C34   C36   S    
C19   C20   A    
C27   H1    S    
C22   H11   S    
C23   C34   A    
C19   H13   S    
C32   C33   A    
Cu2   N1    S    
C17   C18   A    
C32   H5    S    
C36   H6    S    
C16   O5    A    
C18   H4    S    
C22   N1    A    
C4    O4    A    
C11   C13   A    
C6    H18   S    
C26   C27   A    
C29   C30   A    
C11   H15   S    
C35   C36   D    
C12   H8    S    
C3    C9    A    
C35   H9    S    
Cu1   O5    S    
Cu1   O3    S    
C28   C29   A    
Cu1   O1    S    
Cu1   Cu2   S    
Cu2   O6    S    
C33   C34   A    
C2    C25   S    
Cu2   O2    S    
C16   O6    A    
C20   N2    A    
C5    C6    A    
C22   C24   A    
C17   H2    S    
C25   O7    A    
C10   C11   A    
C1    O2    A    
C1    O1    A    
C15   C21   A    
C24   F1    S    
C20   C21   A    
C2    C32   A    
C18   C19   A    
C15   H21   S    
C27   C28   A    
C15   C17   A    
C7    C8    A    
Cu1   N2    S    
C4    O3    A    
C8    C9    A    
C24   N2    A    
C25   O8    A    
C8    C14   A    
C12   C30   A    
C14   C16   S    
C13   C14   A    
C3    H16   S    
C5    H17   S    
C30   H7    S    
C21   N1    A    
C1    C10   S    
Cu2   O4    S    
C12   C26   A    
C2    C31   A    
C3    C5    A    
C28   H10   S    
C23   C31   A    
