data_mof_unit_53208.cif
_audit_creation_date              2012-12-11T14:08:37-0500
_audit_creation_method            fapswitch 2.2
_symmetry_space_group_name_H-M    P1
_symmetry_Int_Tables_number       1
_space_group_crystal_system       triclinic
_cell_length_a                    8.697738
_cell_length_b                    15.703206
_cell_length_c                    19.145797
_cell_angle_alpha                 95.629136
_cell_angle_beta                  95.739059
_cell_angle_gamma                 100.548817
_cell_volume                      2539.72389653

loop_
_atom_site_label
_atom_site_type_symbol
_atom_type_description
_atom_site_fract_x
_atom_site_fract_y
_atom_site_fract_z
_atom_type_partial_charge
Ba1   Ba    Ba6+2 0.852120 0.544010 0.466690 1.735327
Ba2   Ba    Ba6+2 0.337720 0.456070 0.533320 1.679631
C1    C     C_3   0.498805 0.826882 0.219551 0.018653
C2    C     C_3   0.522878 0.768715 0.278120 0.357269
C3    C     C_3   0.561242 0.293214 0.310162 0.378075
C4    C     C_3   0.577139 0.231400 0.242273 0.261028
C5    C     C_3   0.150587 0.228437 0.720708 0.474003
C6    C     C_3   0.216734 0.199666 0.791288 0.469022
C7    C     C_3   0.627876 0.237117 0.735166 0.289789
C8    C     C_3   0.576398 0.138513 0.744301 0.205101
C9    C     C_R   0.288233 0.533319 0.295980 -0.320624
C10   C     C_R   0.134667 0.488582 0.270652 -0.000044
C11   C     C_R   0.088128 0.477519 0.194013 0.308557
C12   C     C_3   0.046580 0.719980 0.275059 0.410737
C13   C     C_R   0.204336 0.505153 0.147510 -0.072062
C14   C     C_R   0.357148 0.544260 0.177359 -0.140814
C15   C     C_R   0.398157 0.558660 0.250058 0.019728
C16   C     C_R   0.214034 0.573523 0.032404 -0.104815
C17   C     C_R   0.156005 0.574928 0.961267 -0.107543
C18   C     C_R   0.052516 0.502180 0.922924 0.058870
C19   C     C_R   0.024985 0.424435 0.955939 0.146476
C20   C     C_R   0.096712 0.422826 0.025140 0.027803
C21   C     C_R   0.170253 0.500055 0.067610 0.098383
C22   C     C_R   0.824042 0.472040 0.823988 -0.123473
C23   C     C_3   0.005887 0.735901 0.197171 0.386164
C24   C     C_R   0.769000 0.457241 0.751225 0.016125
C25   C     C_R   0.029194 0.528681 0.724962 -0.015865
C26   C     C_R   0.085399 0.537130 0.797679 -0.147963
C27   C     C_R   0.985350 0.506180 0.847771 0.034626
C28   C     C_R   0.871202 0.488011 0.702249 -0.229379
C29   C     C_R   0.718200 0.219020 0.548123 -0.285734
C30   C     C_R   0.837584 0.168431 0.550714 0.019864
C31   C     C_R   0.796154 0.082043 0.517193 0.130194
C32   C     C_R   0.636428 0.043122 0.493026 0.057220
C33   C     C_R   0.539552 0.103617 0.473829 -0.106384
C34   C     C_3   0.339683 0.732812 0.682373 0.423959
C35   C     C_R   0.588147 0.194259 0.495657 0.033873
C36   C     C_R   0.425240 0.906470 0.448200 -0.182399
C37   C     C_R   0.355374 0.818077 0.446013 -0.005614
C38   C     C_R   0.587927 0.791051 0.515143 0.011886
C39   C     C_R   0.646644 0.884572 0.528779 0.361856
C40   C     C_R   0.573384 0.943246 0.488144 -0.030601
C41   C     C_R   0.441944 0.760662 0.474460 -0.283512
C42   C     C_3   0.341332 0.773172 0.759190 -0.399241
C43   C     C_3   0.993991 0.247710 0.349200 0.258253
C44   C     C_3   0.968927 0.152274 0.302425 0.835851
C45   C     C_3   0.809446 0.686161 0.689211 0.451031
C46   C     C_3   0.947277 0.758981 0.724547 0.355503
H1    H     H_    0.566333 0.810442 0.329065 0.070523
H2    H     H_    0.313041 0.721420 0.794093 0.088748
H3    H     H_    0.456988 0.815311 0.779372 0.129267
H4    H     H_    0.258144 0.818079 0.762726 0.169258
H5    H     H_    0.119878 0.266408 0.369127 0.087999
H6    H     H_    0.859313 0.642217 0.652543 -0.032361
H7    H     H_    0.612950 0.860141 0.207935 0.257205
H8    H     H_    0.990331 0.803898 0.686539 0.078515
H9    H     H_    0.039263 0.722632 0.739480 -0.058366
H10   H     H_    0.407420 0.727530 0.283409 -0.127007
H11   H     H_    0.680240 0.318696 0.338512 0.008657
H12   H     H_    0.519766 0.164104 0.246111 0.144034
H13   H     H_    0.702882 0.230409 0.243427 0.083834
H14   H     H_    0.441286 0.786085 0.170095 0.083376
H15   H     H_    0.235446 0.287641 0.712939 0.077547
H16   H     H_    0.323911 0.177440 0.784984 0.111662
H17   H     H_    0.728118 0.263504 0.775814 0.022921
H18   H     H_    0.663749 0.240788 0.681767 -0.039841
H19   H     H_    0.669740 0.104852 0.726717 0.107040
H20   H     H_    0.935265 0.692418 0.294855 0.090252
H21   H     H_    0.208652 0.564233 0.814610 0.061794
H22   H     H_    0.187728 0.634169 0.937045 0.107187
H23   H     H_    0.292158 0.630430 0.060512 0.075080
H24   H     H_    0.089534 0.361249 0.046481 0.123992
H25   H     H_    0.743056 0.452762 0.861197 0.085366
H26   H     H_    0.446130 0.564930 0.143484 0.126276
H27   H     H_    0.828600 0.478176 0.646413 0.070864
H28   H     H_    0.124487 0.671478 0.276960 -0.129215
H29   H     H_    0.326709 0.543557 0.352222 0.070252
H30   H     H_    0.357797 0.946064 0.420240 0.091192
H31   H     H_    0.886779 0.043790 0.515515 0.162613
H32   H     H_    0.429789 0.082044 0.441036 0.149072
H33   H     H_    0.390373 0.691804 0.468506 0.069403
H34   H     H_    0.740169 0.284205 0.575830 0.043379
H35   H     H_    0.916335 0.678576 0.171648 0.052147
H36   H     H_    0.428702 0.692100 0.679523 0.095785
O1    O     O_2   0.860810 0.457220 0.330270 -0.442515
O2    O     O_3   0.690867 0.719038 0.650861 -0.606499
O3    O     O_3   0.117333 0.797664 0.318528 -0.600942
O4    O     O_2   0.328890 0.542810 0.669780 -0.478114
O5    O     O_3   0.074140 0.545440 0.583400 -0.459073
O6    O     O_3   0.534240 0.380100 0.625630 -0.469938
O7    O     O_3   0.189822 0.683758 0.655476 -0.632251
O8    O     O_3   0.605420 0.392640 0.463580 -0.523647
O9    O     O_3   0.108810 0.335010 0.590270 -0.520915
O10   O     O_2   0.144260 0.184960 0.526645 -0.414637
O11   O     O_3   0.136659 0.170688 0.658211 -0.588918
O12   O     O_3   0.115570 0.454630 0.416610 -0.542293
O13   O     O_3   0.584290 0.607440 0.536430 -0.487914
O14   O     O_2   0.331880 0.280530 0.464130 -0.416803
O15   O     O_3   0.466062 0.244905 0.354261 -0.569537
O16   O     O_2   0.443017 0.440876 0.744159 -0.476329
O17   O     O_3   0.512402 0.287448 0.745544 -0.619604
O18   O     O_3   0.655480 0.619980 0.374380 -0.491307
O19   O     O_2   0.719859 0.571506 0.248477 -0.399560
O20   O     O_3   0.953990 0.314940 0.309666 -0.640841
O21   O     O_3   0.639150 0.720785 0.260691 -0.574693
O22   O     O_2   0.857830 0.719490 0.535920 -0.455726
O23   O     O_3   0.080900 0.665060 0.409740 -0.496656
O24   O     O_2   0.032636 0.823757 0.445364 -0.398520
P1    P     P_3+3 0.028530 0.430100 0.340790 0.966633
P2    P     P_3+3 0.683360 0.705380 0.556640 1.072910
P3    P     P_3+3 0.147367 0.776472 0.406733 1.005001
P4    P     P_3+3 0.161190 0.569970 0.659220 0.963219
P5    P     P_3+3 0.052652 0.217584 0.585051 0.969420
P6    P     P_3+3 0.598624 0.615052 0.284413 0.998508
P7    P     P_3+3 0.506928 0.279426 0.445850 1.005018
P8    P     P_3+3 0.569314 0.392008 0.718118 0.952895
N1    N     N_2   0.906427 0.242605 0.409813 -0.470222
H37   H     H_    0.787804 0.222943 0.397151 0.194345
C47   C     C_3   0.939301 0.321943 0.456921 -0.071847
H38   H     H_    0.895267 0.319877 0.505708 0.011220
H39   H     H_    0.873384 0.369516 0.436898 0.118446
H40   H     H_    0.067196 0.339717 0.471416 0.195974
S1    S     S_3+6 0.955986 0.156419 0.206384 0.041002
O25   O     O_2   0.050187 0.095503 0.172961 -0.175098
O26   O     O_2   0.789624 0.126336 0.171701 -0.230180
O27   O     O_3   0.022316 0.257180 0.186228 -0.537848
H41   H     H_    0.060980 0.248339 0.139646 0.391879
S2    S     S_3+6 0.803065 0.069281 0.319043 -0.034751
O28   O     O_2   0.765229 0.002038 0.255659 -0.195064
O29   O     O_2   0.850471 0.024284 0.380972 -0.263169
O30   O     O_3   0.636273 0.102448 0.333720 -0.627927
H42   H     H_    0.554452 0.048303 0.327856 0.366830
S3    S     S_3+6 0.135571 0.101967 0.325543 -0.006946
O31   O     O_2   0.265768 0.130337 0.282978 -0.341464
O32   O     O_2   0.190888 0.124717 0.402531 -0.320665
O33   O     O_3   0.089539 0.993029 0.309885 -0.347571
H43   H     H_    0.186678 0.973227 0.326464 0.343790
N2    N     N_2   0.747821 0.635155 0.743613 -0.450611
H44   H     H_    0.837853 0.624255 0.778364 0.183552
C48   C     C_3   0.624918 0.657442 0.782912 -0.125803
H45   H     H_    0.658068 0.658385 0.840612 0.134235
H46   H     H_    0.516062 0.608321 0.768286 0.114947
H47   H     H_    0.604888 0.721552 0.773501 0.165362
S4    S     S_3+6 0.932725 0.817856 0.809097 -0.033977
O34   O     O_2   0.949442 0.759674 0.866157 -0.305156
O35   O     O_2   0.068059 0.894072 0.824054 -0.209453
O36   O     O_3   0.764429 0.854921 0.814064 -0.507489
H48   H     H_    0.778819 0.909594 0.791802 0.363420
N3    N     N_2   0.412170 0.893837 0.239474 -0.464882
H49   H     H_    0.308191 0.870847 0.257850 0.256359
C49   C     C_3   0.395207 0.952997 0.187086 -0.121121
H50   H     H_    0.325839 0.917310 0.137713 0.140514
H51   H     H_    0.511724 0.985379 0.174593 0.180054
H52   H     H_    0.333693 0.004115 0.207682 0.192885
N4    N     N_2   0.493768 0.366076 0.290484 -0.405064
H53   H     H_    0.519136 0.420029 0.328561 0.181918
C50   C     C_3   0.326593 0.341739 0.265734 -0.013097
H54   H     H_    0.261147 0.352531 0.310831 0.007081
H55   H     H_    0.289753 0.272490 0.243742 0.211658
H56   H     H_    0.296642 0.379148 0.222666 0.108906
S5    S     S_3+6 0.502893 0.247474 0.152563 -0.039968
O37   O     O_2   0.488851 0.339658 0.143457 -0.240779
O38   O     O_2   0.610787 0.220209 0.101702 -0.203027
O39   O     O_3   0.324258 0.183592 0.128991 -0.489887
H57   H     H_    0.342679 0.123564 0.124905 0.361074
N5    N     N_2   0.142468 0.742285 0.158732 -0.454096
H58   H     H_    0.203590 0.693073 0.166667 0.153514
C51   C     C_3   0.116631 0.752704 0.084072 -0.187933
H59   H     H_    0.230205 0.760260 0.061500 0.108248
H60   H     H_    0.072496 0.812824 0.075058 0.189794
H61   H     H_    0.031309 0.695810 0.055182 0.121233
N6    N     N_2   0.998768 0.244416 0.731463 -0.448829
H62   H     H_    0.903802 0.195348 0.712649 0.209276
C52   C     C_3   0.981569 0.331771 0.729931 -0.322853
H63   H     H_    0.949501 0.351612 0.781717 0.140779
H64   H     H_    0.893432 0.333636 0.684864 0.065290
H65   H     H_    0.091820 0.377052 0.724167 0.131810
N7    N     N_2   0.255011 0.274583 0.845904 -0.468349
H66   H     H_    0.172215 0.313362 0.849430 0.194457
C53   C     C_3   0.333246 0.263954 0.913984 -0.114447
H67   H     H_    0.422345 0.222403 0.907933 0.135101
H68   H     H_    0.245526 0.234342 0.947402 0.182815
H69   H     H_    0.393602 0.328915 0.941233 0.103004
S6    S     S_3+6 0.088462 0.110717 0.819894 -0.057621
O40   O     O_2   0.177822 0.071148 0.875341 -0.217368
O41   O     O_2   0.953422 0.142235 0.850372 -0.355787
O42   O     O_3   0.021633 0.035581 0.750092 -0.458378
H70   H     H_    0.906032 0.023160 0.750914 0.386452
N8    N     N_2   0.427109 0.098648 0.701659 -0.405756
H71   H     H_    0.367949 0.042101 0.717322 0.234610
C54   C     C_3   0.421687 0.093535 0.626235 -0.188411
H72   H     H_    0.302479 0.061046 0.600789 0.141795
H73   H     H_    0.505604 0.054028 0.608874 0.126135
H74   H     H_    0.445955 0.159692 0.610095 0.137208
N9    N     N_2   0.566019 0.127291 0.818667 -0.433104
H75   H     H_    0.641664 0.173802 0.853755 0.207768
C55   C     C_3   0.569297 0.041163 0.839049 -0.101283
H76   H     H_    0.536412 0.038654 0.893515 0.163068
H77   H     H_    0.689859 0.027755 0.838894 0.150047
H78   H     H_    0.485411 0.989505 0.803592 0.108720
S7    S     S_3+6 0.889893 0.441070 0.152863 -0.031323
O43   O     O_2   0.846843 0.508899 0.108240 -0.304007
O44   O     O_2   0.872141 0.356779 0.105954 -0.276698
O45   O     O_3   0.756743 0.422492 0.207825 -0.397652
H79   H     H_    0.770992 0.365822 0.221961 0.365054
N10   N     N_2   0.923682 0.347518 0.920998 -0.458868
H80   H     H_    0.975014 0.293416 0.920900 0.238117
C56   C     C_3   0.768162 0.330497 0.944094 -0.145206
H81   H     H_    0.678156 0.316333 0.897238 0.073239
H82   H     H_    0.744139 0.387483 0.977599 0.180240
H83   H     H_    0.754807 0.273194 0.974321 0.184171
S8    S     S_3+6 0.788460 0.927871 0.604074 -0.149500
O46   O     O_2   0.768916 0.016480 0.633842 -0.414206
O47   O     O_2   0.769468 0.874868 0.663592 -0.332271
O48   O     O_3   0.971044 0.931546 0.581295 -0.531597
H84   H     H_    0.037484 0.982364 0.611823 0.372737
S9    S     S_3+6 0.919749 0.830738 0.192283 0.008398
O49   O     O_2   0.864736 0.853908 0.262186 -0.177495
O50   O     O_2   0.036252 0.907304 0.176689 -0.211086
O51   O     O_3   0.767471 0.808298 0.127482 -0.523894
H85   H     H_    0.806455 0.780373 0.086315 0.329247
N11   N     N_2   0.382122 0.802229 0.638658 -0.456479
H86   H     H_    0.488568 0.842232 0.657018 0.231895
C57   C     C_3   0.263584 0.851485 0.617429 -0.175047
H87   H     H_    0.311331 0.898714 0.581823 0.089570
H88   H     H_    0.231967 0.889144 0.664207 0.119562
H89   H     H_    0.157397 0.807634 0.587816 0.190192

loop_
_geom_bond_atom_site_label_1
_geom_bond_atom_site_label_2
_ccdc_geom_bond_type
O7    P4    S    
C57   H89   S    
O27   H41   S    
C28   H27   S    
N4    C50   S    
C39   C40   A    
S1    O26   D    
C23   S9    S    
C17   C18   A    
C32   C40   S    
C48   H47   S    
S2    O28   D    
S5    O37   D    
N3    H49   S    
C46   H9    S    
C43   C44   S    
N6    H62   S    
S9    O51   S    
C10   C11   A    
O5    P4    S    
Ba2   P4    S    
C50   H54   S    
C29   H34   S    
C14   H26   S    
C4    H13   S    
C44   S2    S    
O39   H57   S    
O2    P2    S    
C22   C24   A    
C12   O3    S    
Ba1   Ba2   S    
O1    P1    D    
N1    C47   S    
O15   P7    S    
O20   P1    S    
C52   H63   S    
N10   C56   S    
C22   H25   S    
C47   H40   S    
O3    P3    S    
C43   N1    S    
C13   C14   A    
C33   H32   S    
S6    O40   D    
C46   S4    S    
Ba2   O6    S    
C16   C17   A    
S7    O43   D    
C49   H52   S    
N8    C54   S    
C7    H18   S    
C10   P1    S    
Ba2   O5    S    
C9    H29   S    
O36   H48   S    
Ba1   P1    S    
C22   C27   A    
C39   S8    S    
C1    H7    S    
C51   H61   S    
C9    C15   A    
C3    O15   S    
Ba2   O13   S    
C53   H68   S    
C14   C15   A    
O16   P8    D    
S3    O33   S    
C49   H50   S    
C4    S5    S    
Ba2   O4    S    
O6    P8    S    
C30   P5    S    
C7    C8    S    
Ba2   O9    S    
C53   H69   S    
Ba1   O22   S    
C6    S6    S    
C51   H60   S    
C43   H5    S    
C50   H55   S    
C5    N6    S    
C57   H87   S    
C25   C28   A    
N5    C51   S    
S7    O44   D    
N11   H86   S    
S4    O36   S    
O11   P5    S    
C20   H24   S    
O51   H85   S    
S5    O38   D    
O10   P5    D    
N6    C52   S    
C15   P6    S    
N7    H66   S    
C7    H17   S    
C18   C27   S    
C47   H39   S    
Ba1   O1    S    
C36   C37   A    
C1    N3    S    
C8    N8    S    
C3    H11   S    
C16   C21   A    
C45   O2    S    
C4    H12   S    
O21   P6    S    
S1    O25   D    
O19   P6    D    
C48   H45   S    
S4    O35   D    
Ba1   O13   S    
N10   H80   S    
C56   H81   S    
S1    O27   S    
C38   P2    S    
C36   H30   S    
S9    O49   D    
C3    N4    S    
Ba2   O12   S    
C29   C35   A    
C57   H88   S    
C12   H28   S    
C19   N10   S    
C55   H78   S    
Ba2   O8    S    
O48   H84   S    
C54   H73   S    
O18   P6    S    
C43   O20   S    
Ba1   P2    S    
S3    O31   D    
C45   C46   S    
S8    O48   S    
C32   C33   A    
C38   C41   A    
C26   H21   S    
C31   C32   A    
N8    H71   S    
C37   P3    S    
O9    P5    S    
S8    O46   D    
C55   H77   S    
N11   C57   S    
C52   H65   S    
C5    H15   S    
O12   P1    S    
N2    C48   S    
C6    H16   S    
C45   H6    S    
C42   H3    S    
C56   H82   S    
C51   H59   S    
Ba1   O23   S    
C25   P4    S    
C24   C28   A    
Ba1   O8    S    
C11   C13   A    
C56   H83   S    
N5    H58   S    
C41   H33   S    
S7    O45   S    
C44   S1    S    
C34   C42   S    
S9    O50   D    
O30   H42   S    
C26   C27   A    
S2    O30   S    
C34   N11   S    
N4    H53   S    
S5    O39   S    
C53   H67   S    
C34   O7    S    
S3    O32   D    
O22   P2    D    
C1    H14   S    
C42   H2    S    
C16   H23   S    
C46   H8    S    
C38   C39   A    
Ba1   O5    S    
C33   C35   A    
C18   C19   A    
O23   P3    S    
C29   C30   A    
C31   H31   S    
C48   H46   S    
O33   H43   S    
S2    O29   D    
N7    C53   S    
C47   H38   S    
O24   P3    D    
C36   C40   A    
C35   P7    S    
C23   N5    S    
C50   H56   S    
C5    O11   S    
C2    O21   S    
N1    H37   S    
S6    O41   D    
S6    O42   S    
C2    H1    S    
S4    O34   D    
C30   C31   A    
N3    C49   S    
C54   H74   S    
O42   H70   S    
C8    H19   S    
C8    N9    S    
C44   S3    S    
O13   P2    S    
C42   H4    S    
O14   P7    D    
C3    C4    S    
Ba2   O14   S    
C34   H36   S    
Ba1   O12   S    
C45   N2    S    
C13   C21   S    
C52   H64   S    
C11   S7    S    
C49   H51   S    
C12   C23   S    
C55   H76   S    
C54   H72   S    
O8    P7    S    
C24   P8    S    
C5    C6    S    
N2    H44   S    
S8    O47   D    
N9    H75   S    
O4    P4    D    
C6    N7    S    
O45   H79   S    
C37   C41   A    
C7    O17   S    
C2    H10   S    
C25   C26   A    
C23   H35   S    
O17   P8    S    
C12   H20   S    
C20   C21   A    
C17   H22   S    
C19   C20   A    
Ba1   O18   S    
C1    C2    S    
C9    C10   A    
N9    C55   S    
