data_mof_unit_59585.cif
_audit_creation_date              2012-12-10T17:50:41-0500
_audit_creation_method            fapswitch 2.2
_symmetry_space_group_name_H-M    P1
_symmetry_Int_Tables_number       1
_space_group_crystal_system       triclinic
_cell_length_a                    15.71744
_cell_length_b                    10.724292
_cell_length_c                    9.951945
_cell_angle_alpha                 89.867577
_cell_angle_beta                  89.260032
_cell_angle_gamma                 93.616229
_cell_volume                      1673.99622366

loop_
_atom_site_label
_atom_site_type_symbol
_atom_type_description
_atom_site_fract_x
_atom_site_fract_y
_atom_site_fract_z
_atom_type_partial_charge
C1    C     C_R   0.506979 0.260902 0.500865 0.858785
C2    C     C_R   0.515151 0.054866 0.873963 -0.147840
C3    C     C_R   0.467941 0.940942 0.872397 -0.179577
C4    C     C_R   0.338118 0.500125 0.500695 0.891079
C5    C     C_R   0.451334 0.881418 0.750260 -0.157852
C6    C     C_R   0.481511 0.936559 0.627527 0.100878
C7    C     C_R   0.512061 0.061585 0.628457 0.086331
C8    C     C_R   0.513722 0.127673 0.504531 -0.128207
C9    C     C_R   0.506240 0.064010 0.382519 -0.221584
C10   C     C_R   0.494949 0.936474 0.382155 -0.220546
C11   C     C_R   0.484355 0.871729 0.503725 -0.128769
C12   C     C_3   0.082985 0.500597 0.502674 0.165683
C13   C     C_R   0.394229 0.328489 0.151606 -0.138857
C14   C     C_R   0.345228 0.233649 0.093619 -0.260327
C15   C     C_R   0.342017 0.226632 0.957072 -0.220468
C16   C     C_R   0.492686 0.738903 0.500714 0.874417
C17   C     C_R   0.386837 0.315325 0.874942 0.153602
C18   C     C_R   0.445745 0.411387 0.931248 0.092340
C19   C     C_R   0.447227 0.413932 0.076127 0.124099
C20   C     C_R   0.551058 0.581454 0.069996 -0.179952
C21   C     C_R   0.551507 0.581493 0.926893 0.145684
C22   C     C_R   0.661925 0.500505 0.499258 0.905969
C23   C     C_3   0.973106 0.577251 0.595892 -0.152575
C24   C     C_3   0.966371 0.382357 0.524554 -0.173373
C25   C     C_3   0.025797 0.424375 0.407464 0.150402
C26   C     C_1   0.249187 0.500319 0.502372 -0.199630
C27   C     C_1   0.750891 0.499855 0.497664 -0.188638
C28   C     C_3   0.024416 0.460928 0.621963 -0.196920
C29   C     C_3   0.917098 0.499022 0.498206 0.182210
C30   C     C_3   0.033143 0.616650 0.476285 -0.194165
C31   C     C_3   0.975154 0.538728 0.378275 -0.170723
C32   C     C_1   0.173878 0.500482 0.503095 -0.092625
C33   C     C_1   0.826216 0.499307 0.497322 -0.072178
C34   C     C_R   0.537504 0.115084 0.753105 -0.156881
H1    H     H_    0.446597 0.896723 0.965841 0.138671
H2    H     H_    0.062233 0.712226 0.457457 0.138664
H3    H     H_    0.949029 0.640541 0.673819 0.134886
H4    H     H_    0.046424 0.429940 0.721469 0.140044
H5    H     H_    0.509163 0.112459 0.286710 0.175404
H6    H     H_    0.575595 0.202310 0.759040 0.164939
H7    H     H_    0.532321 0.098390 0.968701 0.142481
H8    H     H_    0.091501 0.275080 0.352550 0.176985
H9    H     H_    0.098144 0.393585 0.241624 0.184768
H10   H     H_    0.369161 0.214618 0.705756 0.174858
H11   H     H_    0.298199 0.321952 0.732938 0.162485
H12   H     H_    0.413832 0.793387 0.753256 0.162908
H13   H     H_    0.595855 0.758003 0.885720 0.174725
H14   H     H_    0.670327 0.651474 0.881847 0.163206
H15   H     H_    0.495021 0.888832 0.286236 0.169106
H16   H     H_    0.592900 0.648074 0.122873 0.146687
H17   H     H_    0.387695 0.331482 0.257135 0.217649
H18   H     H_    0.306997 0.167618 0.155262 0.158330
H19   H     H_    0.299947 0.154180 0.913193 0.146761
H20   H     H_    0.937670 0.286342 0.542041 0.134674
H21   H     H_    0.953536 0.568534 0.278094 0.134590
N1    N     N_R   0.499210 0.498800 0.142780 -0.121364
N2    N     N_R   0.499180 0.498720 0.857170 -0.112316
N3    N     N_3   0.055964 0.340834 0.304570 -0.467175
N4    N     N_3   0.363207 0.306465 0.738353 -0.361427
N5    N     N_3   0.607997 0.667812 0.854510 -0.388605
O1    O     O_R   0.500000 0.316780 0.614690 -0.617335
O2    O     O_R   0.499990 0.316750 0.385360 -0.644443
O3    O     O_R   0.376780 0.500000 0.614650 -0.601557
O4    O     O_R   0.376770 0.499980 0.385310 -0.637157
O5    O     O_R   0.500010 0.683250 0.614640 -0.607245
O6    O     O_R   0.500000 0.683220 0.385310 -0.620612
O7    O     O_R   0.623230 0.500020 0.614690 -0.598111
O8    O     O_R   0.623220 0.500000 0.385350 -0.609404
Zn1   Zn    Zn3+2 0.500010 0.500020 0.653130 0.959968
Zn2   Zn    Zn3+2 0.499990 0.499980 0.346870 0.934172

loop_
_geom_bond_atom_site_label_1
_geom_bond_atom_site_label_2
_ccdc_geom_bond_type
C19   N1    A    
C25   C31   S    
C4    C26   S    
C30   H2    S    
C21   N2    A    
C6    C7    A    
C12   C32   S    
O4    Zn2   S    
C3    H1    S    
C1    C8    S    
C24   C28   S    
C9    C10   A    
C4    O4    A    
C18   N2    A    
C14   C15   A    
C28   H4    S    
C12   C25   S    
C20   N1    A    
H14   N5    S    
C10   C11   A    
C1    O2    A    
C2    C34   A    
C2    C3    A    
C3    C5    A    
C22   O8    A    
C7    C8    A    
C29   C31   S    
C23   H3    S    
C13   C14   A    
C27   C33   T    
C26   C32   T    
C4    O3    A    
H8    N3    S    
O6    Zn2   S    
C5    H12   S    
C17   N4    S    
C34   H6    S    
C23   C29   S    
C12   C28   S    
C17   C18   A    
N1    Zn2   S    
C22   C27   S    
N2    Zn1   S    
C5    C6    A    
C7    C34   A    
O5    Zn1   S    
C22   O7    A    
C23   C28   S    
C25   N3    S    
C13   C19   A    
H10   N4    S    
C24   H20   S    
C23   C30   S    
C15   H19   S    
C24   C29   S    
C16   O6    A    
C24   C25   S    
O2    Zn2   S    
C21   N5    S    
O8    Zn2   S    
C18   C19   A    
C11   C16   S    
O1    Zn1   S    
C6    C11   A    
C15   C17   A    
C30   C31   S    
H11   N4    S    
C20   H16   S    
C16   O5    A    
C2    H7    S    
H9    N3    S    
C31   H21   S    
H13   N5    S    
C13   H17   S    
C10   H15   S    
C12   C30   S    
C20   C21   A    
C9    H5    S    
C14   H18   S    
O3    Zn1   S    
C29   C33   S    
C8    C9    A    
O7    Zn1   S    
C1    O1    A    
