data_mof_unit_66357.cif
_audit_creation_date              2012-12-10T20:01:10-0500
_audit_creation_method            fapswitch 2.2
_symmetry_space_group_name_H-M    P1
_symmetry_Int_Tables_number       1
_space_group_crystal_system       triclinic
_cell_length_a                    32.117656
_cell_length_b                    32.119875
_cell_length_c                    23.558676
_cell_angle_alpha                 90.03983
_cell_angle_beta                  90.014605
_cell_angle_gamma                 90.08696
_cell_volume                      24303.4511433

loop_
_atom_site_label
_atom_site_type_symbol
_atom_type_description
_atom_site_fract_x
_atom_site_fract_y
_atom_site_fract_z
_atom_type_partial_charge
C1    C     C_R   0.999966 0.419329 0.499977 0.885592
C2    C     C_1   0.162079 0.999917 0.500022 0.041971
C3    C     C_R   0.728544 0.970685 0.466274 0.416070
C4    C     C_R   0.027003 0.271375 0.537116 0.410438
C5    C     C_R   0.728750 0.027558 0.536213 0.389591
C6    C     C_R   0.972022 0.728579 0.535029 0.410464
C7    C     C_R   0.271337 0.971253 0.534578 0.406518
C8    C     C_R   0.468292 0.771306 0.970295 0.408769
C9    C     C_R   0.771473 0.525825 0.962137 0.417318
C10   C     C_R   0.528343 0.228704 0.964868 0.405485
C11   C     C_R   0.228607 0.472189 0.963951 0.409684
C12   C     C_R   0.530715 0.771441 0.030708 0.409925
C13   C     C_1   0.000227 0.837933 0.499918 0.041989
C14   C     C_R   0.228679 0.527327 0.036463 0.403848
C15   C     C_R   0.469705 0.228559 0.031974 0.412616
C16   C     C_R   0.771364 0.473656 0.038414 0.367290
C17   C     C_R   0.999610 0.293340 0.500753 -0.179134
C18   C     C_R   0.293389 0.999825 0.499865 -0.182875
C19   C     C_R   0.000234 0.706675 0.499782 -0.179846
C20   C     C_R   0.706681 0.999399 0.500921 -0.172315
C21   C     C_R   0.499548 0.793349 0.000490 -0.179530
C22   C     C_R   0.793434 0.499751 0.000328 -0.175243
C23   C     C_R   0.499328 0.206642 0.998766 -0.179137
C24   C     C_1   0.837939 0.999561 0.500353 0.041443
C25   C     C_R   0.206626 0.499872 0.000031 -0.181657
C26   C     C_1   0.499678 0.662108 0.000226 0.042141
C27   C     C_1   0.662051 0.499685 0.999928 0.039761
C28   C     C_1   0.499470 0.337917 0.999439 0.042009
C29   C     C_1   0.337913 0.499911 0.000047 0.041938
C30   C     C_1   0.999817 0.337794 0.500450 0.208615
C31   C     C_1   0.337858 0.999774 0.499646 0.204785
C32   C     C_1   0.000207 0.662188 0.499935 0.207528
C33   C     C_R   0.419334 0.999967 0.499847 0.888594
C34   C     C_1   0.662215 0.000041 0.499940 0.188841
C35   C     C_1   0.499659 0.837872 0.000332 0.207429
C36   C     C_1   0.837888 0.499770 0.000348 0.179039
C37   C     C_1   0.499919 0.162170 0.999895 0.203855
C38   C     C_1   0.162142 0.500137 0.999615 0.201012
C39   C     C_1   0.999885 0.375102 0.500158 -0.017801
C40   C     C_1   0.375162 0.999872 0.499642 -0.015186
C41   C     C_1   0.000104 0.624879 0.500063 -0.016691
C42   C     C_1   0.624890 0.000173 0.499568 -0.045050
C43   C     C_1   0.499838 0.875191 0.000189 -0.017977
C44   C     C_R   0.000029 0.580677 0.500077 0.886055
C45   C     C_1   0.875172 0.499858 0.000225 -0.028811
C46   C     C_1   0.500095 0.124843 0.000398 -0.022959
C47   C     C_1   0.124828 0.500160 0.999570 -0.020309
C48   C     C_1   0.999823 0.124792 0.500081 -0.149453
C49   C     C_1   0.124815 0.999956 0.500022 -0.149468
C50   C     C_1   0.000138 0.875183 0.499943 -0.149479
C51   C     C_1   0.875183 0.999770 0.500072 -0.149257
C52   C     C_1   0.499822 0.624859 0.000085 -0.149682
C53   C     C_1   0.624806 0.499830 0.999993 -0.148963
C54   C     C_1   0.499718 0.375172 0.999831 -0.149525
C55   C     C_R   0.580666 0.000049 0.499690 0.890673
C56   C     C_1   0.375181 0.499961 0.000000 -0.149451
C57   C     C_R   0.999995 0.500011 0.390480 0.903679
C58   C     C_R   0.500003 0.999988 0.390479 0.902455
C59   C     C_R   0.000005 0.499988 0.609520 0.901818
C60   C     C_R   0.500000 0.000013 0.609521 0.908077
C61   C     C_R   0.499995 0.000016 0.890480 0.905290
C62   C     C_R   0.000003 0.499987 0.890479 0.903956
C63   C     C_R   0.500005 0.999989 0.109520 0.900555
C64   C     C_R   0.999998 0.500012 0.109521 0.909752
C65   C     C_R   0.080650 0.999999 0.500007 0.900877
C66   C     C_R   0.499963 0.919367 0.000039 0.884395
C67   C     C_R   0.000035 0.919371 0.499982 0.901155
C68   C     C_R   0.919370 0.999974 0.500000 0.901203
C69   C     C_R   0.999972 0.080629 0.500015 0.901283
C70   C     C_R   0.580614 0.499978 0.000005 0.901507
C71   C     C_R   0.499964 0.419368 0.999975 0.900985
C72   C     C_R   0.419348 0.500002 0.999995 0.900777
C73   C     C_R   0.499981 0.580634 0.000019 0.901058
C74   C     C_1   0.999987 0.500026 0.330361 -0.136062
C75   C     C_1   0.500009 0.999968 0.330356 -0.140324
C76   C     C_1   0.000014 0.499973 0.669639 -0.138815
C77   C     C_R   0.919368 0.499963 0.000045 0.896894
C78   C     C_1   0.499995 0.000034 0.669644 -0.135814
C79   C     C_1   0.499988 0.000032 0.830361 -0.137182
C80   C     C_1   0.000010 0.499967 0.830355 -0.138885
C81   C     C_1   0.500013 0.999976 0.169639 -0.139369
C82   C     C_1   0.999992 0.500033 0.169644 -0.132507
C83   C     C_1   0.999988 0.500037 0.279622 0.051115
C84   C     C_1   0.500012 0.999961 0.279615 0.046781
C85   C     C_1   0.000013 0.499962 0.720378 0.047661
C86   C     C_1   0.499992 0.000045 0.720385 0.050343
C87   C     C_1   0.499990 0.000044 0.779622 0.049533
C88   C     C_R   0.500038 0.080629 0.000354 0.888722
C89   C     C_1   0.000013 0.499959 0.779615 0.047677
C90   C     C_1   0.500013 0.999965 0.220378 0.046898
C91   C     C_1   0.999989 0.500041 0.220385 0.052554
C92   C     C_R   0.026264 0.227867 0.536744 -0.212503
C93   C     C_R   0.227858 0.971890 0.534228 -0.209243
C94   C     C_R   0.972758 0.772047 0.534916 -0.213977
C95   C     C_R   0.772250 0.027137 0.535411 -0.206888
C96   C     C_R   0.972720 0.227923 0.464585 -0.213869
C97   C     C_R   0.772027 0.971323 0.466547 -0.215881
C98   C     C_R   0.027755 0.772169 0.464848 -0.211091
C99   C     C_R   0.080681 0.500043 0.999797 0.890498
C100  C     C_R   0.227946 0.027899 0.465704 -0.211458
C101  C     C_R   0.530002 0.727994 0.030550 -0.213731
C102  C     C_R   0.727882 0.474146 0.037695 -0.201047
C103  C     C_R   0.470376 0.272022 0.031761 -0.214375
C104  C     C_R   0.272154 0.526873 0.035851 -0.208829
C105  C     C_R   0.469040 0.727818 0.970437 -0.213031
C106  C     C_R   0.272075 0.472737 0.964456 -0.210704
C107  C     C_R   0.527816 0.272185 0.965583 -0.209844
C108  C     C_R   0.728018 0.525075 0.962324 -0.213551
C109  C     C_R   0.999529 0.206428 0.500566 -0.003075
C110  C     C_1   0.999673 0.162054 0.500265 0.042088
C111  C     C_R   0.206455 0.999906 0.499994 -0.003938
C112  C     C_R   0.000261 0.793587 0.499914 -0.002939
C113  C     C_R   0.793613 0.999306 0.500810 -0.001847
C114  C     C_R   0.499559 0.706429 0.000436 -0.002765
C115  C     C_R   0.706428 0.499559 0.999885 -0.001847
C116  C     C_R   0.499187 0.293583 0.998846 -0.003161
C117  C     C_R   0.293550 0.499830 0.000131 -0.003601
C118  C     C_R   0.972010 0.271379 0.464498 0.409532
C119  C     C_R   0.271398 0.028493 0.465325 0.409882
C120  C     C_R   0.028410 0.728685 0.464477 0.406935
H1    H     H_    0.046728 0.210628 0.564761 0.202938
H2    H     H_    0.710587 0.454585 0.066955 0.202119
H3    H     H_    0.448395 0.289235 0.057600 0.203176
H4    H     H_    0.289386 0.547834 0.063287 0.201765
H5    H     H_    0.445624 0.710568 0.946956 0.202860
H6    H     H_    0.289258 0.451969 0.936772 0.202230
H7    H     H_    0.550131 0.289507 0.940291 0.201569
H8    H     H_    0.710858 0.544723 0.933093 0.202744
H9    H     H_    0.094813 0.354377 0.594287 0.399045
H10   H     H_    0.355638 0.904271 0.587124 0.398824
H11   H     H_    0.900632 0.646413 0.585188 0.400014
H12   H     H_    0.210644 0.950327 0.560743 0.202024
H13   H     H_    0.638376 0.079645 0.578937 0.381944
H14   H     H_    0.900902 0.352838 0.413323 0.401697
H15   H     H_    0.645660 0.900686 0.414818 0.399446
H16   H     H_    0.098942 0.646388 0.414777 0.399863
H17   H     H_    0.354884 0.097207 0.411237 0.399079
H18   H     H_    0.605675 0.853762 0.069629 0.400078
H19   H     H_    0.849644 0.408120 0.056946 0.377052
H20   H     H_    0.397491 0.146439 0.078118 0.401015
H21   H     H_    0.141587 0.586310 0.094889 0.395341
H22   H     H_    0.393607 0.853361 0.931684 0.400272
H23   H     H_    0.951756 0.789265 0.562248 0.203381
H24   H     H_    0.144481 0.406376 0.905827 0.399384
H25   H     H_    0.588210 0.141630 0.907000 0.396628
H26   H     H_    0.853611 0.594058 0.906496 0.400146
H27   H     H_    0.789562 0.048839 0.561715 0.201184
H28   H     H_    0.952303 0.210614 0.436436 0.203493
H29   H     H_    0.789210 0.949995 0.439657 0.202989
H30   H     H_    0.048859 0.789427 0.437621 0.202837
H31   H     H_    0.210728 0.049334 0.439059 0.202691
H32   H     H_    0.553385 0.710762 0.054034 0.203227
O1    O     O_R   0.965560 0.438990 0.499980 -0.598239
O2    O     O_R   0.938990 0.534440 0.999980 -0.596416
O3    O     O_R   0.534440 0.061010 0.999980 -0.607643
O4    O     O_R   0.061010 0.465560 0.999980 -0.597557
O5    O     O_R   0.534440 0.938990 0.000020 -0.597243
O6    O     O_R   0.061010 0.534440 0.000020 -0.608287
O7    O     O_R   0.465560 0.061010 0.000020 -0.595108
O8    O     O_R   0.938990 0.465560 0.000020 -0.610282
O9    O     O_R   0.060930 0.999970 0.453240 -0.607127
O10   O     O_R   0.999970 0.939070 0.453240 -0.607267
O11   O     O_R   0.939070 0.000030 0.453240 -0.607269
O12   O     O_R   0.438990 0.034440 0.499980 -0.597425
O13   O     O_R   0.000030 0.060930 0.453240 -0.607206
O14   O     O_R   0.939070 0.999970 0.546760 -0.607150
O15   O     O_R   0.000030 0.939070 0.546760 -0.607305
O16   O     O_R   0.060930 0.000030 0.546760 -0.607138
O17   O     O_R   0.999970 0.060930 0.546760 -0.607293
O18   O     O_R   0.560930 0.499970 0.953240 -0.607530
O19   O     O_R   0.499970 0.439070 0.953240 -0.607236
O20   O     O_R   0.439070 0.500030 0.953240 -0.607190
O21   O     O_R   0.500030 0.560930 0.953240 -0.607178
O22   O     O_R   0.439070 0.499970 0.046760 -0.607088
O23   O     O_R   0.034440 0.561010 0.499980 -0.599728
O24   O     O_R   0.500030 0.439070 0.046760 -0.607166
O25   O     O_R   0.560930 0.500030 0.046760 -0.607243
O26   O     O_R   0.499970 0.560930 0.046760 -0.607201
O27   O     O_R   0.965560 0.499980 0.417220 -0.604659
O28   O     O_R   0.499980 0.034440 0.417220 -0.605776
O29   O     O_R   0.034440 0.500020 0.417220 -0.605614
O30   O     O_R   0.500020 0.965560 0.417220 -0.606774
O31   O     O_R   0.034440 0.499980 0.582780 -0.606509
O32   O     O_R   0.500020 0.034440 0.582780 -0.605633
O33   O     O_R   0.965560 0.500020 0.582780 -0.605720
O34   O     O_R   0.561010 0.965560 0.499980 -0.590626
O35   O     O_R   0.499980 0.965560 0.582780 -0.605179
O36   O     O_R   0.465560 0.999980 0.917220 -0.605304
O37   O     O_R   0.999980 0.534440 0.917220 -0.605718
O38   O     O_R   0.534440 0.000020 0.917220 -0.605323
O39   O     O_R   0.000020 0.465560 0.917220 -0.607178
O40   O     O_R   0.534440 0.999980 0.082780 -0.606318
O41   O     O_R   0.000020 0.534440 0.082780 -0.607075
O42   O     O_R   0.465560 0.000020 0.082780 -0.606289
O43   O     O_R   0.999980 0.465560 0.082780 -0.602056
O44   O     O_2   0.043931 0.293457 0.643803 -0.254675
O45   O     O_R   0.034440 0.438990 0.500020 -0.598950
O46   O     O_2   0.102729 0.272340 0.584054 -0.261217
O47   O     O_3   0.071506 0.346064 0.568645 -0.562103
O48   O     O_2   0.284202 0.944105 0.640107 -0.241713
O49   O     O_2   0.277808 0.891777 0.565270 -0.267285
O50   O     O_3   0.347513 0.932424 0.573626 -0.565984
O51   O     O_2   0.954524 0.702816 0.640138 -0.255297
O52   O     O_2   0.896404 0.729062 0.582748 -0.261820
O53   O     O_3   0.924390 0.654823 0.560830 -0.561253
O54   O     O_2   0.726952 0.066024 0.637172 -0.222229
O55   O     O_2   0.708871 0.107200 0.553294 -0.274118
O56   O     O_R   0.561010 0.034440 0.500020 -0.617961
O57   O     O_3   0.653735 0.054821 0.593003 -0.547744
O58   O     O_2   0.956882 0.297659 0.358971 -0.251144
O59   O     O_2   0.897568 0.270641 0.413515 -0.262305
O60   O     O_3   0.924812 0.344885 0.437540 -0.561682
O61   O     O_2   0.705345 0.951040 0.360839 -0.254821
O62   O     O_2   0.727667 0.893941 0.422478 -0.261964
O63   O     O_3   0.654011 0.924907 0.438401 -0.557721
O64   O     O_2   0.048688 0.708869 0.357880 -0.244395
O65   O     O_2   0.105749 0.726844 0.422912 -0.267623
O66   O     O_3   0.071714 0.653422 0.432386 -0.564703
O67   O     O_R   0.965560 0.561010 0.500020 -0.597984
O68   O     O_2   0.290919 0.050384 0.359318 -0.252221
O69   O     O_2   0.273605 0.106406 0.425954 -0.261663
O70   O     O_3   0.346663 0.072272 0.433824 -0.562799
O71   O     O_2   0.557481 0.796426 0.132472 -0.253507
O72   O     O_2   0.610099 0.771184 0.065028 -0.262940
O73   O     O_3   0.579798 0.845466 0.049583 -0.560784
O74   O     O_2   0.788894 0.459687 0.147221 -0.214033
O75   O     O_2   0.774217 0.398848 0.087805 -0.271796
O76   O     O_3   0.846962 0.434329 0.078932 -0.542801
O77   O     O_2   0.447957 0.204300 0.136029 -0.254226
O78   O     O_R   0.438990 0.965560 0.500020 -0.602457
O79   O     O_2   0.392221 0.228190 0.073061 -0.262957
O80   O     O_3   0.422562 0.154416 0.056335 -0.561386
O81   O     O_2   0.223324 0.558785 0.141353 -0.236314
O82   O     O_2   0.214379 0.606847 0.061757 -0.268908
O83   O     O_3   0.152636 0.557848 0.088009 -0.564811
O84   O     O_2   0.439702 0.793605 0.868370 -0.249367
O85   O     O_2   0.388203 0.772095 0.939489 -0.264588
O86   O     O_3   0.420838 0.845821 0.948860 -0.561445
O87   O     O_2   0.213275 0.450136 0.856705 -0.247725
O88   O     O_2   0.223664 0.394231 0.925602 -0.263262
O89   O     O_R   0.465560 0.938990 0.999980 -0.597941
O90   O     O_3   0.152636 0.432538 0.925428 -0.565234
O91   O     O_2   0.566211 0.224709 0.864067 -0.238132
O92   O     O_2   0.608789 0.212688 0.948920 -0.268736
O93   O     O_3   0.559853 0.152899 0.914197 -0.563252
O94   O     O_2   0.791633 0.540895 0.854437 -0.248457
O95   O     O_2   0.773412 0.600778 0.913740 -0.267311
O96   O     O_3   0.846557 0.567881 0.926528 -0.562917
S1    S     S_3+6 0.062140 0.295850 0.584989 0.050850
S2    S     S_3+6 0.795457 0.440795 0.089362 0.063322
S3    S     S_3+6 0.432123 0.203845 0.075959 0.050582
S4    S     S_3+6 0.204673 0.563663 0.083034 0.055998
S5    S     S_3+6 0.428232 0.795705 0.930352 0.051527
S6    S     S_3+6 0.204472 0.436426 0.916570 0.052431
S7    S     S_3+6 0.566905 0.204652 0.921908 0.056169
S8    S     S_3+6 0.795849 0.559673 0.912603 0.051749
S9    S     S_3+6 0.295328 0.933972 0.579646 0.052963
S10   S     S_3+6 0.935976 0.703833 0.581332 0.050910
S11   S     S_3+6 0.704555 0.064967 0.580942 0.063942
S12   S     S_3+6 0.936969 0.296129 0.416890 0.052641
S13   S     S_3+6 0.703855 0.934228 0.420428 0.052411
S14   S     S_3+6 0.064522 0.704406 0.417938 0.052455
S15   S     S_3+6 0.295694 0.065261 0.419690 0.051247
S16   S     S_3+6 0.570538 0.796120 0.070924 0.051347
Zn1   Zn    Zn3+2 0.954010 0.500000 0.500000 1.065209
Zn2   Zn    Zn3+2 1.000000 1.000000 0.562390 1.038830
Zn3   Zn    Zn3+2 0.500000 0.500000 0.937610 1.038593
Zn4   Zn    Zn3+2 0.500000 0.500000 0.062390 1.038901
Zn5   Zn    Zn3+2 0.500000 0.045990 0.500000 1.053971
Zn6   Zn    Zn3+2 0.045990 0.500000 0.500000 1.061758
Zn7   Zn    Zn3+2 0.500000 0.954010 0.500000 1.061223
Zn8   Zn    Zn3+2 0.454010 0.000000 0.000000 1.063415
Zn9   Zn    Zn3+2 1.000000 0.545990 0.000000 1.058390
Zn10  Zn    Zn3+2 0.545990 0.000000 0.000000 1.058567
Zn11  Zn    Zn3+2 1.000000 0.454010 0.000000 1.059399
Zn12  Zn    Zn3+2 1.000000 1.000000 0.437610 1.038805

loop_
_geom_bond_atom_site_label_1
_geom_bond_atom_site_label_2
_ccdc_geom_bond_type
C60   O32   A    
C48   C110  T    
O12   Zn5   S    
C69   O13   A    
C17   C30   S    
H18   O73   S    
H13   O57   S    
O63   S13   S    
O62   S13   D    
C34   C42   T    
C44   O23   A    
C48   C69   S    
O54   S11   D    
O79   S3    D    
C8    C105  A    
C57   O29   A    
O70   S15   S    
O33   Zn1   S    
O48   S9    D    
O72   S16   D    
C5    C20   A    
C31   C40   T    
C9    C108  A    
C6    C19   A    
O93   S7    S    
C65   O16   A    
C60   C78   S    
O17   Zn2   S    
C49   C65   S    
C63   C81   S    
C59   C76   S    
O32   Zn5   S    
C72   O20   A    
C108  C115  A    
O85   S5    D    
O9    Zn12  S    
O64   S14   D    
C85   C89   S    
C4    S1    S    
C104  C117  A    
O20   Zn3   S    
C15   S3    S    
C43   C66   S    
O24   Zn4   S    
C25   C38   S    
O26   Zn4   S    
C9    C22   A    
O57   S11   S    
C118  S12   S    
O78   Zn7   S    
C11   C25   A    
O58   S12   D    
C63   O40   A    
C64   O43   A    
H26   O96   S    
C8    S5    S    
C5    S11   S    
C11   S6    S    
O91   S7    D    
C71   O24   A    
O74   S2    D    
C6    S10   S    
C12   S16   S    
C88   O7    A    
C80   C89   T    
C59   O31   A    
O4    Zn11  S    
C102  C115  A    
C28   C116  S    
O40   Zn10  S    
O52   S10   D    
O34   Zn7   S    
O47   S1    S    
H15   O63   S    
C54   C71   S    
C92   C109  A    
C3    S13   S    
O92   S7    D    
H24   O90   S    
O44   S1    D    
C47   C99   S    
C32   C41   T    
O19   Zn3   S    
C72   O22   A    
O84   S5    D    
C93   H12   S    
C35   C43   T    
C50   C67   S    
C74   C83   T    
O76   S2    S    
O28   Zn5   S    
H10   O50   S    
O51   S10   D    
C92   H1    S    
O53   S10   S    
C20   C34   S    
O95   S8    D    
C78   C86   T    
C24   C51   T    
C15   C23   A    
O30   Zn7   S    
C103  H3    S    
C24   C113  S    
O13   Zn12  S    
O31   Zn6   S    
C79   C87   T    
C99   O4    A    
C14   S4    S    
C101  C114  A    
C10   C107  A    
C44   O67   A    
C84   C90   S    
O83   S4    S    
C11   C106  A    
O3    Zn10  S    
C96   H28   S    
C53   C70   S    
O39   Zn11  S    
O71   S16   D    
C5    C95   A    
C58   C75   S    
C62   O37   A    
C46   C88   S    
O11   Zn12  S    
C100  H31   S    
C7    C93   A    
C119  S15   S    
C2    C111  S    
C33   C40   S    
H14   O60   S    
O86   S5    S    
C10   S7    S    
C88   O3    A    
C105  C114  A    
C3    C20   A    
C33   O12   A    
C95   H27   S    
O7    Zn8   S    
C52   C73   S    
O25   Zn4   S    
O82   S4    D    
O5    Zn10  S    
O80   S3    S    
C28   C54   T    
C86   C87   S    
C6    C94   A    
C76   C85   T    
C23   C37   S    
C29   C117  S    
H17   O70   S    
O60   S12   S    
C61   O36   A    
C82   C91   T    
O61   S13   D    
H19   O76   S    
C4    C17   A    
C57   C74   S    
O2    Zn9   S    
O1    Zn1   S    
C16   S2    S    
C55   O56   A    
C2    C49   T    
C26   C52   T    
C77   O2    A    
C3    C97   A    
C14   C104  A    
C61   C79   S    
C62   C80   S    
H21   O83   S    
C7    C18   A    
O55   S11   D    
C64   O41   A    
O87   S6    D    
O96   S8    S    
C8    C21   A    
O14   Zn2   S    
C63   O42   A    
C36   C45   T    
C55   O34   A    
C100  C119  A    
C69   O17   A    
C108  H8    S    
C1    O1    A    
O23   Zn6   S    
C64   C82   S    
C38   C47   T    
O77   S3    D    
C17   C118  A    
C93   C111  A    
O75   S2    D    
C21   C35   S    
C73   O26   A    
O27   Zn1   S    
C16   C102  A    
C29   C56   T    
C19   C120  A    
H20   O80   S    
C60   O35   A    
C120  S14   S    
C106  C117  A    
O43   Zn11  S    
C61   O38   A    
O90   S6    S    
C41   C44   S    
C71   O19   A    
O50   S9    S    
C9    S8    S    
O42   Zn8   S    
C94   H23   S    
O10   Zn12  S    
O8    Zn11  S    
H11   O53   S    
O21   Zn3   S    
C83   C91   S    
C67   O10   A    
O6    Zn9   S    
O22   Zn4   S    
O29   Zn6   S    
C98   H30   S    
C68   O11   A    
C96   C118  A    
C26   C114  S    
H22   O86   S    
O37   Zn9   S    
C16   C22   A    
O65   S14   D    
C56   C72   S    
O18   Zn3   S    
O67   Zn1   S    
O41   Zn9   S    
C19   C32   S    
C1    O45   A    
C81   C90   T    
O69   S15   D    
O16   Zn2   S    
C57   O27   A    
C27   C53   T    
C70   O25   A    
C98   C120  A    
C62   O39   A    
C104  H4    S    
C66   O89   A    
H25   O93   S    
C10   C23   A    
C13   C112  S    
C22   C36   S    
C96   C109  A    
C106  H6    S    
C101  H32   S    
O88   S6    D    
O89   Zn8   S    
C105  H5    S    
C58   O30   A    
H9    O47   S    
C98   C112  A    
C103  C116  A    
C70   O18   A    
O15   Zn2   S    
C107  H7    S    
C12   C101  A    
C109  C110  S    
C67   O15   A    
O46   S1    D    
O94   S8    D    
C95   C113  A    
C42   C55   S    
O66   S14   S    
C12   C21   A    
C94   C112  A    
C37   C46   T    
C30   C39   T    
C59   O33   A    
C51   C68   S    
C14   C25   A    
C73   O21   A    
C75   C84   T    
O49   S9    D    
C107  C116  A    
C7    S9    S    
C1    C39   S    
C77   O8    A    
O35   Zn7   S    
C13   C50   T    
O68   S15   D    
O59   S12   D    
H16   O66   S    
C100  C111  A    
C58   O28   A    
O56   Zn5   S    
O38   Zn10  S    
C99   O6    A    
C65   O9    A    
C97   H29   S    
C45   C77   S    
C18   C31   S    
O73   S16   S    
C15   C103  A    
O45   Zn6   S    
C102  H2    S    
C97   C113  A    
C18   C119  A    
C66   O5    A    
O36   Zn8   S    
C33   O78   A    
O81   S4    D    
C27   C115  S    
C4    C92   A    
C68   O14   A    
