data_mof_unit_37391.cif
_audit_creation_date              2012-12-10T16:50:06-0500
_audit_creation_method            fapswitch 2.2
_symmetry_space_group_name_H-M    P1
_symmetry_Int_Tables_number       1
_space_group_crystal_system       triclinic
_cell_length_a                    23.483726
_cell_length_b                    8.75279
_cell_length_c                    7.441324
_cell_angle_alpha                 103.025812
_cell_angle_beta                  94.278934
_cell_angle_gamma                 92.235175
_cell_volume                      1483.58445808

loop_
_atom_site_label
_atom_site_type_symbol
_atom_type_description
_atom_site_fract_x
_atom_site_fract_y
_atom_site_fract_z
_atom_type_partial_charge
C1    C     C_R   0.496729 0.200407 0.454725 0.878424
C2    C     C_R   0.503295 0.799596 0.545264 0.881192
C3    C     C_R   0.245917 0.566045 0.678519 -0.060892
C4    C     C_R   0.760821 0.425980 0.632050 -0.070483
C5    C     C_R   0.304940 0.564455 0.673883 -0.206632
C6    C     C_R   0.701812 0.431600 0.630403 -0.158228
C7    C     C_R   0.328713 0.502736 0.507917 -0.100219
C8    C     C_R   0.670884 0.488752 0.493422 -0.115144
C9    C     C_R   0.292627 0.445369 0.346000 -0.294344
C10   C     C_R   0.699644 0.538421 0.356176 -0.275730
C11   C     C_R   0.233096 0.445792 0.348697 0.402293
C12   C     C_R   0.759359 0.535860 0.358868 0.472545
C13   C     C_R   0.209149 0.502838 0.519116 0.215394
C14   C     C_R   0.789908 0.479741 0.499159 0.194966
C15   C     C_2   0.486610 0.034958 0.436957 -0.030339
C16   C     C_2   0.513441 0.965046 0.562971 -0.038789
C17   C     C_R   0.391048 0.500564 0.502453 0.818105
C18   C     C_R   0.608837 0.497778 0.497489 0.824298
C19   C     C_R   0.881590 0.616149 0.605810 0.677049
C20   C     C_R   0.118071 0.352441 0.484844 0.684801
C21   C     C_R   0.876967 0.347487 0.442680 0.653428
C22   C     C_R   0.121869 0.628798 0.607296 0.653886
C23   C     C_R   0.936602 0.345596 0.457940 -0.079319
C24   C     C_R   0.062715 0.624465 0.620234 -0.051929
C25   C     C_R   0.969546 0.484805 0.540453 -0.056950
C26   C     C_R   0.029887 0.483760 0.545610 -0.039314
C27   C     C_R   0.942175 0.624809 0.615447 -0.149777
C28   C     C_R   0.057395 0.342745 0.477261 -0.139656
C29   C     C_R   0.963353 0.206818 0.391272 -0.107973
C30   C     C_R   0.036097 0.760023 0.701666 -0.115899
C31   C     C_R   0.022830 0.201043 0.403091 0.335600
C32   C     C_R   0.976693 0.764822 0.696694 0.435099
Cu1   Cu    Cu3+1 0.506340 0.517380 0.684380 0.955338
Cu2   Cu    Cu3+1 0.493660 0.482620 0.315620 0.952163
H1    H     H_    0.937285 0.100695 0.329655 0.249462
H2    H     H_    0.062125 0.864698 0.768312 0.241078
H3    H     H_    0.228622 0.616505 0.807949 0.219077
H4    H     H_    0.784316 0.382194 0.738893 0.213117
H5    H     H_    0.331943 0.612573 0.800096 0.174977
H6    H     H_    0.680314 0.390997 0.736321 0.178443
H7    H     H_    0.310925 0.399041 0.216752 0.191760
H8    H     H_    0.675670 0.582781 0.250664 0.190429
H9    H     H_    0.455160 0.379326 0.948448 0.230017
H10   H     H_    0.544847 0.620657 0.051552 0.232142
N1    N     N_R   0.851078 0.481833 0.513185 -0.466592
N2    N     N_R   0.148155 0.494988 0.534507 -0.455151
N3    N     N_2   0.484110 0.456420 0.038520 -0.220019
N4    N     N_2   0.515890 0.543580 0.961480 -0.218271
O1    O     O_R   0.504120 0.286130 0.619770 -0.595876
O2    O     O_R   0.495880 0.713870 0.380230 -0.592831
O3    O     O_R   0.493410 0.256770 0.308360 -0.581601
O4    O     O_R   0.506590 0.743230 0.691640 -0.581593
O5    O     O_R   0.423230 0.514630 0.655730 -0.589844
O6    O     O_R   0.576770 0.485370 0.344270 -0.587388
O7    O     O_R   0.412530 0.485280 0.344320 -0.583972
O8    O     O_R   0.587470 0.514720 0.655680 -0.576229
O9    O     O_2   0.852658 0.738201 0.689397 -0.391638
O10   O     O_2   0.147486 0.222375 0.444164 -0.430023
O11   O     O_2   0.844820 0.216076 0.358194 -0.459607
O12   O     O_2   0.152898 0.766633 0.664770 -0.486293
S1    S     S_3+6 0.049649 0.013180 0.316193 0.111596
O13   O     O_2   0.001935 0.887551 0.265538 -0.266804
O14   O     O_2   0.079782 0.017395 0.146355 -0.146667
O15   O     O_3   0.095812 0.964881 0.474876 -0.422762
H11   H     H_    0.089035 0.036654 0.593684 0.366103
S2    S     S_3+6 0.949690 0.952263 0.783594 0.073250
O16   O     O_2   0.908826 0.992567 0.638213 -0.226624
O17   O     O_2   0.919082 0.948321 0.952939 -0.221532
O18   O     O_3   0.002960 0.093233 0.840801 -0.539945
H12   H     H_    0.983762 0.192352 0.882082 0.382283
S3    S     S_3+6 0.191465 0.378483 0.134520 0.042746
O19   O     O_2   0.136083 0.458906 0.133955 -0.242514
O20   O     O_2   0.224403 0.411157 0.981101 -0.335816
O21   O     O_3   0.177808 0.183385 0.093394 -0.402026
H13   H     H_    0.215887 0.138738 0.096593 0.354619
S4    S     S_3+6 0.795168 0.605739 0.189657 0.031431
O22   O     O_2   0.833849 0.483675 0.099611 -0.303757
O23   O     O_2   0.752874 0.640984 0.044727 -0.289269
O24   O     O_3   0.834691 0.770960 0.292151 -0.447429
H14   H     H_    0.859735 0.790660 0.197436 0.412488
C33   C     C_3   0.440399 0.953011 0.288341 -0.818410
H15   H     H_    0.415576 0.038619 0.229763 0.226683
H16   H     H_    0.459913 0.876173 0.171998 0.260476
H17   H     H_    0.409183 0.883534 0.347434 0.233709
C34   C     C_3   0.559688 0.046999 0.711454 -0.803227
H18   H     H_    0.584515 0.961380 0.769986 0.236809
H19   H     H_    0.590892 0.116456 0.652269 0.229117
H20   H     H_    0.540207 0.123871 0.827844 0.258936

loop_
_geom_bond_atom_site_label_1
_geom_bond_atom_site_label_2
_ccdc_geom_bond_type
S2    O17   D    
C10   H8    S    
C31   S1    S    
S4    O24   S    
C33   H15   S    
C15   C33   S    
C34   H18   S    
C19   O9    S    
Cu1   O4    S    
Cu2   O3    S    
C23   C29   A    
C24   C26   A    
C21   O11   S    
C22   O12   S    
C13   N2    S    
C11   S3    S    
S2    O18   S    
Cu1   O1    S    
C15   C16   D    
S1    O14   D    
C2    O2    A    
C7    C17   S    
C1    C15   S    
C2    C16   S    
C17   O7    A    
C3    C13   A    
C18   O8    A    
Cu1   O8    S    
S2    O16   D    
Cu2   O7    S    
S1    O13   D    
C10   C12   A    
C33   H16   S    
C14   N1    S    
C21   N1    A    
C34   H19   S    
Cu1   O5    S    
Cu2   O2    S    
O21   H13   S    
S4    O22   D    
C4    C6    A    
C5    C7    A    
C6    C8    A    
C20   C28   A    
C25   C26   A    
C8    C18   S    
S1    O15   S    
C1    O3    A    
N3    N4    D    
Cu1   Cu2   S    
C9    C11   A    
C2    O4    A    
C22   N2    A    
C12   C14   A    
Cu2   O6    S    
C21   C23   A    
C16   C34   S    
C22   C24   A    
C20   O10   S    
C17   O5    A    
C33   H17   S    
C19   C27   A    
C32   S2    S    
C34   H20   S    
C7    C9    A    
C5    H5    S    
C27   C32   A    
C9    H7    S    
C28   C31   A    
S4    O23   D    
C3    C5    A    
S3    O21   S    
C19   N1    A    
C25   C27   A    
C29   H1    S    
C26   C28   A    
C30   H2    S    
O15   H11   S    
C12   S4    S    
S3    O19   D    
C29   C31   A    
C30   C32   A    
C11   C13   A    
C1    O1    A    
C6    H6    S    
C23   C25   A    
C4    C14   A    
O18   H12   S    
C24   C30   A    
C18   O6    A    
O24   H14   S    
C3    H3    S    
C8    C10   A    
S3    O20   D    
Cu1   N4    S    
Cu2   N3    S    
C4    H4    S    
H9    N3    S    
C20   N2    A    
H10   N4    S    
