data_mof_unit_56112.cif
_audit_creation_date              2012-12-11T15:31:39-0500
_audit_creation_method            fapswitch 2.2
_symmetry_space_group_name_H-M    P1
_symmetry_Int_Tables_number       1
_space_group_crystal_system       triclinic
_cell_length_a                    6.943287
_cell_length_b                    14.777253
_cell_length_c                    21.307211
_cell_angle_alpha                 74.764984
_cell_angle_beta                  90.213286
_cell_angle_gamma                 90.665826
_cell_volume                      2109.20377747

loop_
_atom_site_label
_atom_site_type_symbol
_atom_type_description
_atom_site_fract_x
_atom_site_fract_y
_atom_site_fract_z
_atom_type_partial_charge
O1    O     O_R   0.648150 0.130050 0.214300 -0.537712
O2    O     O_R   0.351850 0.869950 0.785700 -0.537712
O3    O     O_R   0.320490 0.006660 0.340150 -0.543383
O4    O     O_R   0.679510 0.993340 0.659850 -0.543383
O5    O     O_R   0.146100 0.869940 0.285700 -0.538923
O6    O     O_R   0.853900 0.130060 0.714300 -0.538923
C1    C     C_R   0.489164 0.001559 0.367151 0.675931
C2    C     C_R   0.510836 0.998441 0.632849 0.675931
O7    O     O_R   0.318690 0.137980 0.218120 -0.540756
O8    O     O_R   0.681310 0.862020 0.781880 -0.540757
O9    O     O_R   0.144280 0.002190 0.162800 -0.541884
O10   O     O_R   0.855720 0.997810 0.837200 -0.541884
C3    C     C_R   0.488370 0.175583 0.205896 0.709783
C4    C     C_R   0.511630 0.824417 0.794104 0.709782
O11   O     O_R   0.649960 0.997790 0.337200 -0.539973
O12   O     O_R   0.350040 0.002210 0.662800 -0.539973
O13   O     O_3   0.479300 0.955290 0.231990 -0.370686
O14   O     O_3   0.520700 0.044710 0.768010 -0.370686
V1    V     V_3+5 0.206040 0.008290 0.253340 1.416968
V2    V     V_3+5 0.793960 0.991710 0.746660 1.416968
O15   O     O_R   0.814320 0.993320 0.159850 -0.543814
O16   O     O_R   0.185680 0.006680 0.840150 -0.543813
C5    C     C_R   0.982956 0.998374 0.132846 0.675095
C6    C     C_R   0.017044 0.001626 0.867154 0.675095
O17   O     O_R   0.816120 0.862000 0.281880 -0.541164
O18   O     O_R   0.183880 0.138000 0.718120 -0.541164
C7    C     C_R   0.984019 0.824384 0.293848 0.696041
C8    C     C_R   0.015981 0.175615 0.706152 0.696041
V3    V     V_3+5 0.705540 0.991700 0.246660 1.416327
V4    V     V_3+5 0.294460 0.008300 0.753340 1.416327
O19   O     O_3   0.982150 0.044700 0.268010 -0.367692
O20   O     O_3   0.017850 0.955300 0.731990 -0.367692
C9    C     C_R   0.988770 0.723012 0.321540 -0.032287
C10   C     C_R   0.011229 0.276987 0.678460 -0.032286
C11   C     C_R   0.959861 0.566030 0.308834 -0.163800
C12   C     C_R   0.040133 0.433970 0.691165 -0.163800
C13   C     C_R   0.965264 0.662538 0.281594 -0.177882
C14   C     C_R   0.034731 0.337462 0.718406 -0.177883
C15   C     C_R   0.005262 0.687243 0.388887 -0.213940
C16   C     C_R   0.994740 0.312756 0.611113 -0.213941
C17   C     C_R   0.995978 0.589467 0.418162 0.084709
C18   C     C_R   0.004021 0.410532 0.581837 0.084709
C19   C     C_R   0.974269 0.529132 0.376493 0.142424
C20   C     C_R   0.025727 0.470867 0.623507 0.142424
C21   C     C_R   0.005568 0.549835 0.487059 0.059125
C22   C     C_R   0.994430 0.450164 0.512940 0.059125
C23   C     C_R   0.975157 0.393507 0.469071 -0.190022
C24   C     C_R   0.024839 0.606493 0.530929 -0.190023
C25   C     C_R   0.965480 0.432413 0.402440 -0.204956
C26   C     C_R   0.034514 0.567587 0.597559 -0.204956
H1    H     H_    0.950421 0.386026 0.370827 0.119128
H2    H     H_    0.049571 0.613974 0.629173 0.119128
H3    H     H_    0.978429 0.261905 0.583326 0.089796
H4    H     H_    0.021576 0.738094 0.416673 0.089796
H5    H     H_    0.049504 0.309877 0.770571 0.100989
H6    H     H_    0.950489 0.690123 0.229429 0.100989
H7    H     H_    0.942034 0.520084 0.277009 0.116240
H8    H     H_    0.057956 0.479916 0.722991 0.116240
H9    H     H_    0.966803 0.318168 0.484370 0.118389
H10   H     H_    0.033192 0.681832 0.515630 0.118390
C27   C     C_3   0.820513 0.994831 0.977491 -0.116980
C28   C     C_3   0.179487 0.005168 0.022509 -0.116980
C29   C     C_3   0.914565 0.920137 0.033833 -0.144904
C30   C     C_3   0.085435 0.079863 0.966167 -0.144904
H11   H     H_    0.844026 0.854298 0.062116 0.098068
H12   H     H_    0.155973 0.145702 0.937884 0.098068
H13   H     H_    0.672155 0.990618 0.958738 0.108633
H14   H     H_    0.327845 0.009382 0.041262 0.108633
C31   C     C_3   0.992426 0.998933 0.062236 -0.004687
C32   C     C_3   0.007574 0.001067 0.937764 -0.004687
C33   C     C_3   0.898453 0.073641 0.006700 -0.138775
C34   C     C_3   0.101547 0.926359 0.993300 -0.138775
H15   H     H_    0.814412 0.134288 0.012688 0.101742
H16   H     H_    0.185588 0.865711 0.987312 0.101742
C35   C     C_3   0.680994 0.994482 0.479311 -0.118845
C36   C     C_3   0.319006 0.005518 0.520689 -0.118845
C37   C     C_3   0.603954 0.073455 0.507672 -0.134296
C38   C     C_3   0.396046 0.926545 0.492328 -0.134296
H17   H     H_    0.689648 0.134094 0.514460 0.099417
H18   H     H_    0.310351 0.865906 0.485540 0.099417
H19   H     H_    0.830370 0.990012 0.462019 0.108634
H20   H     H_    0.169630 0.009988 0.537981 0.108634
C39   C     C_3   0.502766 0.999025 0.562251 -0.006090
C40   C     C_3   0.497234 0.000975 0.437749 -0.006090
C41   C     C_3   0.579840 0.920070 0.534706 -0.143470
C42   C     C_3   0.420159 0.079930 0.465294 -0.143470
H21   H     H_    0.645263 0.854068 0.563824 0.106621
H22   H     H_    0.354737 0.145932 0.436176 0.106621
C43   C     C_R   0.500988 0.277510 0.179436 -0.038390
C44   C     C_R   0.499011 0.722490 0.820564 -0.038391
C45   C     C_R   0.555847 0.434326 0.190735 -0.176417
C46   C     C_R   0.444142 0.565675 0.809265 -0.176416
C47   C     C_R   0.536839 0.338059 0.219474 0.156264
C48   C     C_R   0.463152 0.661941 0.780526 0.156264
C49   C     C_R   0.483552 0.313694 0.112027 -0.265135
C50   C     C_R   0.516453 0.686306 0.887973 -0.265135
C51   C     C_R   0.502933 0.410921 0.082171 0.085274
C52   C     C_R   0.497066 0.589079 0.917829 0.085274
C53   C     C_R   0.540046 0.470828 0.123116 0.103592
C54   C     C_R   0.459947 0.529173 0.876884 0.103592
C55   C     C_R   0.488259 0.450433 0.013281 0.069228
C56   C     C_R   0.511738 0.549567 0.986719 0.069228
C57   C     C_R   0.548973 0.605768 0.029933 -0.190312
C58   C     C_R   0.451021 0.394233 0.970067 -0.190312
C59   C     C_R   0.562314 0.567019 0.096522 -0.197377
C60   C     C_R   0.437677 0.432982 0.903478 -0.197377
H23   H     H_    0.591185 0.613132 0.127610 0.119425
H24   H     H_    0.408801 0.386868 0.872390 0.119425
H25   H     H_    0.542729 0.736716 0.915547 0.100753
H26   H     H_    0.457284 0.263283 0.084452 0.100752
H27   H     H_    0.584110 0.481069 0.221461 0.123981
H28   H     H_    0.415873 0.518931 0.778539 0.123980
H29   H     H_    0.569234 0.680598 0.014141 0.117664
H30   H     H_    0.430755 0.319402 0.985859 0.117664
C61   C     C_3   0.443850 0.696513 0.707608 -0.799837
H31   H     H_    0.464860 0.773421 0.689168 0.188243
H32   H     H_    0.552875 0.662014 0.683967 0.210785
H33   H     H_    0.298059 0.678448 0.692771 0.205119
C62   C     C_3   0.556133 0.303487 0.292392 -0.799837
H34   H     H_    0.535130 0.226580 0.310832 0.188244
H35   H     H_    0.701919 0.321556 0.307231 0.205119
H36   H     H_    0.447099 0.337985 0.316031 0.210786

loop_
_geom_bond_atom_site_label_1
_geom_bond_atom_site_label_2
_ccdc_geom_bond_type
C27   C32   S    
C29   H11   S    
C55   C56   A    
O11   V3    S    
C2    C39   S    
O13   V3    S    
C5    C31   S    
O4    C2    A    
V1    O19   S    
C58   C60   A    
C6    C32   S    
C23   C25   A    
C21   C22   A    
C7    C9    S    
C59   H23   S    
O9    V1    S    
C9    C15   A    
C10   C16   A    
C57   H29   S    
C36   C38   S    
O3    C1    A    
C38   H18   S    
C35   C40   S    
C62   H36   S    
C15   H4    S    
C37   C39   S    
O12   V4    S    
C61   H31   S    
C31   C33   S    
C18   C22   A    
C30   C33   S    
C45   H27   S    
C27   C29   S    
O7    C3    A    
C4    C44   S    
C28   C30   S    
O5    C7    A    
C13   H6    S    
C35   C41   S    
O6    C8    A    
C14   H5    S    
C29   C31   S    
O8    V2    S    
C61   H32   S    
C50   C52   A    
C26   H2    S    
O3    V1    S    
O14   V4    S    
C30   C32   S    
C11   C19   A    
O14   V2    S    
C24   H10   S    
C27   C33   S    
C41   H21   S    
C1    C40   S    
C8    C10   S    
C2    O12   A    
C17   C19   A    
C18   C20   A    
C36   C39   S    
O1    V3    S    
C51   C53   A    
O7    V1    S    
C44   C48   A    
C62   H35   S    
O17   V3    S    
C53   C59   A    
C19   C25   A    
C12   H8    S    
C34   H16   S    
O8    C4    A    
C36   H20   S    
C33   H15   S    
C35   H19   S    
C1    O11   A    
C25   H1    S    
C52   C56   A    
O15   V3    S    
C9    C13   A    
C28   C31   S    
C30   H12   S    
C43   C49   A    
C45   C47   A    
C27   H13   S    
C62   H34   S    
C61   H33   S    
O10   V2    S    
C46   C48   A    
C37   H17   S    
C28   C34   S    
C57   C59   A    
C24   C26   A    
C35   C37   S    
C58   H30   S    
C38   C41   S    
C39   C41   S    
C37   C42   S    
O18   V4    S    
C55   C58   A    
C52   C54   A    
O15   C5    A    
O16   C6    A    
C12   C20   A    
O1    C3    A    
O2    V4    S    
C36   C42   S    
C46   C54   A    
V2    O20   S    
C21   C24   A    
C20   C26   A    
C22   C23   A    
O16   V4    S    
C3    C43   S    
C10   C14   A    
O18   C8    A    
C46   H28   S    
C40   C42   S    
C16   C18   A    
C49   H26   S    
C48   C61   S    
C49   C51   A    
C44   C50   A    
O5    V1    S    
O17   C7    A    
O6    V2    S    
C50   H25   S    
O10   C6    A    
C54   C60   A    
C28   H14   S    
C11   H7    S    
C12   C14   A    
C11   C13   A    
V3    O19   S    
V4    O20   S    
C60   H24   S    
O9    C5    A    
O13   V1    S    
C42   H22   S    
C43   C47   A    
C56   C57   A    
O2    C4    A    
C23   H9    S    
O4    V2    S    
C38   C40   S    
C29   C34   S    
C15   C17   A    
C16   H3    S    
C17   C21   A    
C32   C34   S    
C47   C62   S    
C45   C53   A    
C51   C55   A    
