data_mof_unit_56894.cif
_audit_creation_date              2013-03-05T15:52:19-0500
_audit_creation_method            fapswitch 2.2
_symmetry_space_group_name_H-M    P1
_symmetry_Int_Tables_number       1
_space_group_crystal_system       triclinic
_cell_length_a                    21.45443
_cell_length_b                    7.26543
_cell_length_c                    14.745731
_cell_angle_alpha                 90.0016
_cell_angle_beta                  73.937172
_cell_angle_gamma                 90.001643
_cell_volume                      2208.76447421

loop_
_atom_site_label
_atom_site_type_symbol
_atom_site_description
_atom_site_fract_x
_atom_site_fract_y
_atom_site_fract_z
_atom_type_partial_charge
O1    O     O_R   0.464160 0.506670 0.130070 -0.578367
O2    O     O_R   0.535840 0.006670 0.869930 -0.578390
O3    O     O_R   0.589710 0.179080 0.006710 -0.583812
O4    O     O_R   0.410290 0.679080 0.993290 -0.583788
C1    C     C_R   0.615696 0.344795 0.004686 0.903160
C2    C     C_R   0.384303 0.844792 0.995315 0.903157
O5    O     O_R   0.467940 0.177220 0.138010 -0.593202
O6    O     O_R   0.532060 0.677220 0.861990 -0.593205
O7    O     O_R   0.413200 0.002810 0.002170 -0.579118
O8    O     O_R   0.586800 0.502810 0.997830 -0.579111
C3    C     C_R   0.457658 0.346531 0.174934 0.932181
C4    C     C_R   0.542346 0.846531 0.825065 0.932193
O9    O     O_3   0.482180 0.337850 0.955280 -0.253457
O10   O     O_3   0.517820 0.837850 0.044720 -0.253459
V1    V     V_3+5 0.503310 0.064600 0.008300 1.238417
V2    V     V_3+5 0.496690 0.564600 0.991700 1.238435
C5    C     C_R   0.566953 0.865612 0.722207 -0.126522
C6    C     C_R   0.433056 0.365567 0.277793 -0.126439
C7    C     C_R   0.926798 0.857480 0.277309 -0.162380
C8    C     C_R   0.073212 0.357462 0.722699 -0.162374
C9    C     C_R   0.567381 0.046419 0.584190 -0.179147
C10   C     C_R   0.432694 0.545981 0.415913 -0.179132
C11   C     C_R   0.536256 0.988813 0.675537 -0.135496
C12   C     C_R   0.463784 0.488604 0.324508 -0.135549
C13   C     C_R   0.628458 0.798155 0.675622 -0.215684
C14   C     C_R   0.371552 0.298104 0.324368 -0.215605
C15   C     C_R   0.665070 0.878715 0.590142 0.146847
C16   C     C_R   0.334967 0.378518 0.409903 0.146852
C17   C     C_R   0.631887 0.994851 0.541771 0.169483
C18   C     C_R   0.368187 0.494409 0.458336 0.169427
C19   C     C_R   0.732878 0.845223 0.550570 -0.064688
C20   C     C_R   0.267155 0.345095 0.449470 -0.064724
C21   C     C_R   0.763536 0.903212 0.456013 0.072719
C22   C     C_R   0.236519 0.402886 0.544069 0.072639
C23   C     C_R   0.727436 0.012695 0.409187 -0.129803
C24   C     C_R   0.272668 0.512026 0.590979 -0.129713
C25   C     C_R   0.663429 0.060202 0.452158 -0.209349
C26   C     C_R   0.336681 0.559491 0.548020 -0.209261
C27   C     C_R   0.771483 0.759149 0.602283 0.107703
C28   C     C_R   0.228524 0.259284 0.397708 0.107674
C29   C     C_R   0.832843 0.692795 0.555912 0.244020
C30   C     C_R   0.167156 0.192944 0.444048 0.244063
C31   C     C_R   0.866028 0.760981 0.466104 -0.138266
C32   C     C_R   0.133985 0.260994 0.533892 -0.138325
C33   C     C_R   0.830256 0.859089 0.413195 0.075896
C34   C     C_R   0.169780 0.358903 0.586850 0.075878
C35   C     C_R   0.934052 0.735331 0.427476 0.427503
C36   C     C_R   0.065955 0.235410 0.572513 0.427484
C37   C     C_R   0.962721 0.779044 0.332620 -0.187115
C38   C     C_R   0.037281 0.279144 0.667364 -0.187029
C39   C     C_R   0.861767 0.901667 0.317566 -0.186393
C40   C     C_R   0.138262 0.401465 0.682479 -0.186409
H1    H     H_    0.638300 0.148620 0.414561 0.147073
H2    H     H_    0.361847 0.647654 0.585687 0.147041
H3    H     H_    0.836310 0.958536 0.270489 0.100490
H4    H     H_    0.163717 0.458224 0.729586 0.100463
H5    H     H_    0.013837 0.754761 0.301666 0.208720
H6    H     H_    0.986156 0.254960 0.698295 0.208663
H7    H     H_    0.542186 0.138727 0.548568 0.134905
H8    H     H_    0.457919 0.638104 0.451586 0.134911
H9    H     H_    0.488689 0.043284 0.710779 0.165865
H10   H     H_    0.511353 0.543067 0.289274 0.165865
H11   H     H_    0.647776 0.688555 0.708919 0.152916
H12   H     H_    0.352212 0.188606 0.291027 0.152887
H13   H     H_    0.747925 0.071346 0.340333 0.126407
H14   H     H_    0.252221 0.570430 0.659903 0.126390
C41   C     C_3   0.227233 0.733063 0.918591 -0.320364
C42   C     C_3   0.772768 0.233026 0.081391 -0.320350
H15   H     H_    0.204457 0.595108 0.922394 0.193574
H16   H     H_    0.795542 0.095069 0.077565 0.193589
H17   H     H_    0.227194 0.789755 0.848498 0.165225
H18   H     H_    0.772812 0.289685 0.151490 0.165188
C43   C     C_3   0.298378 0.713284 0.923257 -0.250068
C44   C     C_3   0.701621 0.213262 0.076730 -0.250027
H19   H     H_    0.332603 0.729769 0.851931 0.179000
H20   H     H_    0.667399 0.229735 0.148060 0.179032
H21   H     H_    0.305473 0.570773 0.946057 0.215399
H22   H     H_    0.694522 0.070757 0.053921 0.215372
H23   H     H_    0.283150 0.660337 0.113060 0.229243
H24   H     H_    0.716847 0.160350 0.886929 0.229220
C45   C     C_3   0.196298 0.805217 0.096098 0.271087
C46   C     C_3   0.803700 0.305242 0.903892 0.271029
C47   C     C_3   0.219852 0.057006 0.975254 -0.494758
C48   C     C_3   0.780148 0.556991 0.024766 -0.494776
C49   C     C_3   0.187949 0.863608 0.997923 -0.114084
C50   C     C_3   0.812051 0.363599 0.002073 -0.114058
H25   H     H_    0.194846 0.155100 0.031074 0.226707
H26   H     H_    0.805155 0.655115 0.968962 0.226690
H27   H     H_    0.212891 0.109893 0.907877 0.206090
H28   H     H_    0.787108 0.609844 0.092152 0.206081
C51   C     C_3   0.313382 0.853338 0.994452 -0.137683
C52   C     C_3   0.686617 0.353336 0.005548 -0.137690
C53   C     C_3   0.269462 0.799486 0.093560 -0.501111
C54   C     C_3   0.730535 0.299500 0.906435 -0.501090
C55   C     C_3   0.292987 0.051671 0.971422 0.280184
C56   C     C_3   0.707013 0.551660 0.028595 0.280159
H29   H     H_    0.299688 0.146166 0.027560 0.109911
H30   H     H_    0.700314 0.646169 0.972464 0.109930
H31   H     H_    0.172605 0.912756 0.148213 0.100567
H32   H     H_    0.827389 0.412803 0.851789 0.100609
H33   H     H_    0.278105 0.895733 0.147512 0.169220
H34   H     H_    0.721888 0.395745 0.852490 0.169253
O11   O     O_R   0.913210 0.208550 0.002110 -0.569001
O12   O     O_R   0.086790 0.708550 0.997890 -0.568979
O13   O     O_R   0.032060 0.539960 0.861980 -0.582688
O14   O     O_R   0.967940 0.039960 0.138020 -0.582686
C57   C     C_R   0.044775 0.372101 0.825169 0.947629
C58   C     C_R   0.955223 0.872105 0.174832 0.947609
O15   O     O_R   0.910290 0.538020 0.993280 -0.590194
O16   O     O_R   0.089710 0.038020 0.006720 -0.590184
O17   O     O_R   0.964160 0.712340 0.130090 -0.583795
O18   O     O_R   0.035840 0.212340 0.869910 -0.583781
C59   C     C_R   0.883730 0.370234 0.999655 0.888790
C60   C     C_R   0.116270 0.870238 0.000342 0.888811
O19   O     O_3   0.017820 0.379210 0.044690 -0.263149
O20   O     O_3   0.982180 0.879210 0.955310 -0.263161
V3    V     V_3+5 0.996690 0.652500 0.991710 1.242736
V4    V     V_3+5 0.003310 0.152500 0.008290 1.242748
N1    N     N_R   0.975883 0.682640 0.484583 0.256249
O21   O     O_R   0.031918 0.607953 0.445333 -0.316063
O22   O     O_R   0.964634 0.741859 0.570882 -0.311590
N2    N     N_R   0.024121 0.182729 0.515412 0.256184
O23   O     O_R   0.968138 0.107727 0.554639 -0.316073
O24   O     O_R   0.035309 0.242183 0.429161 -0.311567
N3    N     N_R   0.164731 0.629001 0.128630 0.259199
O25   O     O_R   0.119382 0.620401 0.207947 -0.351555
O26   O     O_R   0.184184 0.478001 0.082301 -0.416428
N4    N     N_R   0.835268 0.129040 0.871335 0.259181
O27   O     O_R   0.880612 0.120474 0.792011 -0.351549
O28   O     O_R   0.815815 0.978017 0.917640 -0.416394
N5    N     N_R   0.333246 0.120177 0.880107 0.228308
O29   O     O_R   0.328245 0.051255 0.800955 -0.446813
O30   O     O_R   0.370455 0.262529 0.877540 -0.411739
N6    N     N_R   0.666753 0.620146 0.119914 0.228308
O31   O     O_R   0.671752 0.551203 0.199062 -0.446831
O32   O     O_R   0.629544 0.762494 0.122491 -0.411716
I1    I     I_    0.859747 0.441756 0.611165 -0.196157
I2    I     I_    0.140205 0.942135 0.388622 -0.196104
I3    I     I_    0.756873 0.797266 0.750989 -0.343460
I4    I     I_    0.243141 0.297707 0.249018 -0.343421

loop_
_geom_bond_atom_site_label_1
_geom_bond_atom_site_label_2
_geom_bond_distance
_ccdc_geom_bond_type
C47   H25   1.108551 S    
C3    C6    1.468041 S    
C46   C54   1.560303 S    
C30   I2    2.141082 S    
C21   C33   1.431880 A    
C57   O18   1.322624 A    
O1    C3    1.326563 A    
O2    C4    1.326536 A    
N4    O27   1.299520 A    
O16   V4    2.026019 S    
C2    O7    1.321838 A    
O15   V3    2.025975 S    
C35   C37   1.399832 A    
O5    C3    1.338585 A    
O13   C57   1.332081 A    
C5    C11   1.399800 A    
C44   H20   1.110101 S    
C50   C59   1.529109 S    
C6    C12   1.399793 A    
C10   C12   1.392050 A    
C49   C60   1.529101 S    
O11   C59   1.339389 A    
C48   C50   1.558200 S    
C9    H7    1.083987 S    
C10   H8    1.084005 S    
C24   H14   1.076433 S    
C41   H17   1.112849 S    
C15   C17   1.417267 A    
C33   C39   1.419030 A    
C42   C44   1.553498 S    
C2    C51   1.526413 S    
C34   C40   1.419018 A    
C52   C56   1.570173 S    
C37   H5    1.079422 S    
O20   V3    1.786236 S    
C18   C26   1.390930 A    
C13   H11   1.076840 S    
C44   C52   1.558234 S    
C14   H12   1.076860 S    
C8    C38   1.389903 A    
C16   C18   1.417246 A    
C56   H30   1.114942 S    
C4    C5    1.468071 S    
C19   C21   1.430646 A    
C22   C34   1.431913 A    
C31   C35   1.424458 A    
O16   C60   1.337878 A    
C29   I1    2.141019 S    
O6    C4    1.338616 A    
C8    C57   1.468514 S    
C25   H1    1.084495 S    
C7    C58   1.468554 S    
C36   C38   1.399809 A    
O6    V2    2.024972 S    
O14   V4    2.024984 S    
C55   N5    1.470798 S    
C29   C31   1.408651 A    
O13   V3    2.024959 S    
C30   C32   1.408654 A    
C32   C34   1.427367 A    
N1    O22   1.301065 A    
C47   H27   1.113187 S    
C36   N2    1.441941 S    
C27   I3    2.145423 S    
C41   C49   1.559742 S    
C15   C19   1.430495 A    
C38   H6    1.079431 S    
C16   C20   1.430477 A    
C43   C51   1.558230 S    
C27   C29   1.390996 A    
C53   H33   1.112609 S    
C23   H13   1.076429 S    
C56   N6    1.470796 S    
C45   H31   1.115003 S    
N5    O30   1.300616 A    
C46   C50   1.565677 S    
C9    C17   1.402803 A    
C41   H15   1.109653 S    
C20   C22   1.430652 A    
O4    V2    2.025945 S    
C51   C53   1.553938 S    
C45   C53   1.560301 S    
C7    C37   1.389924 A    
C26   H2    1.084531 S    
C42   H18   1.112851 S    
O19   V4    1.786191 S    
C47   C55   1.554872 S    
C6    C14   1.396998 A    
C52   C54   1.553938 S    
O1    V2    2.009809 S    
O2    V1    2.009797 S    
C31   C33   1.427303 A    
C46   N4    1.465652 S    
C41   C43   1.553498 S    
C42   C50   1.559738 S    
O4    C2    1.323669 A    
C47   C49   1.558187 S    
C9    C11   1.392020 A    
N3    O25   1.299516 A    
O12   C60   1.339380 A    
O11   V4    2.002081 S    
C43   H19   1.110101 S    
N2    O24   1.301087 A    
N5    O29   1.301456 A    
C48   C56   1.554871 S    
O3    V1    2.025900 S    
C35   N1    1.441976 S    
C23   C25   1.387392 A    
O12   V3    2.002057 S    
C48   H28   1.113188 S    
C12   H10   1.083814 S    
C10   C18   1.402833 A    
C45   N3    1.465646 S    
C46   H32   1.115004 S    
C48   H26   1.108558 S    
C28   C30   1.390988 A    
O3    C1    1.323652 A    
N4    O28   1.298721 A    
N6    O32   1.300615 A    
N1    O21   1.299884 A    
C55   H29   1.114946 S    
H23   C53   1.112547 S    
N6    O31   1.301453 A    
O15   C59   1.337877 A    
C13   C15   1.414383 A    
C14   C16   1.414345 A    
C58   O17   1.322640 A    
O17   V3    2.012883 S    
C5    C13   1.397033 A    
C24   C26   1.387406 A    
O7    V1    2.010935 S    
C1    O8    1.321856 A    
C8    C40   1.394141 A    
C32   C36   1.424487 A    
O8    V2    2.010956 S    
O18   V4    2.012899 S    
O14   C58   1.332076 A    
C28   I4    2.145477 S    
O5    V1    2.024946 S    
C21   C23   1.416109 A    
C22   C24   1.416171 A    
C19   C27   1.417090 A    
C39   H3    1.077397 S    
C20   C28   1.417111 A    
C1    C52   1.526403 S    
C51   C55   1.570190 S    
C7    C39   1.394169 A    
C11   H9    1.083818 S    
C54   H34   1.112589 S    
C42   H16   1.109651 S    
C44   H22   1.112035 S    
O9    V2    1.786563 S    
C17   C25   1.390937 A    
N3    O26   1.298716 A    
C43   H21   1.112033 S    
O10   V1    1.786605 S    
N2    O23   1.299855 A    
H24   C54   1.112554 S    
C45   C49   1.565665 S    
C40   H4    1.077369 S    
