data_mof_unit_27770.cif
_audit_creation_date              2012-10-26T19:50:01-0400
_audit_creation_method            fapswitch 2.2
_symmetry_space_group_name_H-M    P1
_symmetry_Int_Tables_number       1
_space_group_crystal_system       triclinic
_cell_length_a                    15.07143
_cell_length_b                    13.854487
_cell_length_c                    10.8643
_cell_angle_alpha                 91.146339
_cell_angle_beta                  90.097645
_cell_angle_gamma                 90.576899
_cell_volume                      2267.96802302

loop_
_atom_site_label
_atom_site_type_symbol
_atom_type_description
_atom_site_fract_x
_atom_site_fract_y
_atom_site_fract_z
_atom_type_partial_charge
C1    C     C_R   0.329859 0.499566 0.500453 0.580434
C2    C     C_R   0.951367 0.494756 0.503961 -0.008211
C3    C     C_R   0.513321 0.108703 0.607909 -0.129857
C4    C     C_R   0.482686 0.106080 0.390776 -0.124516
C5    C     C_R   0.515348 0.210122 0.606189 0.038115
C6    C     C_R   0.482953 0.207609 0.393520 0.043236
C7    C     C_R   0.497949 0.054594 0.498950 0.051398
C8    C     C_R   0.433925 0.890734 0.436424 0.175861
C9    C     C_R   0.569068 0.894891 0.557783 0.180213
C10   C     C_R   0.438696 0.788438 0.430868 0.377445
C11   C     C_R   0.564430 0.792102 0.563870 0.364288
C12   C     C_R   0.670064 0.500420 0.499654 0.600784
C13   C     C_R   0.500943 0.945458 0.496894 -0.060803
C14   C     C_R   0.506786 0.499393 0.262744 0.531202
C15   C     C_R   0.498235 0.501907 0.738470 0.525904
C16   C     C_R   0.595312 0.656615 0.128712 -0.098108
C17   C     C_R   0.532539 0.685740 0.892725 -0.078011
C18   C     C_R   0.610713 0.744598 0.072739 -0.151065
C19   C     C_R   0.575773 0.760532 0.956959 -0.122640
C20   C     C_R   0.525367 0.591791 0.942107 0.008696
C21   C     C_R   0.546148 0.582148 0.067819 0.017381
C22   C     C_R   0.515801 0.499074 0.129269 -0.004223
C23   C     C_R   0.233014 0.498570 0.501977 -0.018748
C24   C     C_R   0.498231 0.507217 0.873485 -0.020673
C25   C     C_R   0.483702 0.419123 0.062081 -0.169718
C26   C     C_R   0.478468 0.421935 0.935326 -0.171834
C27   C     C_R   0.093493 0.423992 0.440580 -0.154397
C28   C     C_R   0.907897 0.554215 0.421748 -0.162614
C29   C     C_R   0.185760 0.425933 0.435984 0.207022
C30   C     C_R   0.814821 0.559938 0.421325 0.206850
C31   C     C_3   0.292267 0.938873 0.467915 -0.000272
C32   C     C_3   0.214924 0.992653 0.412350 -0.376921
C33   C     C_3   0.698073 0.981585 0.537336 -0.019529
C34   C     C_R   0.766785 0.501012 0.502432 -0.015193
C35   C     C_3   0.773560 0.030750 0.608452 -0.376601
C36   C     C_3   0.380844 0.755516 0.238234 -0.081092
C37   C     C_3   0.708070 0.751995 0.618171 -0.069009
C38   C     C_3   0.242140 0.385545 0.248977 -0.112811
C39   C     C_3   0.813901 0.699033 0.302054 -0.146828
C40   C     C_3   0.246443 0.607316 0.756964 -0.099536
C41   C     C_3   0.749883 0.445279 0.777670 -0.093094
C42   C     C_3   0.049729 0.728143 0.567075 0.010843
C43   C     C_3   0.977090 0.793988 0.615822 -0.391207
C44   C     C_3   0.942167 0.281373 0.624456 0.006507
C45   C     C_R   0.187057 0.570154 0.569872 0.221923
C46   C     C_3   0.007775 0.221414 0.695989 -0.375944
C47   C     C_R   0.810757 0.442041 0.586962 0.209204
C48   C     C_R   0.093984 0.571100 0.566914 0.280958
C49   C     C_R   0.903523 0.436080 0.584308 0.285419
C50   C     C_R   0.047982 0.495822 0.505536 -0.011606
Cu1   Cu    Cu3+1 0.500000 0.596430 0.500000 1.043517
Cu2   Cu    Cu3+1 0.500000 0.403570 0.500000 0.979196
H1    H     H_    0.461489 0.354396 0.107666 0.120515
H2    H     H_    0.471776 0.068169 0.303888 0.130951
H3    H     H_    0.529336 0.249090 0.691077 0.132154
H4    H     H_    0.469801 0.244902 0.309256 0.122938
H5    H     H_    0.312170 0.977150 0.555050 0.130701
H6    H     H_    0.269227 0.864353 0.489065 0.167471
H7    H     H_    0.192784 0.955654 0.325840 0.148348
H8    H     H_    0.158670 0.994443 0.478240 0.086935
H9    H     H_    0.235396 0.067900 0.391934 0.179740
H10   H     H_    0.668531 0.036020 0.476297 0.143639
H11   H     H_    0.726384 0.923004 0.478426 0.096142
H12   H     H_    0.456174 0.357516 0.885713 0.127778
H13   H     H_    0.806815 0.978177 0.668519 0.140150
H14   H     H_    0.823115 0.060150 0.543200 0.085509
H15   H     H_    0.747405 0.091053 0.666240 0.169007
H16   H     H_    0.361863 0.689528 0.184507 0.120594
H17   H     H_    0.448385 0.777470 0.207213 0.107997
H18   H     H_    0.332312 0.812228 0.215684 0.150853
H19   H     H_    0.737801 0.813053 0.671734 0.147855
H20   H     H_    0.721188 0.758666 0.518060 0.117888
H21   H     H_    0.742359 0.686187 0.648778 0.121940
H22   H     H_    0.283469 0.452569 0.246721 0.115270
H23   H     H_    0.622418 0.647683 0.219659 0.187930
H24   H     H_    0.177577 0.396795 0.201721 0.104572
H25   H     H_    0.278181 0.328664 0.196671 0.131949
H26   H     H_    0.765282 0.751073 0.266375 0.116764
H27   H     H_    0.860719 0.681667 0.226139 0.128573
H28   H     H_    0.848897 0.735768 0.380545 0.094006
H29   H     H_    0.182276 0.595671 0.805282 0.144869
H30   H     H_    0.286171 0.539987 0.756556 0.097868
H31   H     H_    0.284539 0.663106 0.809968 0.125512
H32   H     H_    0.814221 0.465067 0.822375 0.147703
H33   H     H_    0.711449 0.511423 0.757897 0.113879
H34   H     H_    0.500995 0.706273 0.808785 0.182269
H35   H     H_    0.710716 0.402622 0.844143 0.142085
H36   H     H_    0.038287 0.716584 0.466367 0.099096
H37   H     H_    0.114756 0.765367 0.581149 0.173901
H38   H     H_    0.987767 0.809962 0.715359 0.158592
H39   H     H_    0.977947 0.862855 0.565217 0.081308
H40   H     H_    0.911271 0.758443 0.602950 0.139944
H41   H     H_    0.958464 0.273432 0.524702 0.105978
H42   H     H_    0.874387 0.251787 0.640417 0.175413
H43   H     H_    0.992623 0.226033 0.795937 0.158666
H44   H     H_    0.003170 0.144715 0.664673 0.085679
H45   H     H_    0.646317 0.801872 0.121427 0.098239
H46   H     H_    0.076416 0.248425 0.680376 0.166865
H47   H     H_    0.582148 0.831062 0.916506 0.141431
H48   H     H_    0.057282 0.367465 0.391091 0.128969
H49   H     H_    0.947558 0.594762 0.357511 0.107177
H50   H     H_    0.524218 0.072927 0.694213 0.138611
N1    N     N_R   0.500000 0.258690 0.500000 -0.218542
N2    N     N_R   0.500000 0.741330 0.500000 -0.260791
O1    O     O_R   0.371460 0.581430 0.500010 -0.419138
O2    O     O_3   0.635178 0.944933 0.621690 -0.567141
O3    O     O_3   0.376435 0.734403 0.364834 -0.514136
O4    O     O_3   0.617017 0.742214 0.645510 -0.534657
O5    O     O_3   0.229377 0.354257 0.370443 -0.545024
O6    O     O_3   0.767616 0.614980 0.337806 -0.574564
O7    O     O_3   0.232792 0.640715 0.636711 -0.553880
O8    O     O_3   0.762974 0.388209 0.670397 -0.563639
O9    O     O_3   0.047201 0.640763 0.632040 -0.539260
O10   O     O_3   0.948249 0.378539 0.666038 -0.536508
O11   O     O_R   0.628540 0.581430 0.499990 -0.460620
O12   O     O_R   0.371470 0.418560 0.500010 -0.468241
O13   O     O_R   0.628530 0.418560 0.499990 -0.471299
O14   O     O_R   0.500000 0.581450 0.319650 -0.496772
O15   O     O_R   0.500000 0.581450 0.680350 -0.491620
O16   O     O_R   0.500010 0.418580 0.319650 -0.527991
O17   O     O_R   0.499990 0.418580 0.680350 -0.524134
O18   O     O_3   0.363099 0.936892 0.383025 -0.575600

loop_
_geom_bond_atom_site_label_1
_geom_bond_atom_site_label_2
_ccdc_geom_bond_type
C5    N1    A    
Cu2   N1    S    
C8    C13   A    
C23   C45   A    
C27   C29   A    
C16   H23   S    
C17   C20   A    
C47   C49   A    
C38   H24   S    
C16   C21   A    
C30   O6    S    
C23   C29   A    
C31   H6    S    
C29   O5    S    
C25   H1    S    
C32   H9    S    
C3    C7    A    
C35   H13   S    
C47   O8    S    
Cu1   O14   S    
C18   C19   A    
C26   H12   S    
C9    C13   A    
C44   H41   S    
C2    C50   S    
C33   C35   S    
C28   H49   S    
C39   O6    S    
C46   H43   S    
C20   C24   A    
C44   C46   S    
C33   H10   S    
C14   O14   A    
C22   C25   A    
Cu1   O15   S    
C11   N2    A    
C1    O12   A    
C27   C50   A    
C33   H11   S    
C12   O11   A    
Cu2   O13   S    
C48   C50   A    
C49   O10   S    
C46   H46   S    
C44   O10   S    
C21   C22   A    
C36   O3    S    
C40   H31   S    
C10   O3    S    
C4    C7    A    
C25   C26   A    
C36   H18   S    
C40   O7    S    
Cu2   O12   S    
C41   H35   S    
C27   H48   S    
C43   H38   S    
C30   C34   A    
Cu1   Cu2   S    
C39   H26   S    
C40   H30   S    
C37   O4    S    
C4    C6    A    
C6    H4    S    
C19   H47   S    
C35   H14   S    
C9    O2    S    
C41   H32   S    
C41   O8    S    
C43   H39   S    
C17   H34   S    
C39   H27   S    
C2    C49   A    
Cu2   O17   S    
C42   O9    S    
C31   C32   S    
C35   H15   S    
Cu1   O1    S    
C45   O7    S    
C6    N1    A    
C38   O5    S    
C9    C11   A    
Cu2   O16   S    
C3    H50   S    
C16   C18   A    
C15   C24   S    
C18   H45   S    
C1    C23   S    
C14   O16   A    
C37   H19   S    
C14   C22   S    
C42   H36   S    
C42   C43   S    
C32   H8    S    
C12   C34   S    
C36   H17   S    
C38   H22   S    
C45   C48   A    
C37   H21   S    
C15   O17   A    
C4    H2    S    
C40   H29   S    
C5    H3    S    
C33   O2    S    
C31   O18   S    
C24   C26   A    
C3    C5    A    
C36   H16   S    
C38   H25   S    
C41   H33   S    
C43   H40   S    
C42   H37   S    
C39   H28   S    
C31   H5    S    
C10   N2    A    
Cu1   N2    S    
C8    O18   S    
C28   C30   A    
C17   C19   A    
C15   O15   A    
Cu1   O11   S    
C44   H42   S    
C12   O13   A    
C7    C13   S    
C46   H44   S    
C20   C21   A    
C8    C10   A    
C37   H20   S    
C11   O4    S    
C2    C28   A    
C34   C47   A    
C32   H7    S    
C1    O1    A    
C48   O9    S    
