data_mof_unit_9665.cif
_audit_creation_date              2012-10-26T20:07:34-0400
_audit_creation_method            fapswitch 2.2
_symmetry_space_group_name_H-M    P1
_symmetry_Int_Tables_number       1
_space_group_crystal_system       triclinic
_cell_length_a                    9.514867
_cell_length_b                    10.825985
_cell_length_c                    17.109315
_cell_angle_alpha                 89.239263
_cell_angle_beta                  94.090808
_cell_angle_gamma                 89.801873
_cell_volume                      1757.73077943

loop_
_atom_site_label
_atom_site_type_symbol
_atom_type_description
_atom_site_fract_x
_atom_site_fract_y
_atom_site_fract_z
_atom_type_partial_charge
C1    C     C_R   0.500203 0.262070 0.500480 0.548932
C2    C     C_R   0.068640 0.578141 0.450699 0.377236
C3    C     C_R   0.517582 0.498731 0.650932 0.548169
C4    C     C_R   0.482365 0.502328 0.349034 0.551086
C5    C     C_R   0.527078 0.499678 0.736777 0.008154
C6    C     C_R   0.472605 0.504637 0.263105 0.006825
C7    C     C_R   0.406214 0.477566 0.777164 -0.159329
C8    C     C_R   0.596027 0.508930 0.222940 -0.162471
C9    C     C_R   0.413356 0.480544 0.858509 -0.089932
C10   C     C_R   0.588335 0.509554 0.141573 -0.089827
C11   C     C_R   0.542280 0.506081 0.901019 0.228306
C12   C     C_R   0.499968 0.737930 0.500333 0.546671
C13   C     C_R   0.456191 0.505925 0.098658 0.227315
C14   C     C_R   0.662778 0.526990 0.860598 -0.115086
C15   C     C_R   0.333299 0.502673 0.138840 -0.116155
C16   C     C_R   0.655500 0.524412 0.779026 -0.162953
C17   C     C_R   0.340993 0.502252 0.220497 -0.149087
C18   C     C_R   0.376668 0.064032 0.514527 -0.143396
C19   C     C_R   0.624496 0.935959 0.488691 -0.141502
C20   C     C_3   0.922377 0.326533 0.673091 -0.024699
C21   C     C_3   0.985412 0.197578 0.685868 -0.395856
C22   C     C_3   0.085059 0.770517 0.387834 -0.025975
C23   C     C_R   0.376698 0.936227 0.514796 -0.147252
C24   C     C_3   0.013809 0.789320 0.305875 -0.395751
C25   C     C_R   0.624744 0.063748 0.488956 -0.131410
C26   C     C_R   0.500248 0.871758 0.501196 0.020674
C27   C     C_R   0.500585 0.128229 0.501333 0.022665
C28   C     C_R   0.081489 0.422836 0.548877 -0.035737
C29   C     C_R   0.918400 0.575631 0.450168 -0.036224
C30   C     C_R   0.931484 0.423616 0.550404 0.377049
Cu1   Cu    Cu3+1 0.640660 0.500020 0.500000 0.986452
Cu2   Cu    Cu3+1 0.359340 0.499980 0.500000 0.986978
H1    H     H_    0.698978 0.511399 0.254293 0.127713
H2    H     H_    0.721561 0.111813 0.478747 0.145652
H3    H     H_    0.145235 0.359662 0.585774 0.115955
H4    H     H_    0.854233 0.632847 0.409530 0.117131
H5    H     H_    0.749841 0.543152 0.749124 0.121768
H6    H     H_    0.244155 0.499407 0.250122 0.153407
H7    H     H_    0.836741 0.335987 0.713387 0.159559
H8    H     H_    0.001551 0.398477 0.690787 0.086335
H9    H     H_    0.070031 0.181410 0.645773 0.133273
H10   H     H_    0.030462 0.187172 0.747304 0.106971
H11   H     H_    0.902179 0.126971 0.674778 0.164297
H12   H     H_    0.305909 0.457650 0.745964 0.119578
H13   H     H_    0.176254 0.834165 0.393490 0.160213
H14   H     H_    0.013434 0.799113 0.433215 0.087059
H15   H     H_    0.923750 0.725336 0.295798 0.136003
H16   H     H_    0.974534 0.885801 0.298779 0.108694
H17   H     H_    0.090613 0.771905 0.261285 0.162526
H18   H     H_    0.685909 0.512101 0.112696 0.133695
H19   H     H_    0.318114 0.462586 0.887725 0.131366
H20   H     H_    0.762483 0.546384 0.892550 0.113685
H21   H     H_    0.231169 0.499936 0.106620 0.114573
H22   H     H_    0.280042 0.112322 0.525065 0.123863
H23   H     H_    0.721153 0.887705 0.478153 0.120974
H24   H     H_    0.280389 0.888135 0.525971 0.122057
N1    N     N_2   0.555940 0.510332 0.983983 -0.253732
N2    N     N_2   0.442092 0.503533 0.015611 -0.252895
N3    N     N_R   0.852070 0.500030 0.499980 -0.245451
N4    N     N_R   0.147930 0.499970 0.500020 -0.244841
O1    O     O_R   0.618740 0.319660 0.500000 -0.455018
O2    O     O_3   0.137686 0.648215 0.396736 -0.523563
O3    O     O_R   0.381260 0.680340 0.500000 -0.473703
O4    O     O_R   0.381170 0.319630 0.500010 -0.522910
O5    O     O_R   0.618830 0.680370 0.499990 -0.522916
O6    O     O_R   0.631780 0.498870 0.613920 -0.469993
O7    O     O_R   0.368220 0.501130 0.386080 -0.451172
O8    O     O_R   0.394210 0.498840 0.613930 -0.521066
O9    O     O_R   0.605790 0.501160 0.386070 -0.521818
O10   O     O_3   0.861354 0.339279 0.595425 -0.521139

loop_
_geom_bond_atom_site_label_1
_geom_bond_atom_site_label_2
_ccdc_geom_bond_type
Cu1   O6    S    
C19   C26   A    
C14   H20   S    
C7    C9    A    
C25   C27   A    
C12   O5    A    
Cu1   O1    S    
C24   H16   S    
Cu1   Cu2   S    
C3    O8    A    
C9    H19   S    
C16   H5    S    
Cu2   O8    S    
C1    C27   S    
C30   N3    A    
C22   H13   S    
C28   C30   A    
C23   H24   S    
C10   H18   S    
C11   N1    S    
C7    H12   S    
C9    C11   A    
C29   H4    S    
C20   O10   S    
N1    N2    D    
C28   N4    A    
Cu2   O7    S    
C21   H9    S    
C15   H21   S    
C22   C24   S    
C4    C6    S    
C4    O9    A    
C22   H14   S    
C28   H3    S    
C14   C16   A    
C17   H6    S    
C13   C15   A    
C20   H8    S    
C11   C14   A    
C2    N4    A    
Cu1   O5    S    
C3    O6    A    
C22   O2    S    
Cu2   N4    S    
C19   C25   A    
Cu1   N3    S    
C18   C23   A    
C6    C17   A    
C1    O4    A    
C29   N3    A    
Cu1   O9    S    
C25   H2    S    
C2    C29   A    
C20   C21   S    
Cu2   O4    S    
C15   C17   A    
C23   C26   A    
C19   H23   S    
C24   H17   S    
C5    C7    A    
C20   H7    S    
C18   H22   S    
C5    C16   A    
C6    C8    A    
C13   N2    S    
C30   O10   S    
C12   O3    A    
C24   H15   S    
C2    O2    S    
C10   C13   A    
C8    C10   A    
C21   H11   S    
C18   C27   A    
C21   H10   S    
Cu2   O3    S    
C12   C26   S    
C8    H1    S    
C3    C5    S    
C4    O7    A    
C1    O1    A    
