data_mof_unit_37977.cif
_audit_creation_date              2012-12-10T20:35:53-0500
_audit_creation_method            fapswitch 2.2
_symmetry_space_group_name_H-M    P1
_symmetry_Int_Tables_number       1
_space_group_crystal_system       triclinic
_cell_length_a                    15.752837
_cell_length_b                    10.713388
_cell_length_c                    9.867307
_cell_angle_alpha                 88.53571
_cell_angle_beta                  90.548223
_cell_angle_gamma                 89.825587
_cell_volume                      1664.63943551

loop_
_atom_site_label
_atom_site_type_symbol
_atom_type_description
_atom_site_fract_x
_atom_site_fract_y
_atom_site_fract_z
_atom_type_partial_charge
C1    C     C_R   0.499746 0.260257 0.501305 0.906121
C2    C     C_R   0.502424 0.128572 0.501758 -0.077592
C3    C     C_R   0.543621 0.067673 0.395504 -0.233860
C4    C     C_R   0.338306 0.501779 0.499284 0.938442
C5    C     C_R   0.543343 0.937746 0.392162 -0.206097
C6    C     C_R   0.502153 0.869871 0.495431 -0.075526
C7    C     C_R   0.462965 0.932655 0.597350 0.033219
C8    C     C_3   0.408804 0.912142 0.718423 -0.293816
C9    C     C_3   0.407577 0.056519 0.724985 -0.319480
C10   C     C_R   0.429695 0.462727 0.071600 0.218224
C11   C     C_R   0.566624 0.546680 0.071570 -0.139108
C12   C     C_3   0.955703 0.436021 0.631827 -0.151333
C13   C     C_R   0.566780 0.546212 0.927708 -0.112019
C14   C     C_R   0.428993 0.465684 0.928595 0.179287
C15   C     C_3   0.388423 0.341428 0.923381 -0.511548
C16   C     C_R   0.500934 0.739167 0.498327 0.888420
C17   C     C_3   0.392780 0.334674 0.076883 0.261138
C18   C     C_R   0.661658 0.499217 0.500633 0.904797
C19   C     C_3   0.053943 0.442323 0.626544 -0.558329
C20   C     C_3   0.047105 0.438752 0.371337 -0.171315
C21   C     C_3   0.948833 0.439909 0.373041 -0.452663
C22   C     C_1   0.750415 0.498793 0.502423 -0.126569
C23   C     C_3   0.917233 0.503660 0.502754 0.089207
C24   C     C_3   0.082662 0.512407 0.494889 0.156313
C25   C     C_2   0.925101 0.302656 0.652594 0.948897
C26   C     C_2   0.326465 0.846671 0.685922 0.994275
C27   C     C_2   0.322195 0.118904 0.703774 0.992372
C28   C     C_3   0.303687 0.235493 0.232580 0.190700
C29   C     C_3   0.291305 0.108621 0.166053 -0.410420
C30   C     C_3   0.300221 0.001733 0.270405 -0.851306
C31   C     C_2   0.080746 0.481573 0.234176 0.986392
C32   C     C_3   0.073742 0.850056 0.411461 0.085563
C33   C     C_3   0.070389 0.921830 0.275629 -0.290571
C34   C     C_3   0.947769 0.642859 0.494677 -0.255401
C35   C     C_3   0.060781 0.062174 0.294863 -0.928678
C36   C     C_2   0.908399 0.724985 0.600769 0.841206
C37   C     C_3   0.046950 0.648523 0.498464 0.300511
C38   C     C_1   0.825627 0.499765 0.503552 -0.045091
C39   C     C_1   0.174313 0.512219 0.494856 -0.043066
C40   C     C_1   0.249540 0.507970 0.496928 -0.133451
C41   C     C_R   0.462325 0.057241 0.601078 0.088606
H1    H     H_    0.078091 0.491361 0.717304 0.196331
H2    H     H_    0.621352 0.581563 0.873459 0.165188
H3    H     H_    0.322991 0.347141 0.880351 0.252999
H4    H     H_    0.431262 0.274901 0.875176 0.159749
H5    H     H_    0.439581 0.263678 0.116463 0.068133
H6    H     H_    0.067640 0.339590 0.386493 0.154260
H7    H     H_    0.924442 0.342974 0.367117 0.214652
H8    H     H_    0.921974 0.489998 0.282049 0.205803
H9    H     H_    0.070073 0.688675 0.595601 0.095090
H10   H     H_    0.929479 0.123309 0.594998 0.350748
H11   H     H_    0.242228 0.714278 0.742087 0.335337
H12   H     H_    0.935056 0.487184 0.722377 0.186342
H13   H     H_    0.244555 0.223232 0.582509 0.323816
H14   H     H_    0.247306 0.254399 0.295673 0.177461
H15   H     H_    0.358788 0.233138 0.303748 0.155223
H16   H     H_    0.227323 0.105647 0.117870 0.263206
H17   H     H_    0.339203 0.094868 0.085872 0.237464
H18   H     H_    0.365299 0.999992 0.314351 0.281565
H19   H     H_    0.288536 0.911363 0.221024 0.274431
H20   H     H_    0.253984 0.012893 0.353266 0.294668
H21   H     H_    0.076415 0.606766 0.077829 0.351793
H22   H     H_    0.131251 0.877898 0.469102 0.194982
H23   H     H_    0.925857 0.682491 0.394711 0.195140
H24   H     H_    0.016703 0.876358 0.469983 0.146953
H25   H     H_    0.129184 0.903318 0.218222 0.241095
H26   H     H_    0.015531 0.888484 0.214927 0.252413
H27   H     H_    0.998652 0.082685 0.341707 0.294632
H28   H     H_    0.063445 0.111870 0.194885 0.279574
H29   H     H_    0.112465 0.097728 0.360544 0.264865
H30   H     H_    0.827033 0.865358 0.638678 0.353957
H31   H     H_    0.575632 0.119980 0.315761 0.171658
H32   H     H_    0.575283 0.891091 0.310822 0.170537
H33   H     H_    0.444553 0.866742 0.804158 0.164442
H34   H     H_    0.442851 0.087538 0.815498 0.119907
H35   H     H_    0.621009 0.582722 0.125426 0.165722
H36   H     H_    0.082861 0.347240 0.631968 0.222475
N1    N     N_R   0.499430 0.499140 0.142800 -0.146115
N2    N     N_R   0.499430 0.499180 0.857150 -0.111751
O1    O     O_R   0.500010 0.316790 0.614690 -0.615037
O2    O     O_R   0.954358 0.207872 0.569959 -0.832929
O3    O     O_2   0.286500 0.873300 0.582257 -0.666788
O4    O     O_R   0.297207 0.752957 0.774609 -0.788059
O5    O     O_2   0.269031 0.110244 0.792926 -0.631988
O6    O     O_R   0.303991 0.186626 0.583913 -0.842672
O7    O     O_3   0.310726 0.333531 0.134442 -0.561047
O8    O     O_2   0.134212 0.418556 0.178303 -0.613687
O9    O     O_R   0.048983 0.589577 0.168916 -0.752527
O10   O     O_3   0.077810 0.720573 0.386832 -0.598847
O11   O     O_2   0.929171 0.713913 0.720214 -0.633066
O12   O     O_R   0.500000 0.316760 0.385350 -0.651115
O13   O     O_R   0.848638 0.815480 0.560086 -0.806732
O14   O     O_R   0.377150 0.500020 0.614720 -0.598882
O15   O     O_R   0.377140 0.499990 0.385380 -0.594388
O16   O     O_R   0.500000 0.683240 0.614650 -0.621539
O17   O     O_R   0.499990 0.683210 0.385310 -0.618496
O18   O     O_R   0.622860 0.500010 0.614620 -0.613850
O19   O     O_R   0.622850 0.499980 0.385280 -0.626299
O20   O     O_2   0.875511 0.277817 0.743934 -0.620127
Zn1   Zn    Zn3+2 0.500010 0.500020 0.653130 0.980054
Zn2   Zn    Zn3+2 0.499990 0.499980 0.346870 0.966830

loop_
_geom_bond_atom_site_label_1
_geom_bond_atom_site_label_2
_ccdc_geom_bond_type
C13   N2    A    
C26   O4    S    
C34   C37   S    
C8    C26   S    
C21   H8    S    
C10   N1    A    
C7    C8    S    
C12   C23   S    
C33   H26   S    
C27   O5    D    
C15   H3    S    
C11   H35   S    
C5    C6    A    
C10   C17   S    
C22   C38   T    
C24   C39   S    
C27   O6    S    
C1    C2    S    
C19   H36   S    
C25   O20   D    
H30   O13   S    
C20   C24   S    
O15   Zn2   S    
C8    C9    S    
C30   H19   S    
C18   O18   A    
H10   O2    S    
C12   H12   S    
C19   H1    S    
C21   H7    S    
C36   O13   S    
C26   O3    D    
O17   Zn2   S    
O1    Zn1   S    
N1    Zn2   S    
C25   O2    S    
O12   Zn2   S    
C34   H23   S    
C28   H14   S    
C33   H25   S    
C28   H15   S    
C16   O17   A    
C31   O8    D    
C17   O7    S    
C4    C40   S    
N2    Zn1   S    
C17   H5    S    
C35   H29   S    
C10   C14   A    
C39   C40   T    
O16   Zn1   S    
H21   O9    S    
H11   O4    S    
C29   C30   S    
C11   N1    A    
C32   O10   S    
C23   C34   S    
C30   H18   S    
C8    H33   S    
C24   C37   S    
C14   N2    A    
C29   H17   S    
O14   Zn1   S    
C4    O15   A    
C29   H16   S    
C21   C23   S    
C28   O7    S    
C15   H4    S    
O19   Zn2   S    
C13   H2    S    
O18   Zn1   S    
C9    C27   S    
C36   O11   D    
C15   C17   S    
C28   C29   S    
C16   O16   A    
C31   O9    S    
C18   C22   S    
C19   C24   S    
C32   H22   S    
C3    C5    A    
H13   O6    S    
C6    C7    A    
C23   C38   S    
C9    H34   S    
C9    C41   S    
C37   O10   S    
C12   C25   S    
C32   C33   S    
C3    H31   S    
C2    C41   A    
C37   H9    S    
C11   C13   A    
C35   H27   S    
C12   C19   S    
C33   C35   S    
C2    C3    A    
C34   C36   S    
C7    C41   A    
C5    H32   S    
C20   H6    S    
C6    C16   S    
C4    O14   A    
C20   C21   S    
C35   H28   S    
C1    O12   A    
C30   H20   S    
C1    O1    A    
C14   C15   S    
C18   O19   A    
C32   H24   S    
C20   C31   S    
