data_mof_unit_15038.cif
_audit_creation_date              2012-12-10T17:04:33-0500
_audit_creation_method            fapswitch 2.2
_symmetry_space_group_name_H-M    P1
_symmetry_Int_Tables_number       1
_space_group_crystal_system       triclinic
_cell_length_a                    15.013733
_cell_length_b                    10.646508
_cell_length_c                    10.044549
_cell_angle_alpha                 86.494454
_cell_angle_beta                  89.069149
_cell_angle_gamma                 90.086447
_cell_volume                      1602.33845565

loop_
_atom_site_label
_atom_site_type_symbol
_atom_type_description
_atom_site_fract_x
_atom_site_fract_y
_atom_site_fract_z
_atom_type_partial_charge
C1    C     C_R   0.505891 0.261800 0.504684 0.798290
C2    C     C_R   0.906848 0.534264 0.382303 0.109526
C3    C     C_R   0.949192 0.360714 0.710166 0.284505
C4    C     C_R   0.042480 0.369702 0.715129 0.450915
C5    C     C_R   0.090065 0.435991 0.609597 -0.118699
C6    C     C_R   0.045155 0.483300 0.494129 -0.231275
C7    C     C_R   0.092484 0.539872 0.382033 -0.017204
C8    C     C_R   0.045947 0.584249 0.266721 0.500448
C9    C     C_R   0.953096 0.583546 0.269940 -0.357005
C10   C     C_R   0.182217 0.455460 0.616601 0.464352
C11   C     C_R   0.229653 0.503652 0.502723 -0.374698
C12   C     C_R   0.326443 0.501630 0.501041 0.918509
C13   C     C_R   0.185156 0.551527 0.388411 0.431681
C14   C     C_2   0.566350 0.933863 0.423016 0.441228
C15   C     C_2   0.495168 0.871276 0.477871 0.191142
C16   C     C_2   0.566046 0.071724 0.416875 0.382486
C17   C     C_2   0.528642 0.129186 0.520015 0.256949
C18   C     C_2   0.545453 0.578414 0.919793 0.401743
C19   C     C_2   0.562375 0.549000 0.067142 0.493035
C20   C     C_R   0.499439 0.737582 0.495204 0.869664
C21   C     C_R   0.672967 0.499604 0.499175 0.890363
C22   C     C_R   0.815093 0.541797 0.386253 -0.213096
C23   C     C_R   0.768164 0.492310 0.497369 -0.075124
C24   C     C_R   0.811583 0.432720 0.605045 -0.241768
C25   C     C_R   0.904068 0.422379 0.602965 -0.022804
C26   C     C_R   0.952255 0.478394 0.492552 0.075519
H1    H     H_    0.780102 0.590172 0.305041 0.185647
H2    H     H_    0.485968 0.415164 0.898833 0.130364
H3    H     H_    0.772459 0.396725 0.690526 0.172772
H4    H     H_    0.916771 0.622235 0.184488 0.139668
N1    N     N_2   0.500970 0.501330 0.852150 -0.188599
N2    N     N_2   0.500990 0.501360 0.147810 0.051656
O1    O     O_R   0.499990 0.319060 0.613040 -0.628056
O2    O     O_R   0.500010 0.319100 0.386900 -0.598378
O3    O     O_R   0.367830 0.499950 0.613080 -0.589274
O4    O     O_R   0.367860 0.499990 0.386940 -0.561963
O5    O     O_R   0.499990 0.680900 0.613100 -0.548968
O6    O     O_R   0.500010 0.680940 0.386960 -0.623395
O7    O     O_R   0.632140 0.500010 0.613060 -0.602246
O8    O     O_R   0.632170 0.500050 0.386920 -0.576945
Zn1   Zn    Zn3+2 0.499980 0.499970 0.650990 1.003794
Zn2   Zn    Zn3+2 0.500020 0.500030 0.349010 1.045108
O9    O     O_3   0.414297 0.931021 0.494783 -0.834989
H5    H     H_    0.371715 0.869872 0.539011 0.314034
O10   O     O_3   0.593963 0.137222 0.300060 -0.640312
C27   C     C_3   0.680713 0.183694 0.318780 -0.273531
H6    H     H_    0.702784 0.237788 0.226220 0.194758
H7    H     H_    0.728909 0.105723 0.338276 0.181806
H8    H     H_    0.682597 0.248432 0.401390 0.144127
O11   O     O_3   0.527044 0.064406 0.645907 -0.623336
C28   C     C_3   0.448144 0.085606 0.720307 -0.137979
H9    H     H_    0.390134 0.114029 0.657587 0.165686
H10   H     H_    0.460631 0.156851 0.794085 0.163184
H11   H     H_    0.429568 0.996683 0.777427 0.180701
O12   O     O_3   0.582564 0.683724 0.853855 -0.714863
H12   H     H_    0.609975 0.735335 0.921201 0.325947
O13   O     O_3   0.645200 0.573928 0.118694 -0.640883
C29   C     C_3   0.711647 0.513347 0.044592 -0.371526
H13   H     H_    0.724246 0.564230 0.946228 0.202436
H14   H     H_    0.694677 0.412973 0.031301 0.163022
H15   H     H_    0.775103 0.513704 0.098994 0.195702
O14   O     O_3   0.419338 0.490376 0.095567 -0.580938
C30   C     C_3   0.392030 0.364285 0.121713 -0.116882
H16   H     H_    0.363604 0.348328 0.223451 0.207555
H17   H     H_    0.447111 0.296248 0.106545 0.125457
H18   H     H_    0.338815 0.343174 0.051081 0.148386
O15   O     O_3   0.904223 0.292575 0.811763 -0.794579
H19   H     H_    0.854964 0.246159 0.772262 0.337691
O16   O     O_3   0.089037 0.309675 0.818603 -0.714612
H20   H     H_    0.047750 0.271160 0.887228 0.378634
O17   O     O_3   0.226962 0.424600 0.733620 -0.548515
C31   C     C_3   0.221519 0.528030 0.815222 -0.111646
H21   H     H_    0.151625 0.545786 0.847276 0.160511
H22   H     H_    0.250362 0.614989 0.764282 0.119659
H23   H     H_    0.260593 0.506142 0.906382 0.211159
O18   O     O_3   0.232986 0.609725 0.282617 -0.518134
C32   C     C_3   0.245688 0.737333 0.308245 -0.129752
H24   H     H_    0.283472 0.784003 0.223175 0.190562
H25   H     H_    0.285379 0.747054 0.399400 0.097123
H26   H     H_    0.180967 0.787193 0.317391 0.145455
O19   O     O_3   0.091548 0.628335 0.152447 -0.730418
H27   H     H_    0.048584 0.653976 0.081949 0.321090
O20   O     O_3   0.643861 0.870414 0.391414 -0.647313
C33   C     C_3   0.648438 0.858531 0.252246 -0.237000
H28   H     H_    0.585514 0.821545 0.212270 0.177316
H29   H     H_    0.702101 0.790967 0.230685 0.206832
H30   H     H_    0.666177 0.949230 0.198173 0.188504

loop_
_geom_bond_atom_site_label_1
_geom_bond_atom_site_label_2
_ccdc_geom_bond_type
C8    C9    A    
O12   H12   S    
C30   H17   S    
O4    Zn2   S    
O2    Zn2   S    
C33   H30   S    
O19   H27   S    
C1    O1    A    
C7    C8    A    
O7    Zn1   S    
C32   H24   S    
C19   O13   S    
C27   H8    S    
C33   H29   S    
O6    Zn2   S    
C5    C6    A    
C29   H14   S    
C18   C19   S    
C24   H3    S    
C33   H28   S    
C16   C17   D    
C2    C22   A    
C23   C24   A    
C12   O4    A    
C10   O17   S    
C29   H15   S    
O8    Zn2   S    
C30   H18   S    
C14   O20   S    
C31   H23   S    
C19   N2    D    
C4    O16   S    
C1    O2    A    
C32   H25   S    
C15   C20   S    
C27   H7    S    
C8    O19   S    
C3    C25   A    
C24   C25   A    
C31   H22   S    
C4    C5    A    
C25   C26   A    
O10   C27   S    
C28   H9    S    
C28   H10   S    
C16   O10   S    
O9    H5    S    
O14   C30   S    
C20   O6    A    
O20   C33   S    
C21   O7    A    
C13   O18   S    
O11   C28   S    
C2    C26   A    
O18   C32   S    
C12   O3    A    
C18   O12   S    
C9    H4    S    
O15   H19   S    
C22   H1    S    
C21   C23   S    
C14   C16   S    
C3    C4    A    
C32   H26   S    
C27   H6    S    
N1    Zn1   S    
C14   C15   D    
H2    N1    S    
C3    O15   S    
C31   H21   S    
C17   O11   S    
C11   C12   S    
C6    C7    A    
C1    C17   S    
C28   H11   S    
O1    Zn1   S    
C29   H13   S    
C15   O9    S    
C5    C10   A    
C20   O5    A    
C11   C13   A    
O13   C29   S    
C6    C26   A    
C21   O8    A    
O5    Zn1   S    
O16   H20   S    
O3    Zn1   S    
C10   C11   A    
N2    O14   S    
C30   H16   S    
C7    C13   A    
O17   C31   S    
N2    Zn2   S    
C22   C23   A    
C18   N1    D    
C2    C9    A    
