data_mof_unit_36875.cif
_audit_creation_date              2013-03-05T15:47:45-0500
_audit_creation_method            fapswitch 2.2
_symmetry_space_group_name_H-M    P1
_symmetry_Int_Tables_number       1
_space_group_crystal_system       triclinic
_cell_length_a                    13.762557
_cell_length_b                    13.773996
_cell_length_c                    28.311625
_cell_angle_alpha                 89.693006
_cell_angle_beta                  90.762376
_cell_angle_gamma                 119.616603
_cell_volume                      4665.31041225

loop_
_atom_site_label
_atom_site_type_symbol
_atom_site_description
_atom_site_fract_x
_atom_site_fract_y
_atom_site_fract_z
_atom_type_partial_charge
O1    O     O_R   0.697410 0.194200 0.448260 -0.484630
O2    O     O_R   0.476980 0.157590 0.451760 -0.498771
C1    C     C_R   0.377603 0.099686 0.433868 0.531441
O3    O     O_R   0.305060 0.002060 0.448040 -0.498662
O4    O     O_R   0.341740 0.818420 0.452260 -0.482774
C2    C     C_R   0.400124 0.779123 0.433630 0.540099
O5    O     O_R   0.497310 0.801990 0.448770 -0.510560
O6    O     O_R   0.680990 0.022320 0.452370 -0.505109
C3    C     C_R   0.718694 0.119490 0.433272 0.537605
O7    O     O_R   0.697560 0.195350 0.551530 -0.478926
O8    O     O_R   0.477130 0.158650 0.547490 -0.482251
C4    C     C_R   0.378506 0.101507 0.564843 0.551789
O9    O     O_R   0.305220 0.003210 0.551310 -0.516367
O10   O     O_R   0.341890 0.819480 0.547990 -0.491636
C5    C     C_R   0.402140 0.782305 0.567341 0.560751
O11   O     O_R   0.497470 0.803140 0.552040 -0.505184
O12   O     O_R   0.681130 0.023390 0.548100 -0.503904
C6    C     C_R   0.719625 0.120769 0.567001 0.554061
Cr1   Cr    Cr6+3 0.582410 0.169020 0.499790 1.078971
Cr2   Cr    Cr6+3 0.330970 0.913410 0.499920 1.061203
Cr3   Cr    Cr6+3 0.586650 0.917610 0.500320 1.043717
O13   O     O_3   0.500010 0.000010 0.500010 -0.280186
C7    C     C_3   0.242722 0.676679 0.264221 0.041014
C8    C     C_3   0.326873 0.757903 0.227975 -0.119878
H1    H     H_    0.324069 0.827627 0.209478 0.116751
H2    H     H_    0.502765 0.845539 0.268220 0.098521
C9    C     C_1   0.301217 0.602935 0.112714 0.039469
C10   C     C_1   0.368959 0.732511 0.387313 0.009564
C11   C     C_3   0.238195 0.576127 0.238640 -0.108396
C12   C     C_3   0.323768 0.657620 0.203308 0.052546
C13   C     C_3   0.335579 0.586391 0.270295 -0.100362
C14   C     C_3   0.338863 0.686443 0.295459 0.050152
C15   C     C_3   0.420830 0.667265 0.234100 -0.072372
C16   C     C_3   0.424339 0.767814 0.259742 -0.141792
C17   C     C_1   0.313108 0.633716 0.152959 0.007570
C18   C     C_1   0.351791 0.706529 0.346337 -0.009701
H3    H     H_    0.494984 0.664246 0.221035 0.151163
H4    H     H_    0.339617 0.516662 0.287896 0.121229
H5    H     H_    0.161304 0.498969 0.228230 0.133626
C19   C     C_3   0.772551 0.053199 0.273987 -0.271182
C20   C     C_3   0.951696 0.230433 0.289542 -0.081204
C21   C     C_3   0.977489 0.230064 0.235879 -0.213507
H6    H     H_    0.836712 0.014067 0.211687 0.178904
H7    H     H_    0.810601 0.006356 0.290809 0.149256
H8    H     H_    0.980854 0.177181 0.307524 0.191989
H9    H     H_    0.013762 0.175143 0.230911 0.145088
H10   H     H_    0.043333 0.312673 0.223469 0.146969
C22   C     C_1   0.912941 0.199979 0.113733 0.017955
C23   C     C_3   0.821597 0.171159 0.296372 0.066641
C24   C     C_3   0.794018 0.062236 0.220438 -0.253269
C25   C     C_3   0.868641 0.186501 0.205406 0.072139
C26   C     C_3   0.814058 0.262460 0.216451 0.052881
C27   C     C_3   0.765323 0.231189 0.268344 -0.072998
C28   C     C_1   0.892857 0.189882 0.155050 -0.012361
C29   C     C_1   0.792470 0.153024 0.346602 -0.008910
C30   C     C_1   0.764058 0.136963 0.387121 0.003491
H11   H     H_    0.675734 0.167480 0.264394 0.099871
H12   H     H_    0.681135 0.003418 0.280111 0.106427
H13   H     H_    0.713760 0.019140 0.201008 0.120295
C31   C     C_3   0.430879 0.137295 0.270672 -0.102463
C32   C     C_3   0.355117 0.268307 0.282600 -0.079065
C33   C     C_3   0.329987 0.272112 0.228910 -0.075772
H14   H     H_    0.500759 0.233685 0.205979 0.107554
H15   H     H_    0.513262 0.205625 0.283376 0.128361
H16   H     H_    0.444870 0.329270 0.289951 0.064630
H17   H     H_    0.248333 0.269801 0.224630 0.165484
C34   C     C_1   0.302193 0.194370 0.110547 0.012861
C35   C     C_3   0.336868 0.150207 0.295790 0.030457
C36   C     C_3   0.424817 0.156134 0.216517 -0.246234
C37   C     C_3   0.320434 0.166528 0.203180 -0.046023
C38   C     C_3   0.212672 0.058554 0.221622 0.039644
C39   C     C_3   0.220216 0.057925 0.277226 -0.150253
C40   C     C_1   0.315047 0.179625 0.151507 -0.076035
C41   C     C_1   0.346015 0.142037 0.347084 -0.032749
C42   C     C_1   0.358074 0.129398 0.388166 0.001248
H18   H     H_    0.201924 0.974941 0.290920 0.168657
H19   H     H_    0.154295 0.070926 0.293182 0.194046
H20   H     H_    0.424386 0.088010 0.195767 0.109672
C43   C     C_3   0.406071 0.799877 0.735055 -0.268611
C44   C     C_3   0.404311 0.616903 0.721322 -0.067886
C45   C     C_3   0.405173 0.604035 0.776934 -0.081415
H21   H     H_    0.465004 0.818080 0.808390 0.179445
H22   H     H_    0.495909 0.843457 0.728127 0.157457
H23   H     H_    0.341085 0.533493 0.709629 0.194862
H24   H     H_    0.363732 0.513150 0.783904 0.153326
C46   C     C_1   0.298208 0.603350 0.889751 0.013405
C47   C     C_3   0.350528 0.690097 0.706203 0.047117
C48   C     C_3   0.384833 0.776929 0.788942 -0.125131
C49   C     C_3   0.329174 0.649401 0.798319 0.025711
C50   C     C_3   0.211806 0.587753 0.772755 -0.076362
C51   C     C_3   0.224751 0.629429 0.720360 -0.047276
C52   C     C_1   0.313014 0.628533 0.849034 -0.034058
C53   C     C_1   0.362405 0.715626 0.655304 -0.010260
C54   C     C_1   0.375749 0.740200 0.614226 0.029070
H25   H     H_    0.200132 0.694202 0.721462 0.029322
H26   H     H_    0.153445 0.609970 0.790322 0.075172
H27   H     H_    0.373962 0.855327 0.722325 0.128623
C55   C     C_3   0.688822 0.158907 0.732733 -0.083593
C56   C     C_3   0.899413 0.256642 0.721387 -0.076887
C57   C     C_3   0.920579 0.257139 0.775277 -0.261573
H28   H     H_    0.686609 0.230321 0.715661 0.196536
H29   H     H_    0.968540 0.253616 0.702783 0.219655
H30   H     H_    0.943619 0.339264 0.791221 0.089738
H31   H     H_    0.994457 0.247501 0.781482 0.171757
C58   C     C_1   0.883969 0.196713 0.890699 0.013763
C59   C     C_3   0.787190 0.150963 0.708419 0.022953
C60   C     C_3   0.714170 0.182383 0.788562 -0.022982
C61   C     C_3   0.817615 0.163618 0.801104 0.025618
C62   C     C_3   0.799066 0.046218 0.783075 0.057552
C63   C     C_3   0.790162 0.046925 0.727414 -0.260559
C64   C     C_1   0.846510 0.177841 0.851434 0.008264
C65   C     C_1   0.775515 0.142241 0.656507 0.066562
C66   C     C_1   0.758164 0.133938 0.614660 0.079684
H32   H     H_    0.716175 0.971482 0.713369 0.115099
H33   H     H_    0.860809 0.044084 0.710590 0.172635
C67   C     C_3   0.271593 0.046280 0.721726 -0.125528
C68   C     C_3   0.260278 0.225974 0.707956 0.072067
C69   C     C_3   0.260722 0.242241 0.763246 -0.177312
H34   H     H_    0.175840 0.211171 0.777557 0.162360
H35   H     H_    0.305792 0.332455 0.771891 0.128526
C70   C     C_1   0.298511 0.207381 0.883839 0.022329
C71   C     C_3   0.329545 0.165553 0.698351 0.018815
C72   C     C_3   0.265021 0.059348 0.776693 -0.070583
C73   C     C_3   0.319313 0.185897 0.790790 -0.048774
C74   C     C_3   0.443715 0.243783 0.775578 -0.090603
C75   C     C_3   0.448635 0.234747 0.721028 -0.178491
C76   C     C_1   0.311202 0.197212 0.842456 -0.055454
C77   C     C_1   0.344869 0.154829 0.648143 -0.020008
C78   C     C_1   0.359234 0.136530 0.608573 0.030937
H36   H     H_    0.498266 0.194595 0.712754 0.106834
H37   H     H_    0.496322 0.317302 0.704077 0.248392
H38   H     H_    0.482424 0.197255 0.791742 0.134725
H39   H     H_    0.330388 0.013770 0.716578 0.134250
H40   H     H_    0.317072 0.027439 0.793623 0.173650
O14   O     O_R   0.175070 0.138920 0.049300 -0.504297
O15   O     O_R   0.987530 0.169680 0.046430 -0.500077
C79   C     C_R   0.948877 0.226938 0.066395 0.550161
O16   O     O_R   0.966170 0.322080 0.051780 -0.483516
O17   O     O_R   0.184260 0.509700 0.049190 -0.486921
C80   C     C_R   0.282974 0.551695 0.067512 0.556442
O18   O     O_R   0.358220 0.530810 0.052620 -0.490259
O19   O     O_R   0.327700 0.313010 0.046780 -0.479549
C81   C     C_R   0.271489 0.213681 0.064574 0.553629
O20   O     O_R   0.175720 0.143820 0.946060 -0.492003
O21   O     O_R   0.988130 0.174220 0.950720 -0.505279
C82   C     C_R   0.943251 0.230370 0.934064 0.540531
O22   O     O_R   0.966820 0.326980 0.948540 -0.507578
O23   O     O_R   0.184860 0.514240 0.953480 -0.496053
C83   C     C_R   0.283006 0.557325 0.935443 0.544557
O24   O     O_R   0.358870 0.535710 0.949380 -0.522307
O25   O     O_R   0.328300 0.317550 0.951070 -0.508082
C84   C     C_R   0.270482 0.220809 0.931031 0.551226
Cr4   Cr    Cr6+3 0.083990 0.164050 0.998170 1.050935
Cr5   Cr    Cr6+3 0.080550 0.415820 0.000690 1.067292
Cr6   Cr    Cr6+3 0.335830 0.419220 0.999920 1.050545
O26   O     O_3   0.166790 0.333030 0.999590 -0.281704
C85   C     C_2   0.758216 0.324391 0.293872 0.159889
H41   H     H_    0.713414 0.361787 0.276990 0.092737
O27   O     O_2   0.800308 0.358275 0.332776 -0.497089
C86   C     C_3   0.723036 0.252254 0.179463 -0.262103
C87   C     C_3   0.634650 0.136008 0.162910 -0.458373
H42   H     H_    0.671383 0.098151 0.139825 0.157253
H43   H     H_    0.592539 0.080667 0.192981 0.130156
H44   H     H_    0.570958 0.143331 0.141098 0.144583
H45   H     H_    0.680545 0.295923 0.193889 0.105753
H46   H     H_    0.763913 0.298373 0.146596 0.201870
C88   C     C_2   0.903670 0.386814 0.213141 0.178390
H47   H     H_    0.910826 0.447401 0.239110 0.114680
O28   O     O_2   0.964492 0.422512 0.178858 -0.524580
C89   C     C_2   0.140138 0.677855 0.280255 0.250675
H48   H     H_    0.073260 0.660143 0.255131 0.160925
O29   O     O_2   0.130588 0.697502 0.321370 -0.486846
C90   C     C_2   0.290897 0.305907 0.313287 0.180568
H49   H     H_    0.335679 0.374678 0.337801 0.109756
O30   O     O_2   0.189227 0.257926 0.312148 -0.580196
C91   C     C_2   0.417415 0.381150 0.207471 0.195061
H50   H     H_    0.505536 0.406831 0.210576 0.107475
O31   O     O_2   0.389481 0.441044 0.186301 -0.520534
C92   C     C_2   0.204141 0.952746 0.200902 0.235587
H51   H     H_    0.252297 0.956533 0.170232 0.092759
O32   O     O_2   0.137054 0.860949 0.216244 -0.497973
C93   C     C_3   0.430820 0.025615 0.280718 -0.288083
C94   C     C_3   0.476151 0.018781 0.329666 -0.417185
H52   H     H_    0.539752 0.102439 0.342863 0.164682
H53   H     H_    0.406704 0.978167 0.355029 0.175213
H54   H     H_    0.516226 0.966133 0.328301 0.124775
H55   H     H_    0.346816 0.952205 0.275459 0.181681
H56   H     H_    0.485210 0.016397 0.254908 0.121107
C95   C     C_2   0.105785 0.056860 0.206115 0.226070
H57   H     H_    0.107171 0.114792 0.179646 0.091775
O33   O     O_2   0.015545 0.986542 0.221599 -0.497579
C96   C     C_3   0.506607 0.630721 0.692677 -0.273649
C97   C     C_3   0.608936 0.747077 0.691247 -0.442489
H58   H     H_    0.589696 0.805976 0.672037 0.176343
H59   H     H_    0.641428 0.778377 0.727044 0.130097
H60   H     H_    0.676305 0.743158 0.671688 0.161014
H61   H     H_    0.532106 0.570350 0.705527 0.221513
H62   H     H_    0.479462 0.605776 0.655413 0.195383
C98   C     C_3   0.522471 0.647543 0.800641 -0.288421
C99   C     C_3   0.520868 0.601049 0.850098 -0.398563
H63   H     H_    0.513140 0.654323 0.877302 0.190389
H64   H     H_    0.452202 0.513472 0.853680 0.147094
H65   H     H_    0.601334 0.602872 0.857217 0.160379
H66   H     H_    0.573981 0.624259 0.779155 0.205178
H67   H     H_    0.568363 0.738024 0.803070 0.165676
C100  C     C_2   0.143547 0.550618 0.683733 0.265157
H68   H     H_    0.070073 0.557007 0.674958 0.133089
O34   O     O_2   0.161640 0.485298 0.661847 -0.485282
C101  C     C_2   0.317636 0.826906 0.808591 0.189056
H69   H     H_    0.238395 0.807754 0.792774 0.137509
O35   O     O_2   0.351076 0.887566 0.843279 -0.459684
C102  C     C_2   0.160491 0.463453 0.779592 0.150107
H70   H     H_    0.129534 0.428670 0.814237 0.094681
O36   O     O_2   0.159953 0.402469 0.748531 -0.558623
C103  C     C_2   0.745502 0.303347 0.800629 0.217687
H71   H     H_    0.783177 0.337656 0.834836 0.150289
O37   O     O_2   0.727862 0.362492 0.773670 -0.512983
C104  C     C_2   0.902121 0.363468 0.705631 0.250529
H72   H     H_    0.921523 0.430508 0.730472 0.135743
O38   O     O_2   0.884817 0.377107 0.664369 -0.495243
C105  C     C_2   0.691138 0.953494 0.801933 0.197040
H73   H     H_    0.627556 0.901506 0.777548 0.051938
O39   O     O_2   0.672813 0.938546 0.844250 -0.513757
C106  C     C_2   0.574210 0.062653 0.719550 0.118556
H74   H     H_    0.503665 0.039764 0.742112 0.073167
O40   O     O_2   0.554992 0.019001 0.680582 -0.545489
C107  C     C_2   0.614248 0.110527 0.820364 0.237566
H75   H     H_    0.554162 0.025452 0.811456 0.149264
O41   O     O_2   0.602326 0.145079 0.858339 -0.477645
C108  C     C_3   0.894303 0.018052 0.797074 -0.259506
C109  C     C_3   0.886643 0.961386 0.845043 -0.379679
H76   H     H_    0.872815 0.004682 0.874640 0.199674
H77   H     H_    0.818705 0.872880 0.844120 0.182011
H78   H     H_    0.965677 0.961235 0.852796 0.165193
H79   H     H_    0.894886 0.959149 0.770497 0.146492
H80   H     H_    0.977581 0.092724 0.795837 0.153978
C110  C     C_2   0.149556 0.990699 0.796652 0.220280
H81   H     H_    0.084455 0.008226 0.786139 0.120383
O42   O     O_2   0.129181 0.915944 0.824902 -0.496619
C111  C     C_3   0.159772 0.959128 0.696203 -0.271867
C112  C     C_3   0.138786 0.840418 0.698303 -0.460931
H82   H     H_    0.208985 0.836627 0.681275 0.150535
H83   H     H_    0.128062 0.811671 0.735379 0.166090
H84   H     H_    0.060716 0.784237 0.678507 0.157829
H85   H     H_    0.085102 0.958546 0.710401 0.185078
H86   H     H_    0.160956 0.978327 0.658084 0.155564
C113  C     C_2   0.305289 0.336648 0.682216 0.189800
H87   H     H_    0.252054 0.373079 0.679120 0.209680
O43   O     O_2   0.393056 0.380188 0.660739 -0.551745
C114  C     C_2   0.142966 0.160209 0.687297 0.180360
H88   H     H_    0.131737 0.140781 0.649802 0.119244
O44   O     O_2   0.060257 0.130190 0.711258 -0.612222
C115  C     C_2   0.512035 0.362163 0.794334 0.261684
H89   H     H_    0.517619 0.376630 0.832145 0.118971
O45   O     O_2   0.564164 0.441625 0.768249 -0.510064
C116  C     C_3   0.021774 0.349313 0.311341 -0.241075
C117  C     C_3   0.034311 0.351212 0.365177 -0.378296
H90   H     H_    0.958697 0.342255 0.382519 0.202692
H91   H     H_    0.051382 0.284442 0.377597 0.170328
H92   H     H_    0.105472 0.433056 0.376350 0.155265
H93   H     H_    0.107788 0.387581 0.297390 0.167498
H94   H     H_    0.989157 0.405100 0.300885 0.185050

loop_
_geom_bond_atom_site_label_1
_geom_bond_atom_site_label_2
_geom_bond_distance
_ccdc_geom_bond_type
C26   C86   1.574226 S    
C43   H22   1.095053 S    
C29   C30   1.200623 T    
C53   C54   1.200366 T    
C67   C72   1.576472 S    
C116  H94   1.102060 S    
C20   C21   1.565401 S    
C32   C35   1.562330 S    
C57   H31   1.100299 S    
C94   H52   1.110209 S    
C34   C81   1.426939 S    
C77   C78   1.189904 T    
C87   H44   1.110045 S    
C5    C54   1.423600 S    
C43   C47   1.546684 S    
O21   C82   1.289390 A    
C104  H72   1.084826 S    
C83   O24   1.276501 A    
C72   C73   1.571047 S    
C88   O28   1.222385 D    
O4    Cr2   1.941772 S    
C59   C65   1.475433 S    
C90   H49   1.085101 S    
C22   C28   1.197061 T    
C4    O9    1.281714 A    
C20   C116  1.557699 S    
O8    Cr1   1.946532 S    
C85   H41   1.085066 S    
C67   C71   1.574928 S    
C22   C79   1.417552 S    
C24   H13   1.101942 S    
C14   C18   1.460100 S    
C8    C16   1.554041 S    
C117  H90   1.106924 S    
C44   C47   1.572269 S    
C47   C51   1.562215 S    
C94   H53   1.107931 S    
C26   C88   1.541779 S    
O4    C2    1.288808 A    
C100  O34   1.219409 D    
C89   H48   1.084026 S    
C75   H36   1.098333 S    
C35   C41   1.464517 S    
C5    O11   1.277871 A    
C19   C24   1.541052 S    
C98   H67   1.085636 S    
C61   C62   1.593113 S    
C33   C37   1.575688 S    
O23   C83   1.288521 A    
C112  H82   1.109529 S    
C21   H9    1.103422 S    
C38   C92   1.523190 S    
O20   Cr4   2.061459 S    
C95   O33   1.222165 D    
C107  H75   1.077240 S    
C69   H34   1.108424 S    
C43   C48   1.558278 S    
C39   H19   1.109763 S    
C110  H81   1.074952 S    
C93   C94   1.533692 S    
H2    C16   1.105665 S    
C2    C10   1.427431 S    
H14   C36   1.106260 S    
C99   H63   1.108312 S    
C97   H59   1.102292 S    
C60   C107  1.536069 S    
O25   C84   1.295650 A    
C13   C15   1.547745 S    
C108  H80   1.099205 S    
C37   C38   1.586262 S    
C34   C40   1.202021 T    
O25   Cr6   1.938586 S    
O19   Cr6   1.932398 S    
C1    C42   1.416916 S    
C63   H32   1.105715 S    
Cr5   O26   2.012253 S    
H21   C48   1.100396 S    
C39   H18   1.110683 S    
C21   C25   1.559219 S    
C21   H10   1.106516 S    
O21   Cr4   1.923091 S    
O16   Cr5   2.066147 S    
O14   C81   1.283418 A    
C74   C75   1.555125 S    
C58   C64   1.193539 T    
C98   C99   1.532464 S    
C85   O27   1.219792 D    
C105  O39   1.222871 D    
Cr3   O13   2.011783 S    
C106  H74   1.077901 S    
C111  H86   1.108193 S    
C44   C96   1.561999 S    
C36   H20   1.107223 S    
C36   C37   1.554060 S    
O23   Cr5   1.947623 S    
C6    C66   1.422435 S    
C20   C23   1.572420 S    
C65   C66   1.200289 T    
C87   H43   1.100580 S    
C43   H27   1.111263 S    
C24   C25   1.559457 S    
C8    C12   1.532550 S    
C113  O43   1.219867 D    
C31   C93   1.562455 S    
C117  H92   1.111037 S    
C57   C61   1.554129 S    
C19   H12   1.111280 S    
C41   C42   1.196625 T    
C33   H17   1.113378 S    
C72   H40   1.111700 S    
C44   H23   1.093167 S    
C92   O32   1.220973 D    
O10   Cr2   1.927824 S    
Cr1   O13   2.023887 S    
O1    C3    1.276993 A    
C8    H1    1.108482 S    
C101  H69   1.078599 S    
C4    C78   1.406232 S    
C94   H54   1.108041 S    
C88   H47   1.081703 S    
C115  O45   1.219580 D    
C27   H11   1.109395 S    
C100  H68   1.083052 S    
O6    C3    1.290833 A    
C93   H56   1.104491 S    
C67   H39   1.112870 S    
O17   Cr5   1.933243 S    
C9    C17   1.198510 T    
C114  H88   1.086372 S    
C86   H45   1.107793 S    
O1    Cr1   2.065686 S    
C57   H30   1.109518 S    
C15   H3    1.110065 S    
C55   C60   1.613645 S    
C25   C26   1.594778 S    
C106  O40   1.220958 D    
C35   C39   1.561104 S    
C117  H91   1.110200 S    
C14   C16   1.542372 S    
C71   C75   1.562508 S    
C68   C71   1.571235 S    
C11   C12   1.536320 S    
C105  H73   1.060662 S    
C62   C108  1.585141 S    
C104  O38   1.221126 D    
C56   C57   1.548868 S    
C56   C104  1.518124 S    
O7    Cr1   2.040735 S    
O8    C4    1.288741 A    
C97   H60   1.110243 S    
C33   C91   1.515057 S    
C116  C117  1.530532 S    
C11   H5    1.104375 S    
C37   C40   1.478415 S    
O12   C6    1.289919 A    
C32   C90   1.510580 S    
C108  H79   1.112482 S    
C109  H77   1.110919 S    
C3    C30   1.422957 S    
C69   C73   1.567151 S    
C96   H61   1.108511 S    
C80   O18   1.280739 A    
C49   C52   1.461011 S    
C74   C115  1.518367 S    
O22   Cr5   2.047433 S    
C10   C18   1.201376 T    
C38   C95   1.518638 S    
C90   O30   1.216845 D    
C73   C76   1.483337 S    
C12   C17   1.453818 S    
C31   C36   1.561652 S    
C91   H50   1.084963 S    
C107  O41   1.223394 D    
C102  O36   1.216784 D    
C86   H46   1.113678 S    
O24   Cr6   2.051109 S    
C110  O42   1.220801 D    
C98   H66   1.101693 S    
C46   C83   1.409407 S    
C60   C61   1.602814 S    
C1    O3    1.282157 A    
H6    C24   1.112564 S    
C7    C11   1.539769 S    
Cr6   O26   2.022736 S    
C51   C100  1.511558 S    
C62   C105  1.503771 S    
C26   C27   1.589892 S    
C82   O22   1.272650 A    
C59   C63   1.547105 S    
O5    Cr3   2.054221 S    
C95   H57   1.085178 S    
C108  C109  1.541375 S    
C56   C59   1.551644 S    
C12   C15   1.535227 S    
O2    Cr1   1.924377 S    
C11   C13   1.549697 S    
O9    Cr2   2.058788 S    
C13   C14   1.535212 S    
O18   Cr6   2.056159 S    
Cr2   O13   2.022909 S    
C44   C45   1.584004 S    
C23   C29   1.468950 S    
O6    Cr3   1.945224 S    
C111  H85   1.104766 S    
C45   C98   1.560425 S    
O17   C80   1.287282 A    
C70   C84   1.433539 S    
O11   Cr3   2.060798 S    
C50   H26   1.114148 S    
C2    O5    1.281302 A    
C68   C114  1.518003 S    
C92   H51   1.084712 S    
C55   H28   1.107364 S    
C79   O16   1.278180 A    
C67   C111  1.576476 S    
C68   C113  1.518366 S    
C27   C85   1.521802 S    
C9    C80   1.422983 S    
C55   C59   1.578158 S    
C61   C64   1.462134 S    
C31   H15   1.112991 S    
C48   C101  1.511827 S    
C112  H84   1.110947 S    
C96   C97   1.524311 S    
C25   C28   1.463672 S    
C13   H4    1.104878 S    
C103  O37   1.220281 D    
O2    C1    1.292679 A    
C45   C49   1.586793 S    
C38   C39   1.576551 S    
O20   C84   1.284304 A    
C87   H42   1.107975 S    
C68   C69   1.582002 S    
C7    C14   1.531403 S    
C50   C102  1.507496 S    
O15   Cr4   1.945857 S    
C74   H38   1.109838 S    
C50   C51   1.567975 S    
C115  H89   1.084666 S    
C7    C89   1.496429 S    
C89   O29   1.219861 D    
C75   H37   1.104078 S    
O7    C6    1.280367 A    
C99   H65   1.110979 S    
C23   C27   1.588320 S    
C58   C82   1.411897 S    
C47   C53   1.473416 S    
Cr4   O26   2.023816 S    
C111  C112  1.514329 S    
C101  O35   1.221101 D    
C70   C76   1.205910 T    
C15   C16   1.546353 S    
C109  H78   1.107789 S    
C93   H55   1.105796 S    
C103  H71   1.085999 S    
C71   C77   1.458711 S    
C32   C33   1.560776 S    
C86   C87   1.526708 S    
C69   H35   1.107313 S    
C7    C8    1.544249 S    
C51   H25   1.100512 S    
C96   H62   1.112289 S    
O3    Cr2   2.042733 S    
C32   H16   1.115375 S    
C19   H7    1.114157 S    
C56   H29   1.112215 S    
C60   C103  1.539742 S    
C48   C49   1.553480 S    
C31   C35   1.569897 S    
C99   H64   1.110394 S    
C97   H58   1.108080 S    
C62   C63   1.579325 S    
C109  H76   1.102635 S    
O19   C81   1.296518 A    
C20   H8    1.113430 S    
O10   C5    1.286258 A    
O15   C79   1.285278 A    
C46   C52   1.192801 T    
C112  H83   1.105565 S    
C49   C50   1.572832 S    
C116  H93   1.108451 S    
C114  O44   1.216228 D    
C63   H33   1.106276 S    
C73   C74   1.555368 S    
C45   H24   1.107266 S    
O14   Cr4   2.040031 S    
C19   C23   1.553329 S    
C113  H87   1.075840 S    
C102  H70   1.085094 S    
C91   O31   1.220506 D    
C72   C110  1.507192 S    
C55   C106  1.519134 S    
O12   Cr3   1.935274 S    
