data_mof_unit_20146.cif
_audit_creation_date              2012-12-10T20:55:44-0500
_audit_creation_method            fapswitch 2.2
_symmetry_space_group_name_H-M    P1
_symmetry_Int_Tables_number       1
_space_group_crystal_system       triclinic
_cell_length_a                    15.872825
_cell_length_b                    15.000521
_cell_length_c                    10.597932
_cell_angle_alpha                 91.021213
_cell_angle_beta                  89.616644
_cell_angle_gamma                 90.881091
_cell_volume                      2522.62336657

loop_
_atom_site_label
_atom_site_type_symbol
_atom_type_description
_atom_site_fract_x
_atom_site_fract_y
_atom_site_fract_z
_atom_type_partial_charge
C1    C     C_1   0.250946 0.498802 0.494645 -0.122743
C2    C     C_1   0.749143 0.501794 0.495968 -0.159220
C3    C     C_R   0.444470 0.502014 0.864403 -0.134071
C4    C     C_R   0.483541 0.495891 0.119634 -0.111491
C5    C     C_R   0.499392 0.905085 0.502114 0.070212
C6    C     C_R   0.499625 0.094937 0.501084 0.037289
C7    C     C_R   0.426053 0.951476 0.472245 -0.175364
C8    C     C_R   0.572944 0.048537 0.530909 -0.188352
C9    C     C_R   0.572831 0.954584 0.531399 -0.141437
C10   C     C_R   0.426140 0.045452 0.471873 -0.152389
C11   C     C_R   0.957936 0.582776 0.491476 -0.053706
C12   C     C_R   0.042342 0.418322 0.481215 -0.058746
C13   C     C_R   0.045947 0.581969 0.491451 -0.055836
C14   C     C_R   0.954331 0.419121 0.481436 -0.053447
C15   C     C_R   0.338921 0.499545 0.498649 0.876444
C16   C     C_R   0.661098 0.500610 0.499880 0.941254
C17   C     C_R   0.497991 0.498708 0.256441 0.868809
C18   C     C_R   0.474873 0.500316 0.732922 0.882525
C19   C     C_R   0.912954 0.501330 0.487502 0.033300
C20   C     C_R   0.087283 0.499730 0.487148 0.028452
C21   C     C_1   0.499636 0.807310 0.501213 0.061537
C22   C     C_1   0.499788 0.192700 0.500692 0.043597
C23   C     C_1   0.823739 0.501966 0.491877 -0.018975
C24   C     C_1   0.176420 0.498923 0.490908 -0.020502
C25   C     C_R   0.547769 0.649342 0.089389 -0.173344
C26   C     C_R   0.399697 0.342093 0.865569 -0.170021
C27   C     C_R   0.437070 0.667347 0.887640 -0.157327
C28   C     C_R   0.425018 0.337552 0.120335 -0.175012
C29   C     C_R   0.535325 0.734219 0.037331 0.433397
C30   C     C_R   0.408262 0.259108 0.922219 0.435497
C31   C     C_R   0.475783 0.743715 0.941403 0.431329
C32   C     C_R   0.424774 0.256665 0.051253 0.408484
C33   C     C_R   0.455185 0.581922 0.934855 -0.036017
C34   C     C_R   0.446337 0.418452 0.058464 -0.050714
C35   C     C_R   0.495770 0.575764 0.050603 -0.052124
C36   C     C_R   0.430899 0.420789 0.927565 -0.049656
H1    H     H_    0.368803 0.079535 0.448429 0.170049
H2    H     H_    0.630261 0.920534 0.554429 0.152415
H3    H     H_    0.630399 0.085007 0.553872 0.151211
H4    H     H_    0.368666 0.914991 0.448935 0.151273
N1    N     N_1   0.500000 0.270550 0.500000 -0.088519
N2    N     N_1   0.500000 0.729450 0.500000 -0.084831
O1    O     O_R   0.378020 0.573650 0.500040 -0.614888
O2    O     O_R   0.621980 0.426350 0.499960 -0.606703
O3    O     O_R   0.621980 0.573650 0.499960 -0.596754
O4    O     O_R   0.378020 0.426350 0.500040 -0.606136
O5    O     O_R   0.499990 0.573670 0.316780 -0.616122
O6    O     O_R   0.500010 0.426330 0.683220 -0.609705
O7    O     O_R   0.500010 0.573670 0.683220 -0.601165
O8    O     O_R   0.499990 0.426330 0.316780 -0.620890
Zn1   Zn    Zn3+2 0.500000 0.598370 0.500000 0.994711
Zn2   Zn    Zn3+2 0.500000 0.401630 0.500000 0.985551
C37   C     C_1   0.093879 0.665229 0.496908 0.197764
N3    N     N_1   0.132143 0.731502 0.501284 -0.179826
C38   C     C_1   0.906457 0.335827 0.476403 0.194148
N4    N     N_1   0.868266 0.269501 0.472397 -0.189272
C39   C     C_1   0.913743 0.666867 0.496448 0.206108
N5    N     N_1   0.878468 0.733821 0.500381 -0.178490
C40   C     C_1   0.086591 0.334255 0.475937 0.214544
N6    N     N_1   0.121929 0.267341 0.471740 -0.159737
O9    O     O_3   0.415814 0.176107 0.111897 -0.576688
C41   C     C_3   0.492903 0.156965 0.170121 -0.308597
H5    H     H_    0.509121 0.207491 0.244218 0.176058
H6    H     H_    0.486943 0.091100 0.215479 0.199681
H7    H     H_    0.545186 0.152729 0.099848 0.148498
O10   O     O_3   0.465460 0.826029 0.887159 -0.575777
C42   C     C_3   0.399640 0.870524 0.950723 -0.250384
H8    H     H_    0.387936 0.933936 0.901974 0.207664
H9    H     H_    0.339834 0.830768 0.948825 0.146164
H10   H     H_    0.417168 0.887721 0.049558 0.165223
O11   O     O_3   0.381879 0.182292 0.858790 -0.575892
C43   C     C_3   0.453356 0.133272 0.822453 -0.234626
H11   H     H_    0.482638 0.101847 0.905021 0.185539
H12   H     H_    0.500715 0.175083 0.771613 0.140153
H13   H     H_    0.432955 0.078543 0.757368 0.203620
O12   O     O_3   0.585245 0.807375 0.070818 -0.567561
C44   C     C_3   0.565418 0.835600 0.195225 -0.260984
H14   H     H_    0.583880 0.906918 0.206461 0.191654
H15   H     H_    0.602119 0.797802 0.264502 0.175682
H16   H     H_    0.496871 0.830131 0.217898 0.122667
C45   C     C_1   0.623728 0.635085 0.160863 0.271223
N7    N     N_1   0.684611 0.623750 0.217511 -0.203216
C46   C     C_1   0.340811 0.345745 0.762814 0.288843
N8    N     N_1   0.290820 0.345817 0.684011 -0.179049
C47   C     C_1   0.374070 0.678048 0.791127 0.262108
N9    N     N_1   0.323331 0.687147 0.714722 -0.188265
C48   C     C_1   0.365404 0.338000 0.223739 0.303205
N10   N     N_1   0.315161 0.335554 0.303107 -0.173313

loop_
_geom_bond_atom_site_label_1
_geom_bond_atom_site_label_2
_ccdc_geom_bond_type
C7    C10   A    
C48   N10   T    
C26   C46   S    
C31   O10   S    
C38   N4    T    
C30   O11   S    
C29   O12   S    
C44   H14   S    
C27   C33   A    
C11   C19   A    
C10   H1    S    
C32   O9    S    
C47   N9    T    
C22   N1    T    
C3    C33   A    
C6    C22   S    
O4    Zn2   S    
C3    C18   S    
C27   C47   S    
C41   H6    S    
C12   C40   S    
C20   C24   S    
C8    C9    A    
O7    Zn1   S    
O8    Zn2   S    
C7    H4    S    
C1    C15   S    
C8    H3    S    
C2    C16   S    
C16   O2    A    
N1    Zn2   S    
C41   H7    S    
N2    Zn1   S    
O2    Zn2   S    
O10   C42   S    
C4    C35   A    
C28   C34   A    
C40   N6    T    
C25   C45   S    
C43   H13   S    
C45   N7    T    
C13   C37   S    
C44   H15   S    
C25   C29   A    
C4    C34   A    
C27   C31   A    
C42   H8    S    
C28   C32   A    
O12   C44   S    
C43   H12   S    
C5    C7    A    
O5    Zn1   S    
C37   N3    T    
C42   H9    S    
C16   O3    A    
C19   C23   S    
C5    C9    A    
C41   H5    S    
C46   N8    T    
C12   C20   A    
C28   C48   S    
C25   C35   A    
C4    C17   S    
C26   C36   A    
C12   C14   A    
C26   C30   A    
C44   H16   S    
C13   C20   A    
C14   C19   A    
C17   O5    A    
C43   H11   S    
C18   O6    A    
C17   O8    A    
C6    C10   A    
C6    C8    A    
C42   H10   S    
C15   O1    A    
O11   C43   S    
C29   C31   A    
C30   C32   A    
C11   C13   A    
O1    Zn1   S    
C39   N5    T    
C3    C36   A    
C9    H2    S    
C33   C35   A    
C14   C38   S    
C34   C36   A    
O9    C41   S    
C21   N2    T    
O6    Zn2   S    
C5    C21   S    
C1    C24   T    
C2    C23   T    
O3    Zn1   S    
C15   O4    A    
C11   C39   S    
C18   O7    A    
