data_mof_unit_30214.cif
_audit_creation_date              2012-12-10T18:05:55-0500
_audit_creation_method            fapswitch 2.2
_symmetry_space_group_name_H-M    P1
_symmetry_Int_Tables_number       1
_space_group_crystal_system       triclinic
_cell_length_a                    12.524108
_cell_length_b                    13.108133
_cell_length_c                    15.018423
_cell_angle_alpha                 91.680905
_cell_angle_beta                  101.718834
_cell_angle_gamma                 81.337292
_cell_volume                      2386.60578828

loop_
_atom_site_label
_atom_site_type_symbol
_atom_type_description
_atom_site_fract_x
_atom_site_fract_y
_atom_site_fract_z
_atom_type_partial_charge
C1    C     C_R   0.437912 0.691756 0.489291 0.905693
C2    C     C_R   0.394755 0.535750 0.799477 0.131787
C3    C     C_R   0.494992 0.506336 0.768930 -0.112289
C4    C     C_R   0.498374 0.503099 0.672944 0.939597
C5    C     C_R   0.593910 0.476680 0.830479 -0.255275
C6    C     C_R   0.691743 0.063918 0.632618 -0.208386
C7    C     C_R   0.600580 0.198810 0.525913 -0.093371
C8    C     C_R   0.327485 0.823215 0.383779 -0.197863
C9    C     C_R   0.334508 0.909843 0.335588 -0.162145
C10   C     C_R   0.412590 0.974093 0.370094 0.146154
C11   C     C_R   0.471672 0.961611 0.462203 0.015887
C12   C     C_R   0.599085 0.472508 0.108997 0.119768
C13   C     C_R   0.459472 0.875311 0.512037 -0.000071
C14   C     C_R   0.543389 0.029469 0.507099 0.098463
C15   C     C_R   0.615108 0.000690 0.591297 0.094786
C16   C     C_R   0.561892 0.308440 0.510809 0.869516
C17   C     C_R   0.598125 0.917907 0.639640 -0.198263
C18   C     C_R   0.513343 0.862520 0.604018 0.157122
C19   C     C_R   0.533138 0.131193 0.479093 -0.247788
C20   C     C_R   0.687184 0.162761 0.598531 0.194145
C21   C     C_R   0.398259 0.800638 0.467711 -0.068571
C22   C     C_R   0.096221 0.334366 0.378059 0.104963
C23   C     C_R   0.298552 0.546896 0.018038 -0.211547
C24   C     C_R   0.807001 0.632541 0.606058 0.217972
C25   C     C_R   0.890652 0.687693 0.592777 0.110871
C26   C     C_R   0.954610 0.651017 0.529121 0.103419
C27   C     C_R   0.946175 0.551373 0.492753 -0.071246
C28   C     C_R   0.500444 0.498645 0.327336 0.871824
C29   C     C_R   0.847683 0.510920 0.493205 0.172853
C30   C     C_R   0.031551 0.489603 0.458095 -0.011921
C31   C     C_R   0.010102 0.398232 0.409035 0.153398
C32   C     C_R   0.904155 0.371229 0.394803 -0.287823
C33   C     C_R   0.825358 0.425144 0.438463 -0.188911
C34   C     C_R   0.296586 0.550589 0.925794 -0.153040
C35   C     C_R   0.140951 0.509048 0.480083 -0.020733
C36   C     C_R   0.202248 0.360823 0.400100 -0.057994
C37   C     C_R   0.599794 0.472987 0.201545 -0.237366
C38   C     C_R   0.500509 0.497225 0.231828 -0.056406
C39   C     C_R   0.400358 0.520600 0.170894 -0.241311
C40   C     C_R   0.398463 0.521720 0.078723 0.119350
C41   C     C_R   0.497884 0.497910 0.047140 0.081605
C42   C     C_3   0.091009 0.152027 0.383952 -0.726693
C43   C     C_3   0.858912 0.226666 0.608773 -0.694465
C44   C     C_R   0.394932 0.528952 0.892380 0.060791
C45   C     C_R   0.496093 0.500355 0.953923 0.029431
C46   C     C_R   0.595694 0.475245 0.922821 0.119656
C47   C     C_R   0.695672 0.448445 0.984485 -0.180574
C48   C     C_R   0.697454 0.447618 0.077369 -0.198381
H1    H     H_    0.677025 0.453816 0.249773 0.160221
H2    H     H_    0.164260 0.572565 0.522044 0.194007
H3    H     H_    0.749256 0.395631 0.430174 0.206757
H4    H     H_    0.221747 0.564336 0.041951 0.157249
H5    H     H_    0.216656 0.569638 0.882132 0.190524
H6    H     H_    0.669989 0.453954 0.806281 0.180432
H7    H     H_    0.772445 0.428916 0.960877 0.155365
H8    H     H_    0.775461 0.427629 0.124363 0.155582
H9    H     H_    0.122778 0.229765 0.276908 0.237711
H10   H     H_    0.177861 0.133509 0.421261 0.242302
H11   H     H_    0.069636 0.085271 0.340290 0.253824
H12   H     H_    0.641799 0.904258 0.709295 0.192689
H13   H     H_    0.035344 0.164430 0.433474 0.251370
H14   H     H_    0.777047 0.221045 0.714507 0.220663
H15   H     H_    0.905038 0.288889 0.640454 0.238116
H16   H     H_    0.838141 0.238812 0.534026 0.242344
H17   H     H_    0.912318 0.150955 0.624001 0.244214
H18   H     H_    0.749666 0.039719 0.694957 0.165182
H19   H     H_    0.462530 0.162763 0.428717 0.180361
H20   H     H_    0.278288 0.766831 0.349709 0.173145
H21   H     H_    0.287934 0.919955 0.266536 0.177692
H22   H     H_    0.269762 0.313060 0.377220 0.152031
H23   H     H_    0.883643 0.304156 0.354885 0.187787
H24   H     H_    0.323987 0.539938 0.195344 0.161676
I1    I     I_    0.451596 0.062782 0.266916 -0.397277
I2    I     I_    0.448855 0.786391 0.699192 -0.277296
I3    I     I_    0.743712 0.661667 0.726221 -0.292319
I4    I     I_    0.034741 0.757560 0.469232 -0.304087
I5    I     I_    0.921914 0.824950 0.668112 -0.276519
I6    I     I_    0.244747 0.602012 0.710220 -0.312905
N1    N     N_R   0.222190 0.444670 0.452360 -0.120055
N2    N     N_R   0.776970 0.554790 0.547140 -0.156131
N3    N     N_2   0.078050 0.242669 0.327813 -0.322995
N4    N     N_2   0.759832 0.229460 0.644731 -0.297541
O1    O     O_R   0.366740 0.627160 0.477250 -0.600267
O2    O     O_R   0.544830 0.662520 0.507680 -0.586909
O3    O     O_R   0.410940 0.482340 0.616930 -0.592251
O4    O     O_R   0.589030 0.517700 0.647360 -0.584010
O5    O     O_R   0.455170 0.337480 0.492320 -0.621295
O6    O     O_R   0.633260 0.372840 0.522750 -0.614889
O7    O     O_R   0.410970 0.482300 0.352640 -0.623429
O8    O     O_R   0.589060 0.517660 0.383070 -0.635966
Zn1   Zn    Zn3+2 0.381090 0.476390 0.479680 0.975195
Zn2   Zn    Zn3+2 0.618910 0.523610 0.520320 0.983084

loop_
_geom_bond_atom_site_label_1
_geom_bond_atom_site_label_2
_ccdc_geom_bond_type
C1    C21   S    
C20   N4    S    
C27   C29   A    
C12   C48   A    
C42   H10   S    
O3    Zn1   S    
C43   H15   S    
C45   C46   A    
C1    O2    A    
C26   C27   A    
C37   C38   A    
C13   C18   A    
C25   I5    S    
C9    H21   S    
O5    Zn1   S    
C30   C31   A    
C10   I1    S    
C4    O4    A    
C23   C40   A    
C29   C33   A    
C15   C17   A    
C12   C37   A    
C6    C15   A    
C24   N2    A    
C31   C32   A    
C2    C44   A    
C8    C9    A    
C16   O5    A    
C26   I4    S    
C39   H24   S    
C19   H19   S    
C28   O7    A    
O7    Zn1   S    
C9    C10   A    
N1    Zn1   S    
H14   N4    S    
C18   I2    S    
C27   C30   A    
C42   N3    S    
C36   H22   S    
C43   H16   S    
C8    C21   A    
C32   H23   S    
C22   C31   A    
C22   N3    S    
O6    Zn2   S    
C5    H6    S    
C34   C44   A    
C24   C25   A    
C39   C40   A    
C4    O3    A    
C25   C26   A    
N2    Zn2   S    
C12   C41   A    
C2    I6    S    
C37   H1    S    
O8    Zn2   S    
C47   C48   A    
C28   C38   S    
C43   H17   S    
C23   C34   A    
C35   H2    S    
C17   C18   A    
C13   C21   A    
C42   H13   S    
C30   C35   A    
C7    C16   S    
C8    H20   S    
C7    C19   A    
H9    N3    S    
C33   H3    S    
C3    C4    S    
C6    C20   A    
C44   C45   A    
C47   H7    S    
C48   H8    S    
C46   C47   A    
C40   C41   A    
C14   C19   A    
C22   C36   A    
C3    C5    A    
C36   N1    A    
C42   H11   S    
C24   I3    S    
C1    O1    A    
O1    Zn1   S    
C5    C46   A    
C32   C33   A    
C2    C3    A    
O4    Zn2   S    
C11   C13   A    
C23   H4    S    
C38   C39   A    
C29   N2    A    
C35   N1    A    
C11   C14   A    
C10   C11   A    
C17   H12   S    
C6    H18   S    
C34   H5    S    
C7    C20   A    
C16   O6    A    
C43   N4    S    
C41   C45   A    
C14   C15   A    
C28   O8    A    
O2    Zn2   S    
