data_mof_unit_61857.cif
_audit_creation_date              2012-12-10T17:54:42-0500
_audit_creation_method            fapswitch 2.2
_symmetry_space_group_name_H-M    P1
_symmetry_Int_Tables_number       1
_space_group_crystal_system       triclinic
_cell_length_a                    18.802347
_cell_length_b                    18.857937
_cell_length_c                    18.77976
_cell_angle_alpha                 109.542902
_cell_angle_beta                  109.414877
_cell_angle_gamma                 109.448458
_cell_volume                      5126.41479082

loop_
_atom_site_label
_atom_site_type_symbol
_atom_type_description
_atom_site_fract_x
_atom_site_fract_y
_atom_site_fract_z
_atom_type_partial_charge
C1    C     C_R   0.118563 0.000133 0.618793 0.798136
C2    C     C_R   0.260421 0.262398 0.586499 0.096469
C3    C     C_R   0.192447 0.185975 0.506900 -0.143615
C4    C     C_R   0.188801 0.174667 0.428137 -0.207746
C5    C     C_R   0.249853 0.238639 0.425930 0.142446
C6    C     C_R   0.314930 0.317149 0.503486 -0.145236
C7    C     C_R   0.272018 0.055131 0.717691 0.074747
C8    C     C_R   0.184401 0.001187 0.686492 -0.053103
C9    C     C_R   0.161365 0.957573 0.729685 -0.209025
C10   C     C_R   0.225812 0.958445 0.795054 -0.195052
C11   C     C_R   0.313794 0.004244 0.818397 -0.079542
C12   C     C_R   0.121825 0.118762 0.503045 0.798167
C13   C     C_R   0.335747 0.056457 0.782419 0.136261
C14   C     C_3   0.391120 0.063035 0.740747 -0.420682
C15   C     C_3   0.320774 0.061461 0.669509 -0.486543
C16   C     C_R   0.809881 0.737289 0.484894 0.079671
C17   C     C_R   0.813721 0.815906 0.499846 -0.100103
C18   C     C_R   0.749871 0.829667 0.515980 -0.192341
C19   C     C_R   0.684664 0.764305 0.515158 -0.199822
C20   C     C_R   0.684453 0.685883 0.500878 -0.054826
C21   C     C_R   0.749136 0.675804 0.486732 0.031678
C22   C     C_3   0.782612 0.614662 0.466380 -0.153483
C23   C     C_R   0.880656 0.999593 0.381149 0.813623
C24   C     C_3   0.852626 0.685634 0.465001 0.244600
C25   C     C_R   0.814795 0.991220 0.238379 0.120129
C26   C     C_R   0.814997 0.001979 0.315617 -0.130101
C27   C     C_R   0.755647 0.023775 0.333029 -0.217112
C28   C     C_R   0.690469 0.023784 0.269281 0.126290
C29   C     C_R   0.686093 0.003864 0.188046 -0.123402
C30   C     C_R   0.752030 0.993319 0.176135 0.101577
C31   C     C_3   0.744841 0.922335 0.102790 -0.493162
C32   C     C_3   0.813648 0.919777 0.171338 -0.425741
C33   C     C_R   0.499761 0.618479 0.619034 0.773318
C34   C     C_R   0.880928 0.881465 0.499822 0.820097
C35   C     C_R   0.381195 0.381856 0.500639 0.821083
C36   C     C_R   0.500060 0.381072 0.381070 0.842587
C37   C     C_R   0.618565 0.618430 0.499837 0.823708
C38   C     C_R   0.499288 0.118546 0.118092 0.805636
C39   C     C_R   0.380942 0.000494 0.881512 0.811635
C40   C     C_R   0.500020 0.881426 0.881236 0.812862
C41   C     C_R   0.618734 0.000568 0.119179 0.821055
C42   C     C_R   0.504597 0.759068 0.681842 0.047672
C43   C     C_R   0.502414 0.686412 0.687122 -0.046359
C44   C     C_R   0.511125 0.684097 0.763582 -0.193621
C45   C     C_R   0.272148 0.272261 0.668386 -0.163508
C46   C     C_R   0.510093 0.748055 0.827625 -0.203802
C47   C     C_R   0.502812 0.815846 0.816549 -0.041756
C48   C     C_R   0.505018 0.822785 0.745520 0.076711
C49   C     C_3   0.448170 0.836827 0.680388 -0.045619
C50   C     C_3   0.448249 0.766547 0.610374 -0.444477
C51   C     C_R   0.423938 0.252710 0.233474 0.156417
C52   C     C_R   0.498712 0.311747 0.315194 -0.090636
C53   C     C_R   0.571341 0.299529 0.334778 -0.153174
C54   C     C_R   0.572159 0.236654 0.269683 -0.155210
C55   C     C_R   0.499267 0.183635 0.185645 -0.065412
C56   C     C_R   0.336024 0.350283 0.745329 -0.133620
C57   C     C_R   0.423700 0.188513 0.170122 0.122297
C58   C     C_3   0.368913 0.197446 0.098900 -0.516916
C59   C     C_3   0.369548 0.268309 0.168581 -0.408742
C60   C     C_R   0.389513 0.419622 0.742458 -0.131889
C61   C     C_R   0.381813 0.410132 0.662975 -0.149463
C62   C     C_R   0.319644 0.330456 0.584256 0.067429
Cu1   Cu    Cu3+1 0.000020 0.938200 0.438210 0.965590
Cu2   Cu    Cu3+1 0.999980 0.061800 0.561790 0.964016
Cu3   Cu    Cu3+1 0.438170 0.500030 0.438220 0.991593
Cu4   Cu    Cu3+1 0.561770 0.500000 0.561810 0.969247
Cu5   Cu    Cu3+1 0.561810 0.061820 0.000030 0.969612
Cu6   Cu    Cu3+1 0.438190 0.938280 0.000080 1.002813
H1    H     H_    0.137504 0.115602 0.367430 0.180045
H2    H     H_    0.398438 0.004805 0.717368 0.216727
H3    H     H_    0.342124 0.123738 0.669023 0.199045
H4    H     H_    0.286957 0.002138 0.604744 0.222699
H5    H     H_    0.749518 0.889801 0.527763 0.161292
H6    H     H_    0.635499 0.775317 0.526594 0.144789
H7    H     H_    0.808399 0.602432 0.520817 0.179605
H8    H     H_    0.848267 0.670035 0.400418 0.114251
H9    H     H_    0.757447 0.037081 0.394553 0.181378
H10   H     H_    0.233669 0.219746 0.674334 0.148823
H11   H     H_    0.680023 0.862328 0.064502 0.192423
H12   H     H_    0.767868 0.945639 0.063295 0.209709
H13   H     H_    0.788709 0.858338 0.173071 0.207103
H14   H     H_    0.876250 0.941376 0.171165 0.202788
H15   H     H_    0.514631 0.630999 0.771900 0.142111
H16   H     H_    0.513418 0.743824 0.884666 0.144023
H17   H     H_    0.483056 0.902316 0.689130 0.145371
H18   H     H_    0.383764 0.706448 0.563966 0.235353
H19   H     H_    0.343708 0.357090 0.807403 0.139649
H20   H     H_    0.483412 0.791962 0.579422 0.174865
H21   H     H_    0.629122 0.341514 0.398726 0.178292
H22   H     H_    0.629927 0.230600 0.284323 0.165960
H23   H     H_    0.403880 0.221661 0.067200 0.205495
H24   H     H_    0.303545 0.138357 0.053213 0.211060
H25   H     H_    0.405250 0.333819 0.177635 0.213411
H26   H     H_    0.304440 0.250177 0.162776 0.222078
H27   H     H_    0.437955 0.480705 0.802168 0.132747
H28   H     H_    0.424639 0.465981 0.664085 0.133519
H29   H     H_    0.093654 0.920041 0.710342 0.171068
H30   H     H_    0.206397 0.920980 0.824802 0.173040
H31   H     H_    0.453039 0.126247 0.781254 0.198639
O1    O     O_R   0.090180 0.947810 0.537990 -0.575472
O2    O     O_R   0.552150 0.590170 0.642370 -0.596436
O3    O     O_R   0.357600 0.409850 0.447820 -0.555757
O4    O     O_R   0.461980 0.409830 0.552180 -0.590416
O5    O     O_R   0.447790 0.409860 0.357660 -0.572617
O6    O     O_R   0.552170 0.409840 0.462020 -0.585705
O7    O     O_R   0.537960 0.590200 0.447840 -0.581519
O8    O     O_R   0.642340 0.590180 0.552210 -0.583402
O9    O     O_R   0.552220 0.142430 0.090190 -0.582130
O10   O     O_R   0.447830 0.038100 0.090230 -0.565652
O11   O     O_R   0.462030 0.052220 0.909860 -0.589637
O12   O     O_R   0.090150 0.052180 0.642350 -0.593104
O13   O     O_R   0.357640 0.947890 0.909900 -0.581788
O14   O     O_R   0.552170 0.962000 0.909870 -0.593017
O15   O     O_R   0.447780 0.857670 0.909910 -0.570507
O16   O     O_R   0.642360 0.052210 0.090200 -0.583318
O17   O     O_R   0.537970 0.947880 0.090240 -0.564284
O18   O     O_R   0.090190 0.037990 0.447830 -0.584052
O19   O     O_R   0.090170 0.142360 0.552190 -0.585664
O20   O     O_R   0.909850 0.947820 0.357650 -0.588349
O21   O     O_R   0.909820 0.052190 0.462010 -0.583803
O22   O     O_R   0.909830 0.857640 0.447810 -0.584448
O23   O     O_R   0.909810 0.962010 0.552170 -0.589394
O24   O     O_R   0.447770 0.590190 0.538000 -0.585781
I1    I     I_    0.692021 0.501687 0.340218 -0.449558
O25   O     O_3   0.937100 0.725312 0.535968 -0.574718
C63   C     C_3   0.977568 0.677412 0.513413 0.058922
H32   H     H_    0.982361 0.675025 0.455177 0.151884
H33   H     H_    0.940902 0.610030 0.500008 0.159970
C64   C     C_3   0.069357 0.721194 0.588936 -0.714051
H34   H     H_    0.067551 0.727757 0.649240 0.246957
H35   H     H_    0.100197 0.681623 0.573450 0.224689
H36   H     H_    0.109081 0.786590 0.600086 0.263622
I2    I     I_    0.600696 0.052438 0.299519 -0.377185
I3    I     I_    0.321157 0.800313 0.666701 -0.436348
I4    I     I_    0.241319 0.208952 0.302613 -0.389624

loop_
_geom_bond_atom_site_label_1
_geom_bond_atom_site_label_2
_ccdc_geom_bond_type
C40   C47   S    
C49   I3    S    
C16   C21   A    
C51   C52   A    
C1    C8    S    
C19   C20   A    
Cu4   O8    S    
C35   O3    A    
C61   H28   S    
C31   H12   S    
C53   C54   A    
C15   H4    S    
C26   C27   A    
C63   H32   S    
C33   O2    A    
Cu3   O3    S    
C28   C29   A    
C37   O8    A    
C35   O4    A    
C23   O20   A    
C5    C6    A    
Cu1   O18   S    
Cu5   O9    S    
C31   H11   S    
Cu2   O19   S    
C6    C35   S    
C18   C19   A    
Cu6   O13   S    
C23   C26   S    
C10   H30   S    
Cu5   O16   S    
C3    C12   S    
C54   C55   A    
C39   O11   A    
C40   O15   A    
C38   C55   S    
C40   O14   A    
C45   C56   A    
C8    C9    A    
C9    H29   S    
C45   H10   S    
C51   C57   A    
C59   H26   S    
C58   H23   S    
C36   C52   S    
C50   H20   S    
C64   H36   S    
C44   H15   S    
C25   C32   S    
C7    C15   S    
C16   C24   S    
C21   C22   S    
C38   O9    A    
C14   H2    S    
Cu4   O2    S    
C22   H7    S    
C41   O16   A    
C1    O1    A    
C4    H1    S    
Cu1   O22   S    
C44   C46   A    
C2    C45   A    
Cu5   Cu6   S    
C33   C43   S    
C47   C48   A    
C49   H17   S    
C14   H31   S    
C23   O21   A    
C16   C17   A    
Cu2   O12   S    
Cu1   O1    S    
C27   H9    S    
C25   C26   A    
C28   I2    S    
C60   C61   A    
C43   C44   A    
C29   C30   A    
C32   H13   S    
Cu1   O20   S    
Cu5   O11   S    
C31   C32   S    
C30   C31   S    
C17   C18   A    
C42   C48   A    
C38   O10   A    
C11   C39   S    
Cu6   O17   S    
C46   H16   S    
C48   C49   S    
C42   C50   S    
C49   C50   S    
C18   H5    S    
C55   C57   A    
C53   H21   S    
O25   C63   S    
C22   C24   S    
C51   C59   S    
C42   C43   A    
C41   O17   A    
C3    C4    A    
Cu3   O7    S    
C32   H14   S    
C52   C53   A    
C64   H34   S    
C12   O19   A    
C25   C30   A    
C5    I4    S    
C46   C47   A    
C39   O13   A    
C63   H33   S    
C29   C41   S    
C36   O6    A    
Cu4   O4    S    
C19   H6    S    
C24   H8    S    
C4    C5    A    
C56   H19   S    
Cu2   O21   S    
C54   H22   S    
C34   O22   A    
C15   H3    S    
C63   C64   S    
C36   O5    A    
C22   I1    S    
C6    C62   A    
C2    C3    A    
C58   C59   S    
C37   O7    A    
C1    O12   A    
C20   C37   S    
C11   C13   A    
C57   C58   S    
C24   O25   S    
Cu2   O23   S    
C9    C10   A    
Cu6   O10   S    
Cu3   O24   S    
Cu5   O14   S    
C61   C62   A    
C7    C8    A    
C10   C11   A    
C50   H18   S    
Cu4   O6    S    
Cu1   Cu2   S    
C60   H27   S    
C56   C60   A    
C7    C13   A    
C20   C21   A    
C34   O23   A    
Cu3   Cu4   S    
C17   C34   S    
C27   C28   A    
C33   O24   A    
C14   C15   S    
C12   O18   A    
C59   H25   S    
Cu3   O5    S    
C13   C14   S    
C58   H24   S    
C2    C62   A    
Cu6   O15   S    
C64   H35   S    
