data_mof_unit_41971.cif
_audit_creation_date              2012-12-11T18:37:48-0500
_audit_creation_method            fapswitch 2.2
_symmetry_space_group_name_H-M    P1
_symmetry_Int_Tables_number       1
_space_group_crystal_system       triclinic
_cell_length_a                    8.219005
_cell_length_b                    14.283962
_cell_length_c                    27.020797
_cell_angle_alpha                 92.963121
_cell_angle_beta                  92.981687
_cell_angle_gamma                 88.376696
_cell_volume                      3162.66465655

loop_
_atom_site_label
_atom_site_type_symbol
_atom_type_description
_atom_site_fract_x
_atom_site_fract_y
_atom_site_fract_z
_atom_type_partial_charge
Ba1   Ba    Ba6+2 0.849670 0.455410 0.524690 1.639016
Ba2   Ba    Ba6+2 0.340150 0.544510 0.475310 1.637881
C1    C     C_3   0.669798 0.106539 0.664200 -0.364145
C2    C     C_R   0.916357 0.592463 0.174551 0.573790
C3    C     C_2   0.764344 0.561633 0.270487 -0.086909
C4    C     C_3   0.101903 0.252322 0.665921 0.335637
C5    C     C_3   0.750241 0.593110 0.324234 -0.046828
C6    C     C_1   0.979979 0.486058 0.343627 0.033864
C7    C     C_2   0.021301 0.482877 0.296287 -0.104003
C8    C     C_2   0.905262 0.519586 0.255943 0.189475
C9    C     C_R   0.032703 0.509337 0.102855 -0.082959
C10   C     C_R   0.065814 0.431904 0.132240 -0.053501
C11   C     C_R   0.152941 0.354676 0.112010 -0.057761
C12   C     C_3   0.637231 0.202959 0.643848 0.353587
C13   C     C_R   0.957191 0.589995 0.124297 -0.019461
C14   C     C_2   0.850727 0.533903 0.359326 -0.290619
C15   C     C_2   0.346947 0.473880 0.641585 -0.278823
C16   C     C_3   0.080265 0.224944 0.718783 -0.303493
C17   C     C_R   0.166494 0.417420 0.977960 0.020170
C18   C     C_R   0.092569 0.584799 0.973156 0.020060
C19   C     C_R   0.146898 0.499049 0.950082 0.049855
C20   C     C_R   0.191462 0.330957 0.951433 -0.113597
C21   C     C_R   0.222653 0.326548 0.901168 -0.062706
C22   C     C_R   0.221735 0.408145 0.874395 -0.022092
C23   C     C_3   0.534558 0.676194 0.622545 0.292644
C24   C     C_R   0.179280 0.494329 0.898410 -0.080313
C25   C     C_R   0.168191 0.575499 0.870768 -0.035921
C26   C     C_R   0.203582 0.569758 0.819789 0.596774
C27   C     C_R   0.257914 0.404454 0.823759 0.574404
C28   C     C_3   0.163096 0.257839 0.424225 0.309636
C29   C     C_2   0.422554 0.432866 0.728990 -0.086461
C30   C     C_3   0.438319 0.406910 0.674657 -0.046477
C31   C     C_1   0.213558 0.517813 0.656908 0.028635
C32   C     C_2   0.172898 0.520702 0.704325 -0.101112
C33   C     C_2   0.285997 0.479120 0.743931 0.198340
C34   C     C_3   0.535486 0.698240 0.678213 -0.356335
C35   C     C_R   0.149423 0.423836 0.030579 0.020465
C36   C     C_R   0.075434 0.506388 0.052073 0.033231
C37   C     C_R   0.045478 0.586630 0.023396 0.023855
C38   C     C_R   0.204328 0.352291 0.063199 0.047336
C39   C     C_R   0.924807 0.667539 0.095224 -0.060124
C40   C     C_3   0.167838 0.152108 0.413861 -0.381649
C41   C     C_R   0.085153 0.665498 0.944693 -0.100902
C42   C     C_R   0.122806 0.660867 0.894810 -0.060264
C43   C     C_R   0.967553 0.665994 0.046017 -0.101843
C44   C     C_R   0.689165 0.064970 0.473221 -0.034819
C45   C     C_3   0.079913 0.748152 0.333830 0.338505
C46   C     C_R   0.511819 0.198652 0.502289 0.047025
C47   C     C_R   0.377045 0.230287 0.528418 -0.298884
C48   C     C_R   0.277992 0.167204 0.549328 0.014507
C49   C     C_R   0.322753 0.072437 0.549177 -0.143591
C50   C     C_R   0.462914 0.039570 0.525410 -0.007162
C51   C     C_R   0.556077 0.101799 0.499958 -0.027093
C52   C     C_3   0.032417 0.742296 0.574993 0.308855
C53   C     C_R   0.641085 0.908262 0.499777 -0.021324
C54   C     C_R   0.734152 0.969471 0.473748 -0.000489
C55   C     C_R   0.685003 0.812139 0.499002 0.024533
C56   C     C_3   0.093377 0.776073 0.280715 -0.326017
C57   C     C_R   0.817081 0.778005 0.472551 -0.288554
C58   C     C_R   0.916919 0.838817 0.450469 0.014226
C59   C     C_R   0.874044 0.934492 0.449911 -0.139883
C60   C     C_R   0.507000 0.944531 0.525628 -0.040276
C61   C     C_3   0.031972 0.848154 0.585037 -0.379722
C62   C     C_3   0.658099 0.339985 0.379858 0.302006
C63   C     C_3   0.657072 0.316861 0.324272 -0.364360
C64   C     C_3   0.338453 0.281208 0.051517 -0.417932
C65   C     C_3   0.546877 0.796100 0.354816 0.361009
C66   C     C_3   0.514867 0.891267 0.332943 -0.363159
C67   C     C_R   0.018694 0.434887 0.182173 0.599330
H1    H     H_    0.679871 0.201395 0.605433 0.074907
H2    H     H_    0.782871 0.357985 0.393428 0.011047
H3    H     H_    0.573995 0.400915 0.386586 0.080757
H4    H     H_    0.800908 0.086600 0.662719 0.149186
H5    H     H_    0.746077 0.258810 0.316220 0.132290
H6    H     H_    0.690421 0.379123 0.304578 0.069583
H7    H     H_    0.533429 0.295487 0.310320 0.134585
H8    H     H_    0.503189 0.216479 0.642956 -0.060902
H9    H     H_    0.598179 0.053616 0.641494 0.073641
H10   H     H_    0.408485 0.659895 0.608999 0.017082
H11   H     H_    0.616281 0.614109 0.615713 0.071338
H12   H     H_    0.256815 0.132784 0.385257 0.128869
H13   H     H_    0.450583 0.758252 0.686428 0.134839
H14   H     H_    0.496325 0.636353 0.697289 0.075545
H15   H     H_    0.660364 0.716240 0.692599 0.132227
H16   H     H_    0.633217 0.106613 0.703191 0.122885
H17   H     H_    0.073463 0.289136 0.743458 0.123728
H18   H     H_    0.151629 0.681814 0.338735 0.089359
H19   H     H_    0.949762 0.736923 0.339952 -0.053527
H20   H     H_    0.216398 0.802423 0.275147 0.147478
H21   H     H_    0.073684 0.713939 0.255164 0.122833
H22   H     H_    0.000876 0.831690 0.271811 0.118551
H23   H     H_    0.204263 0.115824 0.448109 0.066137
H24   H     H_    0.680988 0.782978 0.356516 -0.066939
H25   H     H_    0.502695 0.799345 0.393067 0.080220
H26   H     H_    0.582787 0.945647 0.355756 0.069791
H27   H     H_    0.383076 0.910277 0.332603 0.151368
H28   H     H_    0.027028 0.316983 0.659471 0.093586
H29   H     H_    0.556285 0.889680 0.294430 0.122521
H30   H     H_    0.140994 0.455915 0.286810 0.137038
H31   H     H_    0.190756 0.297691 0.135383 0.124176
H32   H     H_    0.510053 0.403523 0.755811 0.114724
H33   H     H_    0.245565 0.258271 0.883139 0.120781
H34   H     H_    0.045221 0.128367 0.400303 0.118192
H35   H     H_    0.182052 0.265074 0.968665 0.083898
H36   H     H_    0.671952 0.585481 0.243524 0.122787
H37   H     H_    0.865229 0.730438 0.110455 0.121991
H38   H     H_    0.053783 0.734210 0.960255 0.069034
H39   H     H_    0.232296 0.266535 0.661887 -0.052881
H40   H     H_    0.115089 0.724956 0.874953 0.121357
H41   H     H_    0.057874 0.553292 0.714669 0.124604
H42   H     H_    0.933988 0.727774 0.026220 0.068750
H43   H     H_    0.835436 0.547896 0.398687 0.083902
H44   H     H_    0.379729 0.474832 0.603227 0.078244
H45   H     H_    0.908200 0.720084 0.563772 -0.001647
H46   H     H_    0.341959 0.303924 0.529281 0.071792
H47   H     H_    0.246124 0.024330 0.566405 0.074954
H48   H     H_    0.951101 0.981325 0.432034 0.072511
H49   H     H_    0.849792 0.704056 0.472400 0.063350
H50   H     H_    0.760088 0.109383 0.451990 0.099075
H51   H     H_    0.965433 0.186994 0.721361 0.143621
H52   H     H_    0.434088 0.899560 0.545995 0.094079
H53   H     H_    0.183986 0.179123 0.731455 0.122506
H54   H     H_    0.287416 0.281455 0.434552 0.003293
H55   H     H_    0.082104 0.274687 0.455227 0.067641
H56   H     H_    0.115260 0.723775 0.544728 0.073681
H57   H     H_    0.286391 0.211072 0.042728 0.117347
H58   H     H_    0.412510 0.302575 0.021058 0.127963
H59   H     H_    0.425548 0.275444 0.084158 0.123350
H60   H     H_    0.941530 0.869243 0.612935 0.131272
H61   H     H_    0.000111 0.884550 0.550512 0.066043
H62   H     H_    0.154851 0.870257 0.599328 0.117822
N1    N     N_R   0.946051 0.515112 0.203410 -0.420477
N2    N     N_R   0.248141 0.484705 0.796538 -0.422296
O1    O     O_2   0.918080 0.549800 0.616640 -0.458020
O2    O     O_2   0.255094 0.834810 0.457685 -0.486450
O3    O     O_3   0.141418 0.819737 0.366399 -0.600641
O4    O     O_3   0.150070 0.549720 0.556460 -0.495295
O5    O     O_3   0.546340 0.387390 0.478340 -0.486048
O6    O     O_2   0.398940 0.728800 0.517420 -0.465333
O7    O     O_3   0.588579 0.754295 0.599277 -0.645813
O8    O     O_2   0.415608 0.544805 0.321640 -0.497802
O9    O     O_3   0.464448 0.726363 0.325278 -0.593927
O10   O     O_2   0.041072 0.365430 0.206444 -0.599184
O11   O     O_2   0.298164 0.329173 0.803940 -0.622517
O12   O     O_3   0.608404 0.261356 0.403347 -0.640168
O13   O     O_2   0.855935 0.664597 0.192664 -0.619753
O14   O     O_2   0.197101 0.640867 0.796422 -0.596811
O15   O     O_3   0.658250 0.379560 0.591530 -0.480564
O16   O     O_2   0.774951 0.452810 0.678619 -0.495995
O17   O     O_3   0.083852 0.699653 0.618622 -0.625608
O18   O     O_3   0.721159 0.271239 0.673982 -0.598469
O19   O     O_2   0.790750 0.271170 0.482550 -0.470102
O20   O     O_3   0.062300 0.331660 0.568480 -0.493482
O21   O     O_2   0.940943 0.164766 0.540846 -0.486672
O22   O     O_3   0.051086 0.178841 0.632795 -0.603038
O23   O     O_2   0.271610 0.450170 0.383330 -0.460273
O24   O     O_3   0.039630 0.450200 0.443530 -0.497750
O25   O     O_3   0.531440 0.620360 0.408460 -0.475641
O26   O     O_3   0.105118 0.300350 0.381125 -0.623331
O27   O     O_3   0.643350 0.612530 0.521650 -0.474869
O28   O     O_3   0.127390 0.668260 0.431510 -0.490355
P1    P     P_3+3 0.090020 0.577590 0.608380 0.991661
P2    P     P_3+3 0.614340 0.285150 0.467650 0.972381
P3    P     P_3+3 0.082645 0.210072 0.572405 0.941923
P4    P     P_3+3 0.099670 0.422330 0.391610 0.992479
P5    P     P_3+3 0.110086 0.790615 0.427138 0.943371
P6    P     P_3+3 0.650324 0.381468 0.655804 0.945864
P7    P     P_3+3 0.583094 0.728729 0.535177 0.936199
P8    P     P_3+3 0.538782 0.617224 0.344079 0.947485

loop_
_geom_bond_atom_site_label_1
_geom_bond_atom_site_label_2
_ccdc_geom_bond_type
O7    P7    S    
C27   N2    Am   
C53   C54   A    
C62   O12   S    
C1    H16   S    
C23   H11   S    
O16   P6    D    
C4    H39   S    
C19   C24   A    
C40   H34   S    
C33   N2    S    
C15   H44   S    
C52   O17   S    
C55   P7    S    
C3    H36   S    
O27   P7    S    
C24   C25   A    
C66   H27   S    
C63   H7    S    
Ba2   O6    S    
C29   H32   S    
O21   P3    D    
C17   C19   A    
C22   C24   A    
C32   C33   S    
C35   C38   A    
C67   N1    Am   
C36   C37   A    
C45   O3    S    
C62   H2    S    
C21   H33   S    
C52   C61   S    
C34   H14   S    
C53   C60   A    
C20   H35   S    
C64   H58   S    
Ba1   O19   S    
Ba1   Ba2   S    
C61   H61   S    
C26   N2    Am   
C22   C27   A    
C11   C38   A    
C17   C35   A    
C9    C13   A    
C25   C42   A    
C34   H13   S    
C6    C7    D    
C12   O18   S    
C65   H25   S    
C21   C22   A    
O5    P2    S    
C61   H62   S    
C7    C8    S    
C4    O22   S    
C37   C43   A    
C42   H40   S    
C61   H60   S    
C16   H17   S    
C57   C58   A    
C6    C14   D    
C38   C64   S    
C12   H1    S    
C46   C51   A    
C40   H12   S    
C15   C31   D    
O17   P1    S    
Ba2   O28   S    
C31   C32   D    
C8    N1    S    
C28   O26   S    
C4    C16   S    
C52   H56   S    
C66   H26   S    
C39   H37   S    
O20   P3    S    
C59   H48   S    
C65   C66   S    
Ba2   O5    S    
C4    H28   S    
C17   C20   A    
C13   C39   A    
C2    N1    Am   
O24   P4    S    
C46   P2    S    
C18   C37   A    
O12   P2    S    
C65   H24   S    
C27   O11   D    
C48   P3    S    
C58   P5    S    
C63   H5    S    
C49   C50   A    
C58   C59   A    
C45   H18   S    
C9    C36   A    
C41   C42   A    
C35   C36   A    
C29   C30   S    
Ba2   O25   S    
C2    O13   D    
C23   O7    S    
O8    P8    D    
C48   C49   A    
C54   C59   A    
C41   H38   S    
C18   C19   A    
Ba1   O20   S    
C28   H54   S    
C56   H21   S    
Ba2   P4    S    
C1    C12   S    
C16   H53   S    
O9    P8    S    
C46   C47   A    
C47   H46   S    
C10   C67   A    
C28   H55   S    
Ba1   P1    S    
C57   H49   S    
C5    P8    S    
C2    C13   A    
C32   H41   S    
C29   C33   D    
O26   P4    S    
Ba1   O1    S    
C16   H51   S    
C18   C41   A    
Ba1   O4    S    
C50   C51   A    
C14   H43   S    
C3    C5    S    
C56   H22   S    
C15   C30   S    
C5    C14   S    
C26   O14   D    
Ba2   O23   S    
C23   H10   S    
Ba2   O4    S    
Ba1   O27   S    
O28   P5    S    
C9    C10   A    
C43   H42   S    
O25   P8    S    
O22   P3    S    
C67   O10   D    
C7    H30   S    
C49   H47   S    
C63   H6    S    
C62   C63   S    
C11   H31   S    
C53   C55   A    
C31   P1    S    
C64   H57   S    
C3    C8    D    
C50   C60   A    
C45   H19   S    
C45   C56   S    
C1    H9    S    
O4    P1    S    
O3    P5    S    
O23   P4    D    
C34   H15   S    
Ba2   O24   S    
O18   P6    S    
C52   H45   S    
C44   C51   A    
Ba1   O24   S    
O2    P5    D    
C64   H59   S    
C44   H50   S    
C40   H23   S    
C62   H3    S    
O6    P7    D    
C1    H4    S    
C56   H20   S    
C66   H29   S    
O19   P2    D    
C55   C57   A    
C6    P4    S    
C23   C34   S    
O1    P1    D    
C10   C11   A    
Ba1   P2    S    
Ba2   O27   S    
C47   C48   A    
C30   P6    S    
C44   C54   A    
C25   C26   A    
C12   H8    S    
O15   P6    S    
C39   C43   A    
C20   C21   A    
C28   C40   S    
Ba1   O15   S    
C65   O9    S    
C60   H52   S    
Ba1   O5    S    
