data_mof_unit_43183.cif
_audit_creation_date              2012-12-10T17:37:20-0500
_audit_creation_method            fapswitch 2.2
_symmetry_space_group_name_H-M    P1
_symmetry_Int_Tables_number       1
_space_group_crystal_system       triclinic
_cell_length_a                    12.506111
_cell_length_b                    13.566765
_cell_length_c                    15.865953
_cell_angle_alpha                 72.32869
_cell_angle_beta                  101.371075
_cell_angle_gamma                 117.561076
_cell_volume                      2268.71194641

loop_
_atom_site_label
_atom_site_type_symbol
_atom_type_description
_atom_site_fract_x
_atom_site_fract_y
_atom_site_fract_z
_atom_type_partial_charge
C1    C     C_R   0.855095 0.286824 0.508428 0.899599
C2    C     C_R   0.228764 0.835057 0.488904 -0.247578
C3    C     C_R   0.800464 0.082727 0.588284 0.043416
C4    C     C_R   0.000574 0.499333 0.660101 0.834222
C5    C     C_R   0.712382 0.998479 0.646160 0.366539
C6    C     C_R   0.591655 0.981021 0.625475 0.394635
C7    C     C_R   0.557369 0.028571 0.537026 -0.154817
C8    C     C_R   0.648881 0.127505 0.486971 -0.117057
C9    C     C_R   0.437078 0.983661 0.497270 -0.036675
C10   C     C_R   0.404601 0.055106 0.421056 -0.076935
C11   C     C_R   0.495221 0.155076 0.375224 -0.252503
C12   C     C_3   0.008305 0.506282 0.917310 -0.121662
C13   C     C_R   0.616576 0.186350 0.403586 0.543795
C14   C     C_R   0.350353 0.866798 0.523553 0.458604
C15   C     C_R   0.194254 0.921042 0.437283 0.125427
C16   C     C_R   0.144860 0.712502 0.493691 0.858664
C17   C     C_R   0.771138 0.162780 0.520833 -0.224173
C18   C     C_R   0.355042 0.346819 0.658619 0.422984
C19   C     C_R   0.744567 0.622863 0.365032 0.279042
C20   C     C_R   0.630020 0.605472 0.322239 0.027716
C21   C     C_R   0.528472 0.538544 0.370892 0.479174
C22   C     C_R   0.542143 0.509597 0.464054 -0.179919
C23   C     C_3   0.117775 0.593108 0.020223 0.350662
C24   C     C_R   0.653188 0.502816 0.501175 0.044015
C25   C     C_R   0.444316 0.469134 0.519181 -0.141313
C26   C     C_R   0.455955 0.410518 0.608123 -0.172040
C27   C     C_R   0.566644 0.410564 0.643951 0.100450
C28   C     C_R   0.001232 0.503048 0.339908 0.839791
C29   C     C_R   0.651390 0.431867 0.588077 0.493424
C30   C     C_R   0.339982 0.492070 0.493759 0.327411
C31   C     C_R   0.251268 0.363053 0.629163 0.259115
C32   C     C_3   0.999169 0.406145 0.055950 -0.432126
C33   C     C_3   0.906026 0.426487 0.980989 0.408175
C34   C     C_3   0.014374 0.513202 0.083067 -0.116994
C35   C     C_1   0.003348 0.500383 0.750298 -0.090288
C36   C     C_1   0.005248 0.509564 0.249436 -0.105090
C37   C     C_3   0.101722 0.487512 0.992337 0.390110
C38   C     C_3   0.732281 0.266677 0.029556 -0.251795
C39   C     C_3   0.467866 0.765659 0.557212 -0.118946
C40   C     C_3   0.458725 0.964349 0.714987 -0.288651
C41   C     C_3   0.783278 0.977600 0.790144 -0.202792
C42   C     C_3   0.727571 0.228911 0.290021 -0.332135
C43   C     C_3   0.325593 0.161646 0.714801 -0.258734
C44   C     C_3   0.382893 0.383794 0.324448 -0.245466
C45   C     C_3   0.023471 0.611735 0.946538 0.252995
C46   C     C_3   0.648998 0.252880 0.640408 -0.315861
C47   C     C_3   0.745821 0.554917 0.954139 -0.187991
C48   C     C_3   0.043133 0.795173 0.925882 -0.218818
C49   C     C_3   0.307420 0.733778 0.981185 -0.223126
C50   C     C_3   0.251770 0.430419 0.058908 -0.207266
C51   C     C_3   0.920186 0.531478 0.008588 0.336042
C52   C     C_1   0.005456 0.502429 0.825826 0.167554
C53   C     C_1   0.010806 0.513215 0.174009 0.124946
C54   C     C_R   0.281661 0.023673 0.392010 0.136498
Cu1   Cu    Cu3+1 0.098270 0.475420 0.519690 1.035713
Cu2   Cu    Cu3+1 0.901730 0.524580 0.480310 1.061549
H1    H     H_    0.989839 0.323501 0.102901 0.184668
H2    H     H_    0.527879 0.025360 0.752997 0.130154
H3    H     H_    0.386393 0.900896 0.760003 0.197329
H4    H     H_    0.711487 0.990898 0.810167 0.157008
H5    H     H_    0.865058 0.060336 0.774599 0.174429
H6    H     H_    0.808837 0.919934 0.847688 0.188114
H7    H     H_    0.645207 0.186624 0.248464 0.169527
H8    H     H_    0.766857 0.167769 0.326708 0.182015
H9    H     H_    0.795028 0.299723 0.244414 0.186201
H10   H     H_    0.386507 0.172777 0.666776 0.123947
H11   H     H_    0.230157 0.124624 0.687768 0.195460
H12   H     H_    0.474235 0.206914 0.313889 0.179953
H13   H     H_    0.335355 0.099083 0.776158 0.188737
H14   H     H_    0.446728 0.379518 0.287260 0.171404
H15   H     H_    0.292305 0.352399 0.289109 0.214699
H16   H     H_    0.375876 0.326717 0.392506 0.166339
H17   H     H_    0.580253 0.223650 0.586172 0.147100
H18   H     H_    0.604425 0.226079 0.702390 0.182187
H19   H     H_    0.708503 0.208972 0.654895 0.159445
H20   H     H_    0.677851 0.465699 0.955461 0.209107
H21   H     H_    0.788364 0.597070 0.889479 0.197267
H22   H     H_    0.697125 0.602932 0.960020 0.189999
H23   H     H_    0.722594 0.313799 0.071889 0.166282
H24   H     H_    0.117376 0.810483 0.979021 0.192542
H25   H     H_    0.955990 0.768761 0.953025 0.198802
H26   H     H_    0.063153 0.878128 0.876057 0.187631
H27   H     H_    0.266660 0.768493 0.917320 0.170768
H28   H     H_    0.342286 0.676229 0.971829 0.206261
H29   H     H_    0.386120 0.807530 0.001374 0.189525
H30   H     H_    0.191503 0.342462 0.094253 0.179482
H31   H     H_    0.280443 0.491006 0.101851 0.199986
H32   H     H_    0.334289 0.427872 0.045885 0.198142
H33   H     H_    0.775918 0.210359 0.069035 0.164218
H34   H     H_    0.639983 0.210699 0.006819 0.201160
H35   H     H_    0.495464 0.814763 0.488639 0.127768
H36   H     H_    0.433885 0.673154 0.563007 0.172928
H37   H     H_    0.549058 0.785957 0.603845 0.195951
H38   H     H_    0.416443 0.008948 0.658181 0.143934
I1    I     I_    0.961201 0.067084 0.588265 -0.270353
I2    I     I_    0.113780 0.273557 0.722088 -0.256144
I3    I     I_    0.621119 0.395034 0.781644 -0.291857
I4    I     I_    0.344551 0.637199 0.385493 -0.258721
I5    I     I_    0.896793 0.738166 0.287427 -0.187011
I6    I     I_    0.601179 0.668927 0.182903 -0.272625
I7    I     I_    0.022878 0.912599 0.448302 -0.221763
I8    I     I_    0.221836 0.116330 0.273324 -0.403331
N1    N     N_R   0.246280 0.438200 0.549540 -0.266697
N2    N     N_R   0.754330 0.561180 0.450980 -0.219439
O1    O     O_R   0.972510 0.318130 0.524770 -0.556489
O2    O     O_3   0.378354 0.782782 0.585230 -0.523240
O3    O     O_3   0.508996 0.905558 0.688356 -0.497426
O4    O     O_3   0.741219 0.925237 0.718410 -0.530479
O5    O     O_3   0.703092 0.275044 0.348524 -0.574504
O6    O     O_3   0.355853 0.265531 0.736341 -0.527736
O7    O     O_3   0.416546 0.497451 0.325856 -0.539107
O8    O     O_3   0.721497 0.372429 0.616332 -0.528988
O9    O     O_3   0.830402 0.555856 0.027276 -0.582025
O10   O     O_3   0.035317 0.714605 0.883260 -0.577272
O11   O     O_3   0.226096 0.677609 0.048912 -0.561359
O12   O     O_R   0.806530 0.359650 0.491510 -0.511482
O13   O     O_3   0.195391 0.465811 0.977082 -0.559580
O14   O     O_R   0.082970 0.479240 0.637550 -0.559138
O15   O     O_R   0.916990 0.520750 0.604290 -0.517932
O16   O     O_R   0.193470 0.640350 0.508490 -0.542621
O17   O     O_R   0.027490 0.681870 0.475230 -0.552287
O18   O     O_R   0.083010 0.479250 0.395710 -0.557022
O19   O     O_R   0.917030 0.520760 0.362450 -0.544441
O20   O     O_3   0.796778 0.341296 0.954474 -0.540919

loop_
_geom_bond_atom_site_label_1
_geom_bond_atom_site_label_2
_ccdc_geom_bond_type
C39   O2    S    
Cu1   Cu2   S    
C8    C13   A    
C23   C45   S    
C41   O4    S    
C46   O8    S    
C27   C29   A    
C50   O13   S    
C29   O8    S    
C19   C20   A    
C18   C26   A    
C41   H5    S    
C16   O17   A    
C28   O19   A    
C7    C8    A    
C38   H33   S    
C34   C51   S    
C51   O9    S    
Cu1   O1    S    
C41   H6    S    
C49   H28   S    
C42   O5    S    
C47   H20   S    
C16   O16   A    
C5    C6    A    
C28   O18   A    
C38   H23   S    
C45   C51   S    
C31   I2    S    
Cu1   N1    S    
C48   H25   S    
C44   H15   S    
C7    C9    A    
C12   C37   S    
C24   C29   A    
C39   H37   S    
C13   O5    S    
C36   C53   T    
C21   O7    S    
C44   H16   S    
C45   O10   S    
C22   C25   A    
C30   N1    A    
C33   O20   S    
C6    O3    S    
C4    O15   A    
C44   H14   S    
C1    O12   A    
C2    C16   S    
C9    C10   A    
C50   H32   S    
Cu1   O18   S    
C43   H13   S    
C40   H3    S    
C21   C22   A    
C4    O14   A    
C32   H1    S    
C2    C14   A    
C39   H35   S    
C46   H19   S    
C12   C52   S    
Cu1   O16   S    
C40   H2    S    
C15   C54   A    
C49   H29   S    
Cu2   N2    S    
C19   I5    S    
C25   C26   A    
C23   C37   S    
C24   N2    A    
C32   C34   S    
C9    C14   A    
Cu2   O19   S    
C42   H9    S    
C19   N2    A    
C20   I6    S    
C23   C34   S    
Cu2   O12   S    
C32   C37   S    
C15   I7    S    
C2    C15   A    
C50   H31   S    
C40   O3    S    
C43   O6    S    
C26   C27   A    
Cu2   O15   S    
C22   C24   A    
C47   H21   S    
C42   H8    S    
C39   H36   S    
C46   H18   S    
C11   H12   S    
C48   O10   S    
C25   C30   A    
C47   O9    S    
C30   I4    S    
C27   I3    S    
C49   O11   S    
C54   I8    S    
C18   O6    S    
C41   H4    S    
C40   H38   S    
C12   C45   S    
C3    C5    A    
C6    C7    A    
C33   C51   S    
C38   H34   S    
C1    C17   S    
C8    C17   A    
C32   C33   S    
C49   H27   S    
Cu2   O17   S    
C11   C13   A    
C48   H24   S    
C43   H10   S    
C48   H26   S    
C3    C17   A    
C10   C54   A    
C4    C35   S    
C10   C11   A    
C50   H30   S    
C23   O11   S    
C44   O7    S    
C14   O2    S    
C37   O13   S    
C20   C21   A    
C28   C36   S    
C34   C53   S    
C43   H11   S    
C1    O1    A    
C35   C52   T    
C3    I1    S    
C18   C31   A    
C47   H22   S    
C12   C33   S    
C42   H7    S    
Cu1   O14   S    
C46   H17   S    
C38   O20   S    
C31   N1    A    
C5    O4    S    
