data_mof_unit_29280.cif
_audit_creation_date              2012-12-10T18:18:25-0500
_audit_creation_method            fapswitch 2.2
_symmetry_space_group_name_H-M    P1
_symmetry_Int_Tables_number       1
_space_group_crystal_system       triclinic
_cell_length_a                    14.024105
_cell_length_b                    14.991886
_cell_length_c                    15.386891
_cell_angle_alpha                 90.186696
_cell_angle_beta                  67.179698
_cell_angle_gamma                 89.848802
_cell_volume                      2981.79539979

loop_
_atom_site_label
_atom_site_type_symbol
_atom_type_description
_atom_site_fract_x
_atom_site_fract_y
_atom_site_fract_z
_atom_type_partial_charge
C1    C     C_R   0.499888 0.673471 0.500003 0.880648
C2    C     C_R   0.499519 0.769283 0.500838 -0.069138
C3    C     C_R   0.592773 0.184736 0.479800 -0.259200
C4    C     C_R   0.405755 0.815240 0.525551 -0.263753
C5    C     C_R   0.593364 0.092499 0.480199 0.115929
C6    C     C_R   0.404785 0.907542 0.527412 0.118794
C7    C     C_R   0.498972 0.046448 0.504519 0.060380
C8    C     C_R   0.499064 0.953643 0.503761 0.060803
C9    C     C_R   0.404601 0.093202 0.528947 0.121435
C10   C     C_R   0.593524 0.906942 0.478829 0.119568
C11   C     C_R   0.686718 0.045730 0.455927 -0.212249
C12   C     C_R   0.499810 0.326545 0.500783 0.896019
C13   C     C_R   0.311352 0.954346 0.552324 -0.210982
C14   C     C_R   0.686801 0.953064 0.455235 -0.213085
C15   C     C_R   0.311263 0.047048 0.553095 -0.217939
C16   C     C_R   0.434977 0.499667 0.677091 0.914799
C17   C     C_R   0.564975 0.498312 0.322973 0.921667
C18   C     C_R   0.183897 0.431814 0.542501 -0.033191
C19   C     C_R   0.815749 0.568655 0.458529 -0.039882
C20   C     C_R   0.219660 0.567984 0.457446 -0.046285
C21   C     C_R   0.780983 0.431061 0.540965 -0.058937
C22   C     C_R   0.119465 0.569626 0.456528 0.034296
C23   C     C_R   0.392505 0.405104 0.097662 -0.294727
C24   C     C_R   0.881471 0.428971 0.541296 -0.022477
C25   C     C_R   0.050897 0.499487 0.499314 0.090694
C26   C     C_R   0.949869 0.499337 0.498984 0.086435
C27   C     C_R   0.083181 0.429701 0.542730 0.026214
C28   C     C_R   0.916981 0.569959 0.457069 0.019884
C29   C     C_R   0.086211 0.639614 0.414383 -0.170449
C30   C     C_R   0.914415 0.359386 0.584257 -0.193548
C31   C     C_R   0.985698 0.640027 0.415164 -0.196779
C32   C     C_R   0.014264 0.359876 0.585190 -0.129308
C33   C     C_R   0.394095 0.484842 0.779356 -0.271070
C34   C     C_R   0.628212 0.457429 0.888267 -0.305957
C35   C     C_R   0.606932 0.485074 0.220291 -0.253515
C36   C     C_R   0.270435 0.414216 0.919241 0.451615
C37   C     C_R   0.747553 0.466400 0.067442 0.451958
C38   C     C_R   0.293183 0.454373 0.831069 0.362911
C39   C     C_R   0.713373 0.486053 0.163990 0.350632
C40   C     C_R   0.465240 0.486819 0.821441 -0.284623
C41   C     C_R   0.536881 0.464421 0.179319 -0.292174
C42   C     C_R   0.444098 0.449748 0.909908 0.008874
C43   C     C_R   0.568626 0.449460 0.082561 0.012220
C44   C     C_R   0.341780 0.420653 0.964358 -0.205222
C45   C     C_R   0.315644 0.401009 0.061089 0.485172
C46   C     C_R   0.674884 0.460890 0.024050 -0.183233
C47   C     C_R   0.522627 0.445849 0.946140 0.063492
C48   C     C_R   0.494533 0.432445 0.042869 0.036078
C49   C     C_3   0.810784 0.593441 0.194174 0.104338
C50   C     C_3   0.919284 0.605075 0.193246 -0.258496
C51   C     C_3   0.945592 0.703437 0.196180 -1.011974
C52   C     C_3   0.179940 0.544992 0.798517 0.121100
C53   C     C_3   0.099371 0.567184 0.897061 -0.302315
C54   C     C_3   0.061788 0.663411 0.902312 -0.866332
C55   C     C_3   0.203547 0.273658 0.931833 0.147283
C56   C     C_R   0.703348 0.468868 0.925562 0.446928
C57   C     C_3   0.194580 0.252126 0.837696 -0.378732
C58   C     C_3   0.201263 0.151923 0.818475 -0.971346
C59   C     C_3   0.871852 0.359072 0.003097 0.126126
C60   C     C_3   0.891648 0.316958 0.085240 -0.315782
C61   C     C_3   0.910005 0.216674 0.070589 -0.954876
C62   C     C_R   0.405463 0.185484 0.528048 -0.250689
C63   C     C_R   0.593016 0.814712 0.477654 -0.255812
C64   C     C_R   0.499307 0.230782 0.502899 -0.075025
H1    H     H_    0.209802 0.379075 0.576137 0.138022
H2    H     H_    0.537835 0.519725 0.783697 0.201203
H3    H     H_    0.371017 0.385251 0.170059 0.203613
H4    H     H_    0.654321 0.458135 0.812526 0.163404
H5    H     H_    0.333210 0.221934 0.547013 0.155527
H6    H     H_    0.665444 0.778393 0.457998 0.151012
H7    H     H_    0.665176 0.220567 0.460282 0.164020
H8    H     H_    0.333562 0.779276 0.544057 0.157916
H9    H     H_    0.759427 0.080778 0.437203 0.152509
H10   H     H_    0.238681 0.919303 0.570772 0.149768
H11   H     H_    0.759560 0.917512 0.436051 0.147164
H12   H     H_    0.789345 0.622209 0.426266 0.123228
H13   H     H_    0.238544 0.082599 0.572006 0.144811
H14   H     H_    0.105791 0.408993 0.295008 0.382764
H15   H     H_    0.819385 0.517320 0.709256 0.355902
H16   H     H_    0.753985 0.629981 0.255597 0.135832
H17   H     H_    0.810402 0.623682 0.127966 0.145619
H18   H     H_    0.924993 0.570538 0.254788 0.243141
H19   H     H_    0.976292 0.574292 0.127931 0.265784
H20   H     H_    0.942273 0.738933 0.134192 0.272102
H21   H     H_    0.024994 0.709526 0.194953 0.283399
H22   H     H_    0.890303 0.735357 0.261651 0.253154
H23   H     H_    0.273607 0.621062 0.424378 0.136036
H24   H     H_    0.142137 0.550103 0.747206 0.191717
H25   H     H_    0.242902 0.595661 0.776785 0.114692
H26   H     H_    0.032973 0.521070 0.913848 0.309059
H27   H     H_    0.133138 0.558331 0.950898 0.225298
H28   H     H_    0.125918 0.710164 0.894389 0.240484
H29   H     H_    0.997969 0.675591 0.971709 0.275635
H30   H     H_    0.032912 0.676659 0.845804 0.295393
H31   H     H_    0.145788 0.233107 0.987635 0.203086
H32   H     H_    0.280757 0.252288 0.929759 0.110698
H33   H     H_    0.119599 0.277726 0.838983 0.250275
H34   H     H_    0.727130 0.377845 0.573751 0.137152
H35   H     H_    0.258359 0.284721 0.779035 0.238522
H36   H     H_    0.276524 0.125195 0.815252 0.275423
H37   H     H_    0.195063 0.138858 0.749797 0.270016
H38   H     H_    0.137180 0.116867 0.874635 0.267041
H39   H     H_    0.943127 0.350450 0.938435 0.201712
H40   H     H_    0.809425 0.322584 0.989897 0.112774
H41   H     H_    0.960455 0.348597 0.091161 0.301993
H42   H     H_    0.824035 0.328000 0.152374 0.235453
H43   H     H_    0.838383 0.183203 0.073191 0.263341
H44   H     H_    0.931737 0.188996 0.127248 0.286386
H45   H     H_    0.137676 0.694338 0.381369 0.140126
H46   H     H_    0.973180 0.202404 0.001340 0.260954
H47   H     H_    0.862728 0.304929 0.617720 0.143570
H48   H     H_    0.961646 0.695335 0.383308 0.146326
H49   H     H_    0.037544 0.305675 0.619155 0.137716
H50   H     H_    0.455675 0.465928 0.223629 0.205615
N1    N     N_R   0.249980 0.499930 0.499960 -0.107005
N2    N     N_R   0.750020 0.500070 0.500040 -0.092642
O1    O     O_R   0.419720 0.632140 0.499980 -0.636027
O2    O     O_2   0.152781 0.293100 0.143538 -0.319381
O3    O     O_3   0.180295 0.412009 0.253900 -0.575135
O4    O     O_2   0.856757 0.585706 0.900232 -0.266439
O5    O     O_2   0.904211 0.444531 0.812724 -0.347919
O6    O     O_3   0.807946 0.565201 0.756573 -0.541720
O7    O     O_3   0.785771 0.501669 0.202691 -0.611790
O8    O     O_3   0.217590 0.456544 0.794037 -0.628764
O9    O     O_3   0.180656 0.364746 0.956933 -0.576038
O10   O     O_3   0.852304 0.451894 0.017785 -0.586237
O11   O     O_R   0.580280 0.367860 0.500020 -0.628684
O12   O     O_R   0.580270 0.632160 0.499970 -0.630273
O13   O     O_R   0.419730 0.367840 0.500030 -0.624052
O14   O     O_R   0.373870 0.499980 0.632250 -0.587119
O15   O     O_R   0.626130 0.500020 0.367750 -0.570684
O16   O     O_R   0.534420 0.500000 0.632240 -0.614558
O17   O     O_R   0.465580 0.500000 0.367760 -0.615952
O18   O     O_2   0.114819 0.449802 0.122588 -0.315265
S1    S     S_3+6 0.186628 0.387882 0.144847 0.012574
S2    S     S_3+6 0.822434 0.515727 0.848720 0.017525
Zn1   Zn    Zn3+2 0.392800 0.499980 0.500010 0.951685
Zn2   Zn    Zn3+2 0.607200 0.500020 0.499990 0.960318

loop_
_geom_bond_atom_site_label_1
_geom_bond_atom_site_label_2
_ccdc_geom_bond_type
C8    C10   A    
O17   Zn1   S    
C23   C45   A    
C22   C29   A    
C17   O15   A    
C3    H7    S    
C36   O9    S    
C1    O12   A    
C41   H50   S    
C51   H21   S    
C10   C63   A    
C7    C8    A    
C12   O11   A    
C53   C54   S    
C52   C53   S    
C18   H1    S    
C34   C56   A    
C59   H40   S    
C29   H45   S    
C19   H12   S    
C24   C26   A    
C5    C11   A    
C35   C39   A    
C12   C64   S    
C11   C14   A    
O16   Zn2   S    
C57   H35   S    
C20   H23   S    
C39   O7    S    
C1    C2    S    
C49   H17   S    
C61   H44   S    
O12   Zn2   S    
C54   H29   S    
C62   C64   A    
C55   O9    S    
C22   C25   A    
C53   H27   S    
C31   H48   S    
C58   H38   S    
O11   Zn2   S    
C32   H49   S    
C16   O14   A    
C43   C48   A    
C40   C42   A    
C59   C60   S    
C40   H2    S    
C41   C43   A    
C52   H25   S    
C42   C44   A    
C21   N2    A    
C61   H43   S    
C61   H46   S    
C51   H22   S    
C56   S2    S    
C50   H19   S    
N2    Zn2   S    
H15   O6    S    
C45   S1    S    
C33   C40   A    
C12   O13   A    
C9    C62   A    
N1    Zn1   S    
C52   H24   S    
C58   H36   S    
C4    C6    A    
C11   H9    S    
C34   H4    S    
C5    C7    A    
C6    C8    A    
C25   C26   A    
C3    C64   A    
O3    S1    S    
C62   H5    S    
C60   C61   S    
C59   O10   S    
C2    C4    A    
C54   H28   S    
C16   C33   S    
C47   C48   A    
C63   H6    S    
C57   H33   S    
C50   C51   S    
C58   H37   S    
C1    O1    A    
C19   C28   A    
O6    S2    S    
C35   C41   A    
C55   H31   S    
C20   C22   A    
C55   C57   S    
C17   O17   A    
C36   C44   A    
C4    H8    S    
C60   H42   S    
C44   C45   A    
C50   H18   S    
C37   O10   S    
C7    C9    A    
C2    C63   A    
C23   C48   A    
C27   C32   A    
C28   C31   A    
O1    Zn1   S    
C18   C27   A    
C55   H32   S    
C3    C5    A    
C18   N1    A    
C20   N1    A    
O18   S1    D    
C25   C27   A    
C26   C28   A    
C33   C38   A    
C49   H16   S    
C30   H47   S    
C59   H39   S    
C14   H11   S    
C13   C15   A    
H14   O3    S    
C9    C15   A    
C29   C31   A    
O15   Zn2   S    
C6    C13   A    
C30   C32   A    
C21   H34   S    
C52   O8    S    
C57   C58   S    
C15   H13   S    
C23   H3    S    
C19   N2    A    
C36   C38   A    
C42   C47   A    
O5    S2    D    
C16   O16   A    
C43   C46   A    
C24   C30   A    
C54   H30   S    
O2    S1    D    
O13   Zn1   S    
C13   H10   S    
C37   C39   A    
C49   C50   S    
C21   C24   A    
C46   C56   A    
C53   H26   S    
C34   C47   A    
C17   C35   S    
O4    S2    D    
C37   C46   A    
O14   Zn1   S    
C51   H20   S    
C38   O8    S    
C60   H41   S    
C10   C14   A    
C49   O7    S    
