data_mof_unit_41193.cif
_audit_creation_date              2012-12-10T17:06:38-0500
_audit_creation_method            fapswitch 2.2
_symmetry_space_group_name_H-M    P1
_symmetry_Int_Tables_number       1
_space_group_crystal_system       triclinic
_cell_length_a                    14.139297
_cell_length_b                    10.683523
_cell_length_c                    10.037934
_cell_angle_alpha                 87.742684
_cell_angle_beta                  90.754624
_cell_angle_gamma                 89.439928
_cell_volume                      1514.9168168

loop_
_atom_site_label
_atom_site_type_symbol
_atom_type_description
_atom_site_fract_x
_atom_site_fract_y
_atom_site_fract_z
_atom_type_partial_charge
C1    C     C_R   0.509156 0.263016 0.502755 0.960207
C2    C     C_R   0.495850 0.738693 0.496519 0.892972
C3    C     C_R   0.670766 0.501619 0.500738 0.883100
C4    C     C_1   0.227703 0.500366 0.497951 -0.213014
C5    C     C_1   0.142438 0.502855 0.498497 -0.016536
C6    C     C_1   0.042573 0.505862 0.500210 -0.000675
C7    C     C_1   0.957317 0.507519 0.501718 -0.009799
C8    C     C_1   0.857432 0.507357 0.502662 -0.013658
C9    C     C_3   0.573088 0.895404 0.174731 0.108351
C10   C     C_3   0.469254 0.863777 0.143349 -0.347298
C11   C     C_3   0.446126 0.889853 0.996142 -1.033002
C12   C     C_1   0.772192 0.505328 0.502354 -0.215541
C13   C     C_3   0.371784 0.898358 0.645763 0.052119
C14   C     C_3   0.285615 0.815188 0.626587 -0.297140
C15   C     C_3   0.253784 0.754242 0.758219 -0.943640
C16   C     C_3   0.708891 0.108559 0.312882 0.083608
C17   C     C_3   0.765481 0.219333 0.360860 -0.340359
C18   C     C_3   0.871457 0.190243 0.361058 -0.962361
C19   C     C_3   0.720782 0.454134 0.896110 0.116743
C20   C     C_3   0.787939 0.481876 0.012192 -0.385588
C21   C     C_3   0.864105 0.380312 0.031013 -0.951873
C22   C     C_3   0.373344 0.380053 0.129037 0.220874
C23   C     C_2   0.549463 0.934538 0.398539 0.307010
C24   C     C_3   0.327164 0.292714 0.030644 -0.424483
C25   C     C_3   0.223221 0.271300 0.062819 -0.952327
C26   C     C_2   0.489296 0.874637 0.483649 0.130089
C27   C     C_2   0.563049 0.071804 0.406175 0.422915
C28   C     C_2   0.529034 0.131452 0.510588 -0.430299
C29   C     C_2   0.572200 0.533729 0.926077 0.526992
C30   C     C_2   0.561906 0.557900 0.072677 -0.093963
C31   C     C_R   0.329222 0.498609 0.499292 0.864951
H1    H     H_    0.513262 0.082491 0.604245 0.143801
H2    H     H_    0.491050 0.829927 0.934203 0.265670
H3    H     H_    0.348105 0.983021 0.697396 0.164637
H4    H     H_    0.426189 0.853611 0.713087 0.161089
H5    H     H_    0.226457 0.872499 0.581745 0.216488
H6    H     H_    0.302894 0.741344 0.556431 0.212805
H7    H     H_    0.311771 0.695613 0.804176 0.268469
H8    H     H_    0.192110 0.693413 0.739887 0.268758
H9    H     H_    0.232497 0.827169 0.828060 0.254090
H10   H     H_    0.731540 0.088502 0.210247 0.151267
H11   H     H_    0.727592 0.024108 0.377386 0.152760
H12   H     H_    0.435259 0.505915 0.894492 0.145677
H13   H     H_    0.750510 0.302966 0.294318 0.248930
H14   H     H_    0.743729 0.240140 0.463677 0.202043
H15   H     H_    0.888343 0.110494 0.432007 0.265600
H16   H     H_    0.911507 0.273060 0.392050 0.276368
H17   H     H_    0.894554 0.166386 0.259750 0.265026
H18   H     H_    0.763878 0.440905 0.805904 0.173504
H19   H     H_    0.683901 0.363339 0.916212 0.127096
H20   H     H_    0.822374 0.573705 0.992460 0.236905
H21   H     H_    0.747735 0.486552 0.106063 0.222639
H22   H     H_    0.831090 0.287436 0.049534 0.264324
H23   H     H_    0.610395 0.622072 0.117880 0.118328
H24   H     H_    0.909889 0.401012 0.117998 0.276032
H25   H     H_    0.908781 0.377099 0.940984 0.266217
H26   H     H_    0.334756 0.471798 0.123260 0.112535
H27   H     H_    0.366798 0.335279 0.229708 0.194468
H28   H     H_    0.332106 0.333609 0.927538 0.226679
H29   H     H_    0.365175 0.200997 0.035061 0.241967
H30   H     H_    0.216401 0.227724 0.164525 0.267914
H31   H     H_    0.191891 0.207554 0.989863 0.271472
H32   H     H_    0.183371 0.361529 0.056742 0.266537
H33   H     H_    0.619169 0.840342 0.109698 0.147620
H34   H     H_    0.585854 0.994147 0.144078 0.181690
H35   H     H_    0.455702 0.763562 0.166800 0.243335
H36   H     H_    0.420901 0.921212 0.203020 0.232406
H37   H     H_    0.458113 0.989972 0.967908 0.272582
H38   H     H_    0.370782 0.868172 0.976579 0.273362
N1    N     N_2   0.500930 0.501330 0.852150 -0.206946
N2    N     N_2   0.500950 0.501360 0.147810 0.037170
O1    O     O_R   0.499990 0.319060 0.613040 -0.629576
O2    O     O_3   0.407200 0.938407 0.520328 -0.687632
O3    O     O_3   0.611002 0.139528 0.307659 -0.619930
O4    O     O_3   0.658571 0.556812 0.867599 -0.635367
O5    O     O_3   0.469567 0.393523 0.097396 -0.577825
O6    O     O_R   0.500010 0.319100 0.386900 -0.539125
O7    O     O_R   0.373700 0.499980 0.613090 -0.596352
O8    O     O_R   0.373730 0.500020 0.386960 -0.642090
O9    O     O_R   0.499990 0.680900 0.613100 -0.621989
O10   O     O_R   0.500010 0.680940 0.386960 -0.596197
O11   O     O_R   0.626270 0.499980 0.613040 -0.559408
O12   O     O_R   0.626300 0.500020 0.386910 -0.594554
O13   O     O_3   0.601841 0.866264 0.309112 -0.670149
Zn1   Zn    Zn3+2 0.499980 0.499970 0.650990 0.946130
Zn2   Zn    Zn3+2 0.500020 0.500030 0.349010 0.974375

loop_
_geom_bond_atom_site_label_1
_geom_bond_atom_site_label_2
_ccdc_geom_bond_type
C9    H33   S    
C1    O6    A    
C19   C20   S    
C22   O5    S    
C18   H16   S    
C22   H26   S    
C30   N2    D    
C7    C8    S    
C10   H36   S    
C30   H23   S    
O9    Zn1   S    
C16   O3    S    
C17   H14   S    
C13   H4    S    
C20   H20   S    
C14   H5    S    
C5    C6    S    
C26   O2    S    
C25   H32   S    
C23   C26   D    
C3    C12   S    
C16   C17   S    
C1    C28   S    
C23   C27   S    
C27   O3    S    
C9    C10   S    
O10   Zn2   S    
C24   H29   S    
C13   C14   S    
C18   H15   S    
O1    Zn1   S    
C10   H35   S    
C1    O1    A    
C23   O13   S    
C11   H2    S    
C24   C25   S    
C21   H24   S    
C15   H7    S    
C29   C30   S    
N2    Zn2   S    
C19   H18   S    
C28   H1    S    
C8    C12   T    
C3    O11   A    
C17   C18   S    
C2    C26   S    
C25   H30   S    
C15   H8    S    
O7    Zn1   S    
C13   O2    S    
O6    Zn2   S    
H12   N1    S    
C3    O12   A    
C22   C24   S    
C16   H11   S    
C11   H37   S    
C31   O7    A    
C29   N1    D    
C4    C5    T    
C18   H17   S    
C22   H27   S    
C21   H25   S    
C11   H38   S    
C31   O8    A    
C6    C7    T    
C29   O4    S    
O11   Zn1   S    
C19   O4    S    
C17   H13   S    
C13   H3    S    
C20   H21   S    
C14   H6    S    
C21   H22   S    
C19   H19   S    
N2    O5    S    
C24   H28   S    
C25   H31   S    
C9    H34   S    
C15   H9    S    
C4    C31   S    
C2    O9    A    
C10   C11   S    
C9    O13   S    
O12   Zn2   S    
C20   C21   S    
C27   C28   D    
C14   C15   S    
C2    O10   A    
N1    Zn1   S    
C16   H10   S    
O8    Zn2   S    
