data_mof_unit_7165.cif
_audit_creation_date              2013-03-05T15:50:09-0500
_audit_creation_method            fapswitch 2.2
_symmetry_space_group_name_H-M    P1
_symmetry_Int_Tables_number       1
_space_group_crystal_system       triclinic
_cell_length_a                    12.178338
_cell_length_b                    12.866866
_cell_length_c                    15.484681
_cell_angle_alpha                 85.767493
_cell_angle_beta                  116.998912
_cell_angle_gamma                 93.516506
_cell_volume                      2155.00850027

loop_
_atom_site_label
_atom_site_type_symbol
_atom_site_description
_atom_site_fract_x
_atom_site_fract_y
_atom_site_fract_z
_atom_type_partial_charge
O1    O     O_R   0.580150 0.341050 0.504560 -0.604575
O2    O     O_R   0.419850 0.658950 0.495440 -0.598220
O3    O     O_R   0.388090 0.353760 0.493600 -0.621615
O4    O     O_R   0.611910 0.646240 0.506400 -0.574274
C1    C     C_R   0.476009 0.300129 0.496178 0.929148
C2    C     C_R   0.524139 0.699844 0.504149 0.939425
O5    O     O_R   0.650890 0.490020 0.640860 -0.554544
O6    O     O_R   0.349110 0.509980 0.359140 -0.549966
O7    O     O_R   0.458830 0.502730 0.629890 -0.628967
O8    O     O_R   0.541170 0.497270 0.370110 -0.676860
C3    C     C_R   0.577213 0.493179 0.680538 0.885544
C4    C     C_R   0.422696 0.506155 0.319447 0.884861
Zn1   Zn    Zn3+2 0.628240 0.491510 0.507320 1.040535
Zn2   Zn    Zn3+2 0.371760 0.508490 0.492680 1.040183
C5    C     C_R   0.625001 0.478509 0.785389 -0.041895
C6    C     C_R   0.374292 0.516547 0.214320 -0.053390
C7    C     C_R   0.744727 0.382200 0.936180 -0.095772
C8    C     C_R   0.248440 0.603362 0.059794 -0.095288
C9    C     C_R   0.714911 0.406034 0.839153 -0.123672
C10   C     C_R   0.279522 0.583692 0.157532 -0.118977
C11   C     C_R   0.561953 0.523471 0.827813 -0.142777
C12   C     C_R   0.439094 0.470992 0.173690 -0.214849
C13   C     C_R   0.575155 0.487098 0.919434 0.095492
C14   C     C_R   0.422327 0.501616 0.079892 0.090142
C15   C     C_R   0.676590 0.423262 0.978334 0.111052
C16   C     C_R   0.318304 0.562232 0.019096 0.124295
C17   C     C_R   0.487497 0.509585 0.951723 0.093365
C18   C     C_R   0.508933 0.476940 0.047083 0.083052
C19   C     C_R   0.619620 0.425655 0.108529 -0.218691
C20   C     C_R   0.375449 0.558113 0.889175 -0.215921
C21   C     C_R   0.702762 0.398441 0.075709 -0.043843
C22   C     C_R   0.290853 0.583806 0.920993 -0.067332
H1    H     H_    0.505990 0.414869 0.219294 0.153744
H2    H     H_    0.498175 0.583218 0.785164 0.152350
H3    H     H_    0.233726 0.625042 0.189312 0.229208
H4    H     H_    0.757328 0.363565 0.805364 0.223676
H5    H     H_    0.814259 0.325033 0.974684 0.207243
H6    H     H_    0.175841 0.657395 0.019211 0.207387
H7    H     H_    0.646962 0.408040 0.184419 0.138900
H8    H     H_    0.348345 0.573826 0.813009 0.168280
C23   C     C_R   0.541880 0.810783 0.512301 -0.225295
C24   C     C_R   0.458527 0.189122 0.488834 -0.237452
C25   C     C_R   0.334162 0.033829 0.424602 0.239114
C26   C     C_R   0.665965 0.965866 0.577551 0.229806
C27   C     C_R   0.342840 0.142022 0.431380 0.207474
C28   C     C_R   0.657298 0.857609 0.570927 0.226707
C29   C     C_R   0.563124 0.130409 0.538651 -0.200598
C30   C     C_R   0.437504 0.869678 0.462313 -0.199778
C31   C     C_R   0.557972 0.024284 0.529461 -0.024846
C32   C     C_R   0.442382 0.975590 0.472224 -0.029188
H9    H     H_    0.351612 0.831725 0.415485 0.250385
H10   H     H_    0.649305 0.168724 0.584727 0.244657
N1    N     N_R   0.799120 0.480200 0.517090 -0.200399
N2    N     N_R   0.200880 0.519800 0.482910 -0.203651
C33   C     C_R   0.993271 0.583345 0.394822 0.190478
C34   C     C_R   0.001763 0.406541 0.599235 0.177935
C35   C     C_R   0.114113 0.574585 0.405801 0.379776
C36   C     C_R   0.882512 0.419062 0.590128 0.378026
C37   C     C_R   0.165945 0.461267 0.545200 -0.005851
C38   C     C_R   0.835659 0.540015 0.456707 -0.007888
C39   C     C_R   0.042536 0.464800 0.536346 -0.149959
C40   C     C_R   0.956411 0.530833 0.462192 -0.139282
C41   C     C_2   0.817551 0.347911 0.148006 0.513978
H11   H     H_    0.817418 0.302551 0.209936 0.082868
O9    O     O_2   0.914619 0.361342 0.142964 -0.467629
C42   C     C_2   0.174039 0.630228 0.847218 0.507317
H12   H     H_    0.172338 0.673592 0.783768 0.085450
O10   O     O_2   0.077499 0.615528 0.852893 -0.466088
N3    N     N_R   0.856479 0.379753 0.667397 0.222660
O11   O     O_R   0.897979 0.433978 0.744222 -0.316810
O12   O     O_R   0.832643 0.280723 0.675264 -0.351815
N4    N     N_R   0.139116 0.610697 0.327131 0.231228
O13   O     O_R   0.079830 0.566559 0.244712 -0.317420
O14   O     O_R   0.192240 0.701668 0.329078 -0.371298
N5    N     N_R   0.906958 0.638900 0.309389 0.217545
O15   O     O_R   0.926730 0.737579 0.294527 -0.232551
O16   O     O_R   0.822110 0.587446 0.239126 -0.408612
N6    N     N_R   0.078237 0.332844 0.672868 0.234926
O17   O     O_R   0.125441 0.354169 0.763871 -0.270852
O18   O     O_R   0.081183 0.237987 0.650279 -0.293284
N7    N     N_R   0.764182 0.796048 0.625535 0.252023
O19   O     O_R   0.865542 0.817832 0.618320 -0.256360
O20   O     O_R   0.763405 0.723425 0.688380 -0.336938
N8    N     N_R   0.235337 0.203244 0.378545 0.237772
O21   O     O_R   0.137284 0.183607 0.391044 -0.308048
O22   O     O_R   0.232470 0.274146 0.313185 -0.325086
N9    N     N_R   0.216501 0.984128 0.367682 0.234935
O23   O     O_R   0.167516 0.918343 0.409256 -0.287287
O24   O     O_R   0.153614 0.011171 0.276093 -0.268194
N10   N     N_R   0.783354 0.015536 0.634850 0.234819
O25   O     O_R   0.835556 0.077111 0.592845 -0.272715
O26   O     O_R   0.843204 0.991696 0.727376 -0.274372
C43   C     C_2   0.753990 0.623366 0.395336 0.615891
H13   H     H_    0.677596 0.606706 0.325705 0.066033
O27   O     O_2   0.774910 0.712867 0.421042 -0.493968
C44   C     C_2   0.256406 0.389631 0.616913 0.602857
H14   H     H_    0.276386 0.318628 0.594014 0.092368
O28   O     O_2   0.309175 0.409336 0.702449 -0.569967

loop_
_geom_bond_atom_site_label_1
_geom_bond_atom_site_label_2
_geom_bond_distance
_ccdc_geom_bond_type
C26   C31   1.413730 A    
C15   C21   1.407898 A    
C42   O10   1.220588 D    
C1    C24   1.436325 S    
C41   O9    1.220713 D    
C16   C22   1.408725 A    
C43   H13   1.083013 S    
C8    C16   1.411523 A    
O7    Zn2   1.893380 S    
N7    O19   1.301126 A    
C29   C31   1.377987 A    
O5    C3    1.301120 A    
O1    C1    1.296642 A    
C18   C19   1.417656 A    
C14   C16   1.424573 A    
C9    H4    1.077682 S    
N6    O18   1.301172 A    
C33   C40   1.424861 A    
C34   N6    1.432192 S    
C38   C40   1.445733 A    
O4    Zn1   2.011272 S    
N3    O12   1.298667 A    
C10   H3    1.077275 S    
C3    C5    1.456253 S    
C30   H9    1.076733 S    
C4    C6    1.456552 S    
C2    C23   1.436731 S    
C44   O28   1.219974 D    
O6    Zn2   1.956851 S    
C23   C28   1.407525 A    
C13   C17   1.420268 A    
C39   C40   1.418557 A    
C6    C10   1.392990 A    
C33   N5    1.433870 S    
C38   C43   1.471304 S    
C30   C32   1.377266 A    
C42   H12   1.085852 S    
C43   O27   1.220299 D    
C17   C20   1.416068 A    
O2    C2    1.296578 A    
N7    O20   1.301270 A    
N1    C38   1.376268 A    
C26   C28   1.398263 A    
Zn1   N1    2.030472 S    
N2    C37   1.380075 A    
C37   C39   1.449142 A    
C21   C41   1.487728 S    
N8    O21   1.301094 A    
N4    O14   1.297764 A    
N6    O17   1.301426 A    
C11   H2    1.078413 S    
C24   C27   1.407302 A    
C5    C9    1.394498 A    
N5    O15   1.301050 A    
C28   N7    1.437023 S    
N5    O16   1.300547 A    
N10   O26   1.300959 A    
C5    C11   1.387208 A    
O6    C4    1.301259 A    
C44   H14   1.083045 S    
C19   H7    1.076038 S    
C20   H8    1.077191 S    
C36   N3    1.422423 S    
C33   C35   1.413416 A    
C7    H5    1.080216 S    
C25   C27   1.397709 A    
O3    Zn2   2.011270 S    
O8    C4    1.299821 A    
O4    C2    1.293260 A    
Zn2   N2    2.030474 S    
O7    C3    1.299848 A    
C12   C14   1.400934 A    
C27   N8    1.436241 S    
O1    Zn1   1.985729 S    
C37   C44   1.469387 S    
C26   N10   1.435056 S    
C22   C42   1.487799 S    
C12   H1    1.076282 S    
C6    C12   1.387153 A    
C14   C18   1.422234 A    
N8    O22   1.301274 A    
N4    O13   1.301026 A    
O3    C1    1.293045 A    
O8    Zn1   1.893382 S    
N1    C36   1.361303 A    
C25   C32   1.414021 A    
C29   H10   1.078044 S    
C25   N9    1.436360 S    
C11   C13   1.400634 A    
C8    H6    1.079999 S    
C7    C15   1.410754 A    
C19   C21   1.393944 A    
C20   C22   1.392892 A    
N10   O25   1.300962 A    
C7    C9    1.390512 A    
C23   C30   1.388311 A    
C34   C36   1.412225 A    
C8    C10   1.390305 A    
C24   C29   1.388600 A    
C13   C15   1.422472 A    
C35   N4    1.424226 S    
N3    O11   1.300303 A    
O2    Zn2   1.985729 S    
C41   H11   1.085795 S    
O5    Zn1   1.956851 S    
N9    O23   1.301187 A    
C31   C32   1.414449 A    
C17   C18   1.413120 A    
N9    O24   1.301026 A    
C34   C39   1.429128 A    
N2    C35   1.364088 A    
