data_mof_unit_62908.cif
_audit_creation_date              2012-10-26T19:37:17-0400
_audit_creation_method            fapswitch 2.2
_symmetry_space_group_name_H-M    P1
_symmetry_Int_Tables_number       1
_space_group_crystal_system       triclinic
_cell_length_a                    10.966063
_cell_length_b                    15.818222
_cell_length_c                    17.12864
_cell_angle_alpha                 96.389293
_cell_angle_beta                  90.789604
_cell_angle_gamma                 92.632899
_cell_volume                      2949.08976369

loop_
_atom_site_label
_atom_site_type_symbol
_atom_type_description
_atom_site_fract_x
_atom_site_fract_y
_atom_site_fract_z
_atom_type_partial_charge
C1    C     C_R   0.501432 0.489343 0.348485 0.547765
C2    C     C_R   0.498604 0.516901 0.737437 0.000912
C3    C     C_R   0.503090 0.596994 0.782193 -0.150260
C4    C     C_R   0.265625 0.499641 0.496187 0.560516
C5    C     C_R   0.500751 0.603176 0.864088 -0.001130
C6    C     C_R   0.440014 0.750275 0.461186 0.023091
C7    C     C_R   0.442522 0.839362 0.462402 -0.121433
C8    C     C_R   0.523356 0.890984 0.514196 0.202382
C9    C     C_R   0.599796 0.849740 0.563537 -0.026752
C10   C     C_R   0.594014 0.760211 0.560154 0.030737
C11   C     C_R   0.550409 0.156995 0.535216 -0.111935
C12   C     C_R   0.474988 0.554620 0.225134 -0.158542
C13   C     C_R   0.555697 0.246392 0.539508 0.103604
C14   C     C_R   0.472132 0.107845 0.480209 0.203402
C15   C     C_R   0.408500 0.241424 0.436670 0.039068
C16   C     C_R   0.500275 0.510536 0.651427 0.565845
C17   C     C_R   0.400811 0.151697 0.430734 -0.119816
C18   C     C_R   0.734979 0.500294 0.500844 0.553102
C19   C     C_2   0.939396 0.561817 0.478674 -0.061675
C20   C     C_2   0.867079 0.502657 0.510287 -0.035806
C21   C     C_2   0.072155 0.567320 0.490451 -0.163420
C22   C     C_2   0.135164 0.496877 0.483868 -0.113539
C23   C     C_R   0.475590 0.551694 0.143770 -0.081026
C24   C     C_R   0.504194 0.483072 0.262085 -0.004898
C25   C     C_1   0.890678 0.622534 0.430439 0.232178
C26   C     C_1   0.505545 0.686378 0.908493 0.226441
C27   C     C_1   0.636441 0.292816 0.597592 0.256644
C28   C     C_1   0.684737 0.898406 0.617971 0.206977
C29   C     C_1   0.914446 0.446687 0.563911 0.201934
C30   C     C_1   0.571573 0.332385 0.248685 0.222577
C31   C     C_R   0.505891 0.476630 0.097439 0.214702
C32   C     C_R   0.535084 0.405378 0.133744 -0.105249
C33   C     C_R   0.535404 0.407664 0.215388 -0.041914
C34   C     C_R   0.489257 0.448650 0.856785 -0.089835
C35   C     C_R   0.491212 0.442930 0.775363 -0.138578
C36   C     C_R   0.494826 0.528980 0.902231 0.215580
Cu1   Cu    Cu3+1 0.494040 0.415220 0.496180 0.999717
Cu2   Cu    Cu3+1 0.505960 0.584780 0.503820 0.969215
H1    H     H_    0.451689 0.608002 0.117485 0.156059
H2    H     H_    0.652819 0.728792 0.598005 0.131310
H3    H     H_    0.339262 0.116517 0.387561 0.121164
H4    H     H_    0.118374 0.629929 0.501058 0.155017
H5    H     H_    0.486570 0.380411 0.742198 0.151200
H6    H     H_    0.558873 0.347865 0.097762 0.132295
H7    H     H_    0.352881 0.273907 0.397924 0.135589
H8    H     H_    0.381578 0.867144 0.423185 0.135128
H9    H     H_    0.377620 0.711402 0.421193 0.128229
H10   H     H_    0.090036 0.434811 0.467027 0.123438
H11   H     H_    0.482838 0.389980 0.883864 0.150487
H12   H     H_    0.508307 0.654792 0.753542 0.140468
H13   H     H_    0.450421 0.613038 0.259182 0.138355
H14   H     H_    0.607206 0.126488 0.575023 0.143695
N1    N     N_2   0.507594 0.469318 0.014319 -0.243018
N2    N     N_1   0.752885 0.937478 0.661640 -0.263986
N3    N     N_1   0.952724 0.402283 0.606694 -0.253142
N4    N     N_1   0.600640 0.272024 0.275191 -0.274063
N5    N     N_2   0.493511 0.537294 0.985635 -0.231559
N6    N     N_R   0.514910 0.712130 0.509560 -0.232306
N7    N     N_2   0.530767 0.982663 0.519109 -0.222942
N8    N     N_2   0.462231 0.016046 0.473224 -0.228577
N9    N     N_R   0.485090 0.287850 0.490450 -0.238055
N10   N     N_1   0.851870 0.671023 0.391916 -0.269047
N11   N     N_1   0.509389 0.753080 0.944115 -0.265921
N12   N     N_1   0.701263 0.329321 0.644949 -0.270919
O1    O     O_R   0.494430 0.420530 0.382500 -0.498908
O2    O     O_R   0.504490 0.563720 0.388950 -0.503975
O3    O     O_R   0.316910 0.428420 0.496780 -0.502651
O4    O     O_R   0.326970 0.571610 0.503230 -0.506049
O5    O     O_R   0.495510 0.436280 0.611050 -0.497572
O6    O     O_R   0.505570 0.579470 0.617500 -0.510830
O7    O     O_R   0.673030 0.428390 0.496770 -0.485002
O8    O     O_R   0.683090 0.571580 0.503220 -0.494490

loop_
_geom_bond_atom_site_label_1
_geom_bond_atom_site_label_2
_ccdc_geom_bond_type
C2    C35   A    
C4    O3    A    
C22   H10   S    
C26   N11   T    
Cu2   O6    S    
C6    C7    A    
Cu1   O5    S    
C13   N9    A    
C14   N8    S    
C9    C10   A    
C12   C24   A    
Cu1   N9    S    
C24   C33   A    
C12   C23   A    
C20   C29   S    
C32   C33   A    
C3    C5    A    
C19   C20   D    
C2    C3    A    
C15   N9    A    
C16   O6    A    
N7    N8    D    
C21   C22   D    
C31   N1    S    
C18   O8    A    
C11   C13   A    
C14   C17   A    
Cu1   Cu2   S    
C30   N4    T    
C23   H1    S    
Cu1   O3    S    
C10   H2    S    
C10   N6    A    
C3    H12   S    
Cu2   O4    S    
C1    O2    A    
C18   C20   S    
C25   N10   T    
Cu1   O7    S    
C8    N7    S    
C32   H6    S    
C19   C25   S    
C11   C14   A    
Cu2   O8    S    
C5    C36   A    
C17   H3    S    
C6    H9    S    
C15   H7    S    
C21   H4    S    
C7    H8    S    
C35   H5    S    
C7    C8    A    
C12   H13   S    
C2    C16   S    
C34   C36   A    
C1    C24   S    
Cu2   O2    S    
C34   C35   A    
C27   N12   T    
C18   O7    A    
C15   C17   A    
C4    C22   S    
C6    N6    A    
C13   C27   S    
C36   N5    S    
C28   N2    T    
C11   H14   S    
C29   N3    T    
C30   C33   S    
C19   C21   S    
Cu2   N6    S    
C4    O4    A    
C1    O1    A    
C31   C32   A    
Cu1   O1    S    
C16   O5    A    
C5    C26   S    
C9    C28   S    
C23   C31   A    
C8    C9    A    
C34   H11   S    
N1    N5    D    
