data_mof_unit_40876.cif
_audit_creation_date              2012-12-11T15:34:44-0500
_audit_creation_method            fapswitch 2.2
_symmetry_space_group_name_H-M    P1
_symmetry_Int_Tables_number       1
_space_group_crystal_system       triclinic
_cell_length_a                    17.190023
_cell_length_b                    17.141713
_cell_length_c                    17.309531
_cell_angle_alpha                 90.002443
_cell_angle_beta                  87.854487
_cell_angle_gamma                 89.999881
_cell_volume                      5096.96225829

loop_
_atom_site_label
_atom_site_type_symbol
_atom_type_description
_atom_site_fract_x
_atom_site_fract_y
_atom_site_fract_z
_atom_type_partial_charge
C1    C     C_R   0.827189 0.082494 0.359888 -0.007199
C2    C     C_R   0.198891 0.108352 0.399731 -0.050621
C3    C     C_R   0.892543 0.198632 0.600571 -0.082343
C4    C     C_R   0.081078 0.829261 0.355964 -0.047690
C5    C     C_R   0.172788 0.082476 0.640128 -0.007171
C6    C     C_R   0.805579 0.897116 0.390586 -0.068169
C7    C     C_R   0.102714 0.804560 0.609825 -0.018433
C8    C     C_R   0.920500 0.174440 0.359226 -0.029822
C9    C     C_R   0.327207 0.582475 0.859874 -0.007093
C10   C     C_R   0.694421 0.397110 0.109406 -0.068334
C11   C     C_R   0.397274 0.304548 0.890194 -0.018399
C12   C     C_R   0.194423 0.897113 0.609406 -0.068236
C13   C     C_R   0.579478 0.674421 0.140797 -0.029934
C14   C     C_R   0.672029 0.421793 0.855135 -0.070751
C15   C     C_R   0.301107 0.608351 0.100264 -0.050658
C16   C     C_R   0.607449 0.698633 0.899427 -0.082386
C17   C     C_R   0.418919 0.329261 0.144035 -0.047718
C18   C     C_R   0.327984 0.421802 0.144875 -0.070697
C19   C     C_R   0.698889 0.608352 0.899725 -0.050548
C20   C     C_R   0.392544 0.698633 0.100570 -0.082418
C21   C     C_R   0.581075 0.329273 0.855953 -0.047640
C22   C     C_R   0.672771 0.582462 0.140145 -0.007036
C23   C     C_R   0.897288 0.804562 0.390166 -0.018424
C24   C     C_R   0.305563 0.397099 0.890620 -0.068292
C25   C     C_R   0.602707 0.304560 0.109831 -0.018289
C26   C     C_R   0.420496 0.674441 0.859226 -0.029883
C27   C     C_R   0.184891 0.190181 0.730402 -0.400794
C28   C     C_R   0.776986 0.775677 0.322734 -0.389773
C29   C     C_R   0.752843 0.249535 0.627134 -0.253768
C30   C     C_R   0.164365 0.840238 0.229466 -0.275163
C31   C     C_R   0.835647 0.840228 0.770527 -0.275136
C32   C     C_R   0.247145 0.249536 0.372846 -0.253744
C33   C     C_R   0.223008 0.775681 0.677265 -0.389732
C34   C     C_R   0.079492 0.174433 0.640783 -0.029882
C35   C     C_R   0.815086 0.190204 0.269626 -0.400756
C36   C     C_R   0.684882 0.690176 0.230404 -0.400850
C37   C     C_R   0.276975 0.275662 0.822764 -0.389663
C38   C     C_R   0.252845 0.749532 0.127142 -0.253716
C39   C     C_R   0.664374 0.340260 0.729457 -0.275130
C40   C     C_R   0.335625 0.340241 0.270528 -0.275137
C41   C     C_R   0.747142 0.749534 0.872832 -0.253744
C42   C     C_R   0.722994 0.275685 0.177280 -0.389556
C43   C     C_R   0.315091 0.690190 0.769617 -0.400843
C44   C     C_R   0.859405 0.144388 0.319444 0.238910
C45   C     C_R   0.172025 0.921790 0.355130 -0.070633
C46   C     C_R   0.176503 0.822437 0.630711 0.252569
C47   C     C_R   0.823500 0.822442 0.369276 0.252544
C48   C     C_R   0.140569 0.144366 0.680581 0.238949
C49   C     C_R   0.138950 0.864417 0.309164 0.192932
C50   C     C_R   0.812802 0.187921 0.611180 0.193310
C51   C     C_R   0.187190 0.187923 0.388811 0.193350
C52   C     C_R   0.861063 0.864416 0.690835 0.192922
C53   C     C_R   0.359418 0.644372 0.819429 0.238991
C54   C     C_R   0.676494 0.322438 0.130722 0.252499
C55   C     C_R   0.323476 0.322417 0.869325 0.252503
C56   C     C_R   0.801105 0.108351 0.600261 -0.050748
C57   C     C_R   0.640548 0.644349 0.180601 0.238996
C58   C     C_R   0.638953 0.364432 0.809158 0.192937
C59   C     C_R   0.312805 0.687922 0.111184 0.193353
C60   C     C_R   0.687186 0.687923 0.888803 0.193384
C61   C     C_R   0.361049 0.364423 0.190835 0.192970
C62   C     C_R   0.278026 0.292534 0.743663 0.424155
C63   C     C_R   0.684210 0.672866 0.309397 0.413606
C64   C     C_R   0.628557 0.277141 0.692184 0.381773
C65   C     C_R   0.274141 0.828301 0.138327 0.385669
C66   C     C_R   0.826531 0.730857 0.859238 0.395475
C67   C     C_R   0.107452 0.198632 0.399429 -0.082455
C68   C     C_R   0.270198 0.373991 0.309240 0.375091
C69   C     C_R   0.267963 0.748905 0.803290 0.393400
C70   C     C_R   0.768607 0.216206 0.143626 0.386894
C71   C     C_R   0.173457 0.730860 0.140750 0.395477
C72   C     C_R   0.729805 0.374002 0.690738 0.375003
C73   C     C_R   0.732000 0.748893 0.196720 0.393323
C74   C     C_R   0.231191 0.216321 0.856455 0.386926
C75   C     C_R   0.722088 0.292673 0.256346 0.424117
C76   C     C_R   0.315794 0.672885 0.690621 0.413543
C77   C     C_R   0.371435 0.277122 0.307800 0.381786
C78   C     C_R   0.918927 0.829258 0.644031 -0.047658
C79   C     C_R   0.725851 0.828305 0.861633 0.385691
C80   C     C_R   0.778084 0.792477 0.243621 0.424260
C81   C     C_R   0.184274 0.172793 0.809383 0.413432
C82   C     C_R   0.128559 0.777108 0.192199 0.381779
C83   C     C_R   0.774150 0.328302 0.638313 0.385690
C84   C     C_R   0.326536 0.230871 0.359242 0.395473
C85   C     C_R   0.770238 0.873996 0.809247 0.375052
C86   C     C_R   0.768171 0.249104 0.303256 0.393421
C87   C     C_R   0.268879 0.716420 0.643556 0.386940
C88   C     C_R   0.673452 0.230874 0.640745 0.395383
C89   C     C_R   0.827987 0.921795 0.644879 -0.070636
C90   C     C_R   0.229781 0.873996 0.190740 0.375047
C91   C     C_R   0.231952 0.248958 0.696745 0.393397
C92   C     C_R   0.731133 0.716408 0.356455 0.386923
C93   C     C_R   0.221888 0.792484 0.756378 0.424219
C94   C     C_R   0.815521 0.172672 0.190692 0.413443
C95   C     C_R   0.871439 0.777090 0.807789 0.381862
C96   C     C_R   0.225842 0.328302 0.361649 0.385724
Cl1   Cl    Cl    0.337686 0.367707 0.703130 -0.391633
Cl2   Cl    Cl    0.749570 0.475064 0.697050 -0.485826
Cl3   Cl    Cl    0.735594 0.766541 0.095566 -0.455669
Cl4   Cl    Cl    0.232166 0.197522 0.956900 -0.469714
Cl5   Cl    Cl    0.662559 0.367953 0.296857 -0.391800
Cl6   Cl    Cl    0.374758 0.597012 0.651378 -0.387660
Cl7   Cl    Cl    0.473475 0.263252 0.301082 -0.450956
Cl8   Cl    Cl    0.654447 0.874430 0.921997 -0.438317
Cl9   Cl    Cl    0.837813 0.867579 0.203053 -0.391159
Cl10  Cl    Cl    0.125415 0.096824 0.848600 -0.387739
Cl11  Cl    Cl    0.026519 0.763222 0.198928 -0.450763
Cl12  Cl    Cl    0.625284 0.596971 0.348644 -0.387521
Cl13  Cl    Cl    0.845514 0.374404 0.577867 -0.438049
Cl14  Cl    Cl    0.373855 0.160232 0.415156 -0.443482
Cl15  Cl    Cl    0.750684 0.975065 0.803108 -0.485522
Cl16  Cl    Cl    0.764780 0.266969 0.404368 -0.455657
Cl17  Cl    Cl    0.268015 0.697727 0.543092 -0.469707
Cl18  Cl    Cl    0.626126 0.160213 0.584850 -0.443632
Cl19  Cl    Cl    0.249450 0.975067 0.196979 -0.485734
Cl20  Cl    Cl    0.235498 0.266685 0.595604 -0.455676
Cl21  Cl    Cl    0.732028 0.697712 0.456920 -0.469693
Cl22  Cl    Cl    0.162159 0.867592 0.796930 -0.391427
Cl23  Cl    Cl    0.526510 0.263292 0.698894 -0.450750
Cl24  Cl    Cl    0.874113 0.096496 0.151536 -0.387681
Cl25  Cl    Cl    0.973471 0.763173 0.801053 -0.450790
Cl26  Cl    Cl    0.154449 0.374421 0.422029 -0.438318
Cl27  Cl    Cl    0.345514 0.874415 0.077906 -0.438286
Cl28  Cl    Cl    0.873840 0.660231 0.915178 -0.443372
Cl29  Cl    Cl    0.250537 0.475017 0.303041 -0.485777
Cl30  Cl    Cl    0.264357 0.766566 0.904442 -0.455667
Cl31  Cl    Cl    0.767421 0.197235 0.043233 -0.469623
Cl32  Cl    Cl    0.126136 0.660213 0.084833 -0.443401
H1    H     H_    0.774578 0.051088 0.347765 0.128406
H2    H     H_    0.253313 0.077863 0.401745 0.165721
H3    H     H_    0.924266 0.252570 0.599256 0.168254
H4    H     H_    0.046904 0.778762 0.343579 0.155185
H5    H     H_    0.225396 0.051067 0.652255 0.128379
H6    H     H_    0.749544 0.925578 0.388934 0.123960
H7    H     H_    0.075076 0.747904 0.611812 0.135620
H8    H     H_    0.953518 0.226800 0.346348 0.129671
H9    H     H_    0.274604 0.551058 0.847743 0.128399
H10   H     H_    0.750458 0.425569 0.111055 0.123967
H11   H     H_    0.424920 0.247896 0.888203 0.135645
H12   H     H_    0.250460 0.925573 0.611055 0.123977
H13   H     H_    0.546465 0.726785 0.153675 0.129634
H14   H     H_    0.721258 0.458511 0.841612 0.163856
H15   H     H_    0.246686 0.577860 0.098243 0.165705
H16   H     H_    0.575724 0.752568 0.900755 0.168282
H17   H     H_    0.453087 0.278759 0.156419 0.155179
H18   H     H_    0.278784 0.458551 0.158427 0.163826
H19   H     H_    0.753311 0.577862 0.901732 0.165704
H20   H     H_    0.424266 0.752572 0.099247 0.168266
H21   H     H_    0.546893 0.278782 0.843557 0.155188
H22   H     H_    0.725378 0.551053 0.152274 0.128434
H23   H     H_    0.924926 0.747907 0.388177 0.135628
H24   H     H_    0.249528 0.425563 0.888973 0.123968
H25   H     H_    0.575066 0.247906 0.111821 0.135715
H26   H     H_    0.453506 0.726806 0.846351 0.129634
H27   H     H_    0.046479 0.226797 0.653662 0.129621
H28   H     H_    0.221244 0.958516 0.341588 0.163820
H29   H     H_    0.746685 0.077859 0.598237 0.165715
H30   H     H_    0.075727 0.252568 0.400757 0.168316
H31   H     H_    0.953098 0.778756 0.656407 0.155187
H32   H     H_    0.778778 0.958535 0.658443 0.163777
N1    N     N_R   0.868470 0.074730 0.422590 -0.066613
N2    N     N_R   0.131530 0.074730 0.422590 -0.066309
N3    N     N_R   0.925270 0.131530 0.577410 -0.064193
N4    N     N_R   0.074730 0.868470 0.422590 -0.066807
N5    N     N_R   0.131530 0.074730 0.577410 -0.066579
N6    N     N_R   0.868470 0.925270 0.422590 -0.063015
N7    N     N_R   0.074730 0.868470 0.577410 -0.067979
N8    N     N_R   0.925270 0.131530 0.422590 -0.060388
N9    N     N_R   0.368470 0.574730 0.922590 -0.066578
N10   N     N_R   0.631530 0.425270 0.077410 -0.063010
N11   N     N_R   0.425270 0.368470 0.922590 -0.067973
N12   N     N_R   0.131530 0.925270 0.577410 -0.063016
N13   N     N_R   0.574730 0.631530 0.077410 -0.060390
N14   N     N_R   0.631530 0.425270 0.922590 -0.066546
N15   N     N_R   0.368470 0.574730 0.077410 -0.066304
N16   N     N_R   0.574730 0.631530 0.922590 -0.064199
N17   N     N_R   0.425270 0.368470 0.077410 -0.066802
N18   N     N_R   0.368470 0.425270 0.077410 -0.066536
N19   N     N_R   0.631530 0.574730 0.922590 -0.066303
N20   N     N_R   0.425270 0.631530 0.077410 -0.064195
N21   N     N_R   0.574730 0.368470 0.922590 -0.066793
N22   N     N_R   0.631530 0.574730 0.077410 -0.066576
N23   N     N_R   0.925270 0.868470 0.422590 -0.067985
N24   N     N_R   0.368470 0.425270 0.922590 -0.062997
N25   N     N_R   0.574730 0.368470 0.077410 -0.067996
N26   N     N_R   0.425270 0.631530 0.922590 -0.060409
N27   N     N_R   0.074730 0.131530 0.577410 -0.060390
N28   N     N_R   0.131530 0.925270 0.422590 -0.066524
N29   N     N_R   0.868470 0.074730 0.577410 -0.066298
N30   N     N_R   0.074730 0.131530 0.422590 -0.064204
N31   N     N_R   0.925270 0.868470 0.577410 -0.066806
N32   N     N_R   0.868470 0.925270 0.577410 -0.066514
Ni1   Ni    Ni4+2 0.869670 0.000000 0.500000 0.262883
Ni2   Ni    Ni4+2 0.130330 0.000000 0.500000 0.262916
Ni3   Ni    Ni4+2 0.000000 0.869670 0.500000 0.261153
Ni4   Ni    Ni4+2 0.000000 0.130330 0.500000 0.282152
Ni5   Ni    Ni4+2 0.369670 0.500000 0.000000 0.262895
Ni6   Ni    Ni4+2 0.630330 0.500000 0.000000 0.262891
Ni7   Ni    Ni4+2 0.500000 0.369670 0.000000 0.261192
Ni8   Ni    Ni4+2 0.500000 0.630330 0.000000 0.282117

loop_
_geom_bond_atom_site_label_1
_geom_bond_atom_site_label_2
_ccdc_geom_bond_type
C70   Cl31  S    
C27   C48   S    
C37   C74   A    
C22   H22   S    
C28   C47   S    
C11   N11   A    
C31   C85   A    
N27   Ni4   S    
C24   N24   A    
C26   N26   A    
N12   Ni2   S    
N22   Ni6   S    
N6    Ni1   S    
N2    N30   A    
C31   C52   S    
C30   C90   A    
N5    Ni2   S    
C2    N2    A    
C22   C57   A    
C6    N6    A    
C37   C62   A    
C67   N30   A    
C96   Cl26  S    
C12   N12   A    
C72   Cl2   S    
C34   H27   S    
C24   C55   A    
C21   N21   A    
C39   C64   A    
C42   C75   A    
N5    N27   A    
C64   Cl23  S    
N6    N23   A    
C3    H3    S    
C16   H16   S    
N9    N26   A    
C29   C83   A    
C1    H1    S    
C35   C86   A    
C28   C80   A    
C8    H8    S    
N13   N22   A    
C42   C70   A    
C91   Cl20  S    
C16   C60   A    
C7    N7    A    
C11   H11   S    
N15   Ni5   S    
C29   C88   A    
N11   Ni7   S    
C8    N8    A    
C17   C61   A    
C38   C71   A    
C9    H9    S    
C43   C53   S    
N16   N19   A    
C14   C58   A    
C63   C92   A    
N23   Ni3   S    
C39   C72   A    
C12   H12   S    
C27   C91   A    
C13   H13   S    
C36   C63   A    
C24   H24   S    
N30   Ni4   S    
C71   C82   A    
C5    N5    A    
C16   N16   A    
C1    N1    A    
C43   C69   A    
N13   Ni8   S    
N3    N29   A    
C33   C46   S    
N26   Ni8   S    
C52   C89   A    
N7    Ni3   S    
N16   Ni8   S    
C52   C78   A    
N14   N21   A    
C89   N32   A    
C3    C50   A    
N31   Ni3   S    
C29   C50   S    
C76   Cl6   S    
C65   C90   A    
C32   C84   A    
C5    C48   A    
N14   Ni6   S    
C23   C47   A    
C6    C47   A    
C13   N13   A    
C25   H25   S    
N31   N32   A    
C72   C83   A    
C7    C46   A    
N11   N24   A    
C27   C81   A    
C13   C57   A    
C25   C54   A    
C20   N20   A    
C36   C57   S    
C2    C51   A    
C74   Cl4   S    
C77   C84   A    
C85   Cl15  S    
C82   Cl11  S    
C39   C58   S    
C80   Cl9   S    
C45   N28   A    
C50   C56   A    
C40   C61   S    
C9    N9    A    
C30   C82   A    
C86   Cl16  S    
C92   Cl21  S    
C32   C51   S    
C23   N23   A    
C56   H29   S    
N20   Ni8   S    
C62   Cl1   S    
C75   C86   A    
C38   C65   A    
C45   C49   A    
C1    C44   A    
C62   C91   A    
N2    Ni2   S    
C4    N4    A    
C5    H5    S    
N1    Ni1   S    
C28   C92   A    
C45   H28   S    
C68   C96   A    
C90   Cl19  S    
N25   Ni7   S    
C20   C59   A    
C35   C44   S    
C76   C87   A    
N7    N12   A    
C25   N25   A    
C15   H15   S    
C12   C46   A    
C32   C96   A    
N18   Ni5   S    
C69   Cl30  S    
N24   Ni5   S    
C21   H21   S    
C40   C68   A    
N8    Ni4   S    
C17   H17   S    
C14   H14   S    
C66   Cl28  S    
C71   Cl32  S    
C26   H26   S    
C9    C53   A    
C93   Cl22  S    
C74   C81   A    
N21   Ni7   S    
C26   C53   A    
C19   N19   A    
C7    H7    S    
C79   C85   A    
C11   C55   A    
C89   H32   S    
N9    Ni5   S    
C35   C94   A    
C17   N17   A    
C43   C76   A    
C73   Cl3   S    
C23   H23   S    
C56   N29   A    
C70   C94   A    
C15   C59   A    
C30   C49   S    
C78   N31   A    
C8    C44   A    
C41   C60   S    
C18   H18   S    
C33   C93   A    
C41   C79   A    
N4    Ni3   S    
C18   C61   A    
C41   C66   A    
N19   Ni6   S    
C3    N3    A    
C19   C60   A    
C10   N10   A    
C83   Cl13  S    
C69   C93   A    
C15   N15   A    
C4    C49   A    
C79   Cl8   S    
N32   Ni1   S    
C19   H19   S    
C33   C87   A    
C21   C58   A    
C14   N14   A    
C42   C54   S    
N10   Ni6   S    
C4    H4    S    
C95   Cl25  S    
C20   H20   S    
C51   C67   A    
N3    Ni4   S    
C31   C95   A    
N10   N25   A    
C2    H2    S    
C73   C80   A    
C67   H30   S    
N4    N28   A    
C65   Cl27  S    
C88   Cl18  S    
C34   N27   A    
C10   C54   A    
C84   Cl14  S    
C87   Cl17  S    
N1    N8    A    
C77   Cl7   S    
C36   C73   A    
N15   N20   A    
N28   Ni2   S    
C38   C59   S    
C37   C55   S    
N29   Ni1   S    
C78   H31   S    
C6    H6    S    
C34   C48   A    
C18   N18   A    
C22   N22   A    
N17   N18   A    
N17   Ni7   S    
C94   Cl24  S    
C75   Cl5   S    
C40   C77   A    
C10   H10   S    
C63   Cl12  S    
C81   Cl10  S    
C68   Cl29  S    
C64   C88   A    
C66   C95   A    
