data_mof_unit_53416.cif
_audit_creation_date              2012-12-10T16:56:33-0500
_audit_creation_method            fapswitch 2.2
_symmetry_space_group_name_H-M    P1
_symmetry_Int_Tables_number       1
_space_group_crystal_system       triclinic
_cell_length_a                    7.772102
_cell_length_b                    8.620952
_cell_length_c                    15.691095
_cell_angle_alpha                 90.520938
_cell_angle_beta                  87.80634
_cell_angle_gamma                 93.651134
_cell_volume                      1048.42297428

loop_
_atom_site_label
_atom_site_type_symbol
_atom_type_description
_atom_site_fract_x
_atom_site_fract_y
_atom_site_fract_z
_atom_type_partial_charge
Br1   Br    Br    0.773750 0.786813 0.940375 -0.226939
Br2   Br    Br    0.226250 0.213187 0.059625 -0.226939
Br3   Br    Br    0.346678 0.823837 0.070443 -0.254608
Br4   Br    Br    0.653322 0.176163 0.929557 -0.254608
Br5   Br    Br    0.865817 0.458980 0.091085 -0.293088
Br6   Br    Br    0.134183 0.541020 0.908915 -0.293088
C1    C     C_R   0.545709 0.794633 0.497796 0.961340
C2    C     C_3   0.388979 0.380719 0.023376 0.216666
C3    C     C_1   0.518878 0.501691 0.750433 -0.100781
C4    C     C_1   0.481122 0.498309 0.249567 -0.100781
C5    C     C_3   0.347191 0.517144 0.966378 0.212178
C6    C     C_3   0.652809 0.482856 0.033622 0.212178
C7    C     C_3   0.519630 0.501717 0.916825 -0.219010
C8    C     C_3   0.480370 0.498283 0.083175 -0.219010
C9    C     C_1   0.526059 0.502286 0.825649 0.182627
C10   C     C_1   0.473941 0.497714 0.174351 0.182627
C11   C     C_R   0.454290 0.205367 0.502204 0.961340
C12   C     C_R   0.505373 0.500562 0.661846 0.890503
C13   C     C_R   0.494627 0.499438 0.338154 0.890503
C14   C     C_2   0.569556 0.958134 0.496558 -0.343791
C15   C     C_2   0.430443 0.041866 0.503442 -0.343791
C16   C     C_3   0.438716 0.634658 0.027006 0.206175
C17   C     C_3   0.561284 0.365342 0.972994 0.206175
C18   C     C_3   0.611021 0.619281 0.976624 0.216665
H1    H     H_    0.700967 0.009154 0.489994 0.186219
H2    H     H_    0.299033 0.990846 0.510006 0.186219
H3    H     H_    0.012456 0.383378 0.436777 0.205564
H4    H     H_    0.987544 0.616622 0.563223 0.205564
N1    N     N_2   0.950320 0.457950 0.477300 -0.165167
N2    N     N_2   0.049680 0.542050 0.522700 -0.165167
O1    O     O_R   0.389250 0.738570 0.505570 -0.612303
O2    O     O_R   0.610750 0.261430 0.494430 -0.612302
O3    O     O_R   0.678390 0.711630 0.491020 -0.627640
O4    O     O_R   0.321610 0.288370 0.508980 -0.627641
O5    O     O_R   0.355460 0.513480 0.630490 -0.592772
O6    O     O_R   0.644540 0.486520 0.369510 -0.592772
O7    O     O_R   0.644600 0.486540 0.615950 -0.617326
O8    O     O_R   0.355400 0.513460 0.384050 -0.617326
Zn1   Zn    Zn3+2 0.306940 0.517990 0.509710 0.992154
Zn2   Zn    Zn3+2 0.693060 0.482010 0.490290 0.992154

loop_
_geom_bond_atom_site_label_1
_geom_bond_atom_site_label_2
_ccdc_geom_bond_type
O5    Zn1   S    
C15   H2    S    
N1    N2    D    
C13   O8    A    
H3    N1    S    
C1    O3    A    
C12   O5    A    
C6    C18   S    
C5    C16   S    
C7    C9    S    
C4    C13   S    
C8    C16   S    
H4    N2    S    
C3    C9    T    
C4    C10   T    
C5    C7    S    
C6    C17   S    
Br5   C6    S    
C2    C5    S    
N1    Zn2   S    
C12   O7    A    
O1    Zn1   S    
N2    Zn1   S    
O7    Zn2   S    
C16   C18   S    
C13   O6    A    
O2    Zn2   S    
O8    Zn1   S    
C8    C10   S    
O3    Zn2   S    
C1    O1    A    
C11   O4    A    
O4    Zn1   S    
C3    C12   S    
O6    Zn2   S    
C2    C17   S    
C14   C15   D    
C7    C17   S    
Br1   C18   S    
C1    C14   S    
C14   H1    S    
Br6   C5    S    
Br4   C17   S    
C11   O2    A    
Br3   C16   S    
C2    C8    S    
Br2   C2    S    
C7    C18   S    
C6    C8    S    
C11   C15   S    
