data_mof_unit_31907.cif
_audit_creation_date              2012-12-10T19:47:58-0500
_audit_creation_method            fapswitch 2.2
_symmetry_space_group_name_H-M    P1
_symmetry_Int_Tables_number       1
_space_group_crystal_system       triclinic
_cell_length_a                    15.007738
_cell_length_b                    14.122775
_cell_length_c                    10.759196
_cell_angle_alpha                 90.000815
_cell_angle_beta                  89.972698
_cell_angle_gamma                 90.00038
_cell_volume                      2280.42109197

loop_
_atom_site_label
_atom_site_type_symbol
_atom_type_description
_atom_site_fract_x
_atom_site_fract_y
_atom_site_fract_z
_atom_type_partial_charge
C1    C     C_R   0.327705 0.500011 0.499984 0.864872
C2    C     C_R   0.672295 0.500012 0.500015 0.864870
C3    C     C_R   0.048106 0.500245 0.499968 0.116519
C4    C     C_R   0.951893 0.500247 0.500005 0.116515
C5    C     C_R   0.422019 0.105191 0.473418 -0.308228
C6    C     C_R   0.577441 0.894754 0.471091 -0.284357
C7    C     C_R   0.577981 0.105193 0.526590 -0.308268
C8    C     C_R   0.422559 0.894753 0.528912 -0.284582
C9    C     C_R   0.423700 0.204485 0.472956 -0.000557
C10   C     C_R   0.575816 0.795494 0.470479 -0.000022
C11   C     C_R   0.576299 0.204487 0.527049 -0.000600
C12   C     C_R   0.424185 0.795493 0.529523 -0.000114
C13   C     C_R   0.500000 0.053285 0.500004 0.085741
C14   C     C_R   0.500000 0.946600 0.500002 0.161263
C15   C     C_R   0.488246 0.499719 0.259974 0.889811
C16   C     C_R   0.511755 0.499720 0.740024 0.889811
C17   C     C_R   0.450652 0.671645 0.108645 -0.377289
C18   C     C_R   0.541503 0.322927 0.885107 -0.318695
C19   C     C_R   0.549365 0.671645 0.891367 -0.377324
C20   C     C_R   0.458525 0.322919 0.114882 -0.318786
C21   C     C_R   0.471768 0.759428 0.052048 0.479879
C22   C     C_R   0.518210 0.237178 0.940371 0.430244
C23   C     C_R   0.528290 0.759426 0.948002 0.479840
C24   C     C_R   0.481853 0.237176 0.059625 0.430273
C25   C     C_R   0.518649 0.584960 0.940829 0.039756
C26   C     C_R   0.482968 0.410828 0.060673 0.017496
C27   C     C_R   0.481354 0.584959 0.059171 0.039738
C28   C     C_R   0.517038 0.410830 0.939318 0.017467
C29   C     C_R   0.524378 0.498371 0.875224 -0.158538
C30   C     C_R   0.475623 0.498368 0.124773 -0.158535
C31   C     C_R   0.094159 0.579805 0.456555 -0.176818
C32   C     C_R   0.905943 0.420602 0.456720 -0.180267
C33   C     C_R   0.905844 0.579806 0.543427 -0.176814
C34   C     C_R   0.094054 0.420599 0.543250 -0.180268
C35   C     C_R   0.186139 0.579953 0.457163 -0.206305
C36   C     C_R   0.813984 0.420259 0.457560 -0.197877
C37   C     C_R   0.813863 0.579954 0.542828 -0.206305
C38   C     C_R   0.186013 0.420256 0.542418 -0.197884
C39   C     C_R   0.231991 0.500063 0.499802 -0.020791
C40   C     C_R   0.768009 0.500064 0.500188 -0.020789
H1    H     H_    0.408708 0.669867 0.190018 0.163649
H2    H     H_    0.580388 0.318946 0.800701 0.195168
H3    H     H_    0.591298 0.669867 0.809983 0.163657
H4    H     H_    0.419647 0.318924 0.199293 0.195163
H5    H     H_    0.059014 0.641171 0.421244 0.130443
H6    H     H_    0.941159 0.359294 0.421324 0.130662
H7    H     H_    0.940990 0.641171 0.578742 0.130441
H8    H     H_    0.058836 0.359291 0.578639 0.130659
H9    H     H_    0.221272 0.641724 0.422918 0.141718
H10   H     H_    0.778959 0.358420 0.423394 0.147396
H11   H     H_    0.778732 0.641724 0.577081 0.141718
H12   H     H_    0.221036 0.358416 0.576583 0.147396
H13   H     H_    0.360418 0.069897 0.449738 0.153635
H14   H     H_    0.638994 0.930087 0.447534 0.134745
H15   H     H_    0.639581 0.069900 0.550280 0.153651
H16   H     H_    0.361009 0.930087 0.552485 0.134867
H17   H     H_    0.363659 0.243054 0.450430 0.133066
H18   H     H_    0.635636 0.756931 0.446696 0.133167
H19   H     H_    0.636340 0.243058 0.549577 0.133088
H20   H     H_    0.364365 0.756931 0.553310 0.133192
N1    N     N_R   0.500000 0.252470 0.500000 -0.099019
N2    N     N_R   0.500000 0.747530 0.500000 -0.094810
O1    O     O_R   0.369060 0.579480 0.500010 -0.638152
O2    O     O_R   0.630940 0.420520 0.499990 -0.638049
O3    O     O_R   0.630940 0.579480 0.499990 -0.638149
O4    O     O_R   0.369060 0.420520 0.500010 -0.638038
O5    O     O_R   0.499990 0.579480 0.316780 -0.610786
O6    O     O_R   0.500010 0.420520 0.683220 -0.621834
O7    O     O_R   0.500010 0.579480 0.683220 -0.610800
O8    O     O_R   0.499990 0.420520 0.316780 -0.621866
Zn1   Zn    Zn3+2 0.500000 0.606140 0.500000 0.933956
Zn2   Zn    Zn3+2 0.500000 0.393860 0.500000 0.926884
O9    O     O_3   0.464084 0.152804 0.119629 -0.673308
C41   C     C_3   0.538692 0.125593 0.191736 0.085910
H21   H     H_    0.514475 0.073137 0.259686 0.194677
H22   H     H_    0.567437 0.185752 0.245644 0.139980
C42   C     C_3   0.610630 0.076548 0.113422 -0.311188
H23   H     H_    0.578366 0.026481 0.047791 0.291717
H24   H     H_    0.648720 0.130407 0.060202 0.222744
C43   C     C_3   0.675881 0.021104 0.193916 -0.986408
H25   H     H_    0.702047 0.066142 0.270299 0.261430
H26   H     H_    0.732607 0.996410 0.136108 0.265002
H27   H     H_    0.642081 0.958027 0.233183 0.284433
O10   O     O_3   0.554593 0.847456 0.900966 -0.620191
C44   C     C_3   0.632921 0.843129 0.827944 0.053755
H28   H     H_    0.616765 0.813852 0.734710 0.158683
H29   H     H_    0.685240 0.799508 0.874198 0.132947
C45   C     C_3   0.670057 0.942800 0.809652 -0.281117
H30   H     H_    0.618891 0.987819 0.764637 0.243414
H31   H     H_    0.687127 0.973904 0.901259 0.231801
C46   C     C_3   0.753603 0.941760 0.728775 -1.013921
H32   H     H_    0.807036 0.899877 0.774354 0.268502
H33   H     H_    0.777759 0.015356 0.715225 0.269456
H34   H     H_    0.738848 0.910527 0.636366 0.260973
O11   O     O_3   0.536078 0.152810 0.880411 -0.673274
C47   C     C_3   0.461480 0.125439 0.808387 0.085838
H35   H     H_    0.485767 0.073077 0.740362 0.194672
H36   H     H_    0.432553 0.185540 0.754557 0.139838
C48   C     C_3   0.389717 0.076172 0.886771 -0.311020
H37   H     H_    0.422151 0.026238 0.952413 0.292001
H38   H     H_    0.351482 0.129921 0.939982 0.222671
C49   C     C_3   0.324611 0.020468 0.806351 -0.986166
H39   H     H_    0.298291 0.065381 0.729946 0.261332
H40   H     H_    0.267974 0.995607 0.864203 0.264955
H41   H     H_    0.358594 0.957486 0.767117 0.284627
O12   O     O_3   0.445516 0.847460 0.099136 -0.620162
C50   C     C_3   0.367169 0.843161 0.172119 0.053780
H42   H     H_    0.383276 0.813815 0.265330 0.158685
H43   H     H_    0.314825 0.799616 0.125793 0.132936
C51   C     C_3   0.330117 0.942857 0.190510 -0.281050
H44   H     H_    0.381304 0.987787 0.235641 0.243375
H45   H     H_    0.313127 0.974055 0.098930 0.231841
C52   C     C_3   0.246522 0.941839 0.271291 -1.013998
H46   H     H_    0.261189 0.910505 0.363667 0.260982
H47   H     H_    0.193073 0.900059 0.225585 0.268512
H48   H     H_    0.222433 0.015450 0.284929 0.269439

loop_
_geom_bond_atom_site_label_1
_geom_bond_atom_site_label_2
_ccdc_geom_bond_type
C42   H23   S    
C22   O11   S    
C19   C23   A    
O11   C47   S    
C7    H15   S    
C2    O3    A    
C8    H16   S    
C44   H28   S    
C7    C11   A    
C41   H22   S    
C9    N1    A    
C32   C36   A    
C5    H13   S    
C28   C29   A    
C10   H18   S    
C37   C40   A    
C18   H2    S    
C38   C39   A    
C37   H11   S    
C24   O9    S    
C42   C43   S    
C6    C14   A    
O12   C50   S    
C47   C48   S    
C49   H41   S    
O9    C41   S    
O7    Zn1   S    
C51   H44   S    
O4    Zn2   S    
C20   C24   A    
C19   H3    S    
C41   C42   S    
C47   H36   S    
C35   H9    S    
C50   H42   S    
C16   O6    A    
C5    C13   A    
C21   O12   S    
O6    Zn2   S    
C3    C31   A    
C52   H48   S    
C42   H24   S    
C34   C38   A    
C13   C14   S    
C27   C30   A    
C50   H43   S    
C10   N2    A    
C6    H14   S    
C43   H27   S    
C11   H19   S    
C1    O1    A    
C20   H4    S    
C2    O2    A    
C17   H1    S    
C44   H29   S    
C25   C29   A    
C41   H21   S    
C17   C27   A    
C36   C40   A    
C18   C28   A    
O10   C44   S    
C9    H17   S    
C43   H26   S    
C23   O10   S    
C46   H32   S    
C3    C34   A    
C16   C29   S    
O3    Zn1   S    
C33   C37   A    
C35   C39   A    
C5    C9    A    
C46   H33   S    
C12   N2    A    
C48   H37   S    
C45   C46   S    
C8    C12   A    
C15   O5    A    
C47   H35   S    
C1    O4    A    
C49   H40   S    
C51   C52   S    
C4    C32   A    
N1    Zn2   S    
C48   H38   S    
C45   H31   S    
C26   C30   A    
C21   C23   A    
C33   H7    S    
C50   C51   S    
C22   C24   A    
C34   H8    S    
C3    C4    S    
C36   H10   S    
C15   C30   S    
C52   H46   S    
C44   C45   S    
C15   O8    A    
C4    C33   A    
C8    C14   A    
C18   C22   A    
C32   H6    S    
C16   O7    A    
O1    Zn1   S    
C43   H25   S    
C11   N1    A    
C6    C10   A    
C25   C27   A    
C26   C28   A    
C46   H34   S    
C20   C26   A    
C31   C35   A    
N2    Zn1   S    
O5    Zn1   S    
O2    Zn2   S    
C49   H39   S    
C19   C25   A    
C51   H45   S    
C1    C39   S    
C12   H20   S    
C2    C40   S    
C7    C13   A    
C48   C49   S    
C38   H12   S    
C45   H30   S    
C31   H5    S    
O8    Zn2   S    
C52   H47   S    
C17   C21   A    
