data_mof_unit_31926.cif
_audit_creation_date              2013-03-05T16:01:05-0500
_audit_creation_method            fapswitch 2.2
_symmetry_space_group_name_H-M    P1
_symmetry_Int_Tables_number       1
_space_group_crystal_system       triclinic
_cell_length_a                    14.844006
_cell_length_b                    14.874376
_cell_length_c                    15.843357
_cell_angle_alpha                 74.535935
_cell_angle_beta                  102.635748
_cell_angle_gamma                 116.162826
_cell_volume                      3005.29756059

loop_
_atom_site_label
_atom_site_type_symbol
_atom_site_description
_atom_site_fract_x
_atom_site_fract_y
_atom_site_fract_z
_atom_type_partial_charge
O1    O     O_R   0.977900 0.338120 0.529810 -0.604428
O2    O     O_R   0.022100 0.661880 0.470190 -0.584952
O3    O     O_R   0.839850 0.379180 0.491620 -0.534450
O4    O     O_R   0.160150 0.620820 0.508380 -0.615548
C1    C     C_R   0.880089 0.312144 0.516742 0.827812
C2    C     C_R   0.120104 0.687833 0.484909 0.771164
O5    O     O_R   0.069010 0.479460 0.640020 -0.591788
O6    O     O_R   0.930990 0.520540 0.359980 -0.591620
O7    O     O_R   0.930960 0.520530 0.601820 -0.556522
O8    O     O_R   0.069040 0.479470 0.398180 -0.565828
C3    C     C_R   0.000554 0.500725 0.659681 0.831447
C4    C     C_R   0.000027 0.500234 0.340220 0.799818
Cu1   Cu    Cu3+1 0.081740 0.475690 0.522610 0.933174
Cu2   Cu    Cu3+1 0.918260 0.524310 0.477390 0.966334
C5    C     C_3   0.019144 0.423518 0.051485 -0.276125
C6    C     C_3   0.985694 0.585464 0.947330 -0.283958
C7    C     C_3   0.930538 0.418247 0.977056 0.057213
C8    C     C_3   0.074287 0.590762 0.021874 0.066238
H1    H     H_    0.032744 0.357378 0.094678 0.157739
H2    H     H_    0.972071 0.651561 0.904076 0.152375
C9    C     C_1   0.002509 0.503419 0.749022 -0.167946
C10   C     C_1   0.999989 0.500880 0.250452 -0.132933
C11   C     C_3   0.092675 0.511880 0.989654 0.041609
C12   C     C_3   0.912205 0.497151 0.009257 0.030385
C13   C     C_3   0.004453 0.505760 0.916099 0.108575
C14   C     C_3   0.000422 0.503189 0.082761 0.105160
C15   C     C_1   0.003984 0.505299 0.824384 0.001049
C16   C     C_1   0.999982 0.501722 0.174723 0.011568
C17   C     C_R   0.812134 0.203118 0.531348 -0.053017
C18   C     C_R   0.189785 0.796236 0.476684 -0.053164
C19   C     C_R   0.783141 0.025975 0.592481 0.055687
C20   C     C_R   0.225316 0.975886 0.459153 0.042496
C21   C     C_R   0.849441 0.128361 0.569884 -0.295260
C22   C     C_R   0.156210 0.873105 0.467445 -0.305594
C23   C     C_R   0.708220 0.174161 0.512476 -0.191051
C24   C     C_R   0.293261 0.821967 0.484795 -0.217818
C25   C     C_R   0.641337 0.071589 0.517814 0.012897
C26   C     C_R   0.363549 0.921631 0.487751 0.028061
C27   C     C_R   0.677815 0.995120 0.561313 0.105628
C28   C     C_R   0.329617 0.001077 0.457106 0.094288
C29   C     C_R   0.537691 0.044495 0.484556 0.024505
C30   C     C_R   0.467440 0.944505 0.515050 0.022157
C31   C     C_R   0.503954 0.872075 0.572252 -0.028722
C32   C     C_R   0.501376 0.113087 0.420501 -0.023958
C33   C     C_R   0.606689 0.892237 0.575944 -0.038325
C34   C     C_R   0.399120 0.097582 0.417127 -0.049187
H3    H     H_    0.319499 0.764746 0.485539 0.138371
H4    H     H_    0.679005 0.232097 0.496539 0.185520
H5    H     H_    0.076666 0.853034 0.467977 0.157236
H6    H     H_    0.929716 0.151027 0.590724 0.141732
N1    N     N_R   0.795440 0.560790 0.443380 -0.197316
N2    N     N_R   0.204560 0.439210 0.556620 -0.219333
C35   C     C_R   0.736835 0.694182 0.373521 -0.092594
C36   C     C_R   0.277353 0.318013 0.636255 -0.081762
C37   C     C_R   0.795443 0.640437 0.373854 0.183217
C38   C     C_R   0.203508 0.357731 0.624888 0.205973
C39   C     C_R   0.717917 0.516644 0.495944 0.101271
C40   C     C_R   0.284715 0.489404 0.506730 0.082516
C41   C     C_R   0.634973 0.545909 0.473363 -0.127482
C42   C     C_R   0.370758 0.464516 0.529558 -0.053620
C43   C     C_R   0.651526 0.643042 0.420192 0.119461
C44   C     C_R   0.358563 0.369703 0.585419 0.096020
C45   C     C_R   0.538702 0.484494 0.505314 0.068660
C46   C     C_R   0.466237 0.526431 0.495194 0.124408
C47   C     C_R   0.493486 0.629684 0.454438 -0.221589
C48   C     C_R   0.510189 0.380279 0.541949 -0.264598
C49   C     C_R   0.580603 0.684373 0.412783 -0.082407
C50   C     C_R   0.425112 0.325722 0.585500 -0.072320
H7    H     H_    0.591145 0.759728 0.375189 0.185131
H8    H     H_    0.410537 0.247298 0.617010 0.192133
H9    H     H_    0.448115 0.670108 0.453714 0.107740
H10   H     H_    0.553306 0.339447 0.537883 0.174894
C51   C     C_3   0.849946 0.320348 0.948253 -0.408657
C52   C     C_3   0.792118 0.244923 0.024764 -0.349401
C53   C     C_3   0.712310 0.147404 0.995391 -0.811363
H11   H     H_    0.656674 0.165214 0.942066 0.263802
H12   H     H_    0.748424 0.109150 0.971147 0.258388
H13   H     H_    0.671595 0.094235 0.052020 0.241932
H14   H     H_    0.845504 0.224801 0.079286 0.228045
H15   H     H_    0.754072 0.280357 0.050093 0.235103
H16   H     H_    0.796601 0.340669 0.893827 0.200450
H17   H     H_    0.887635 0.284469 0.922882 0.208298
C54   C     C_3   0.154659 0.688698 0.050792 -0.412298
C55   C     C_3   0.211801 0.764821 0.974134 -0.346946
C56   C     C_3   0.290758 0.862701 0.003479 -0.809419
H18   H     H_    0.253937 0.900184 0.027842 0.258597
H19   H     H_    0.346823 0.845551 0.056710 0.253735
H20   H     H_    0.331087 0.916241 0.946767 0.250519
H21   H     H_    0.250513 0.730330 0.948487 0.229719
H22   H     H_    0.157874 0.784339 0.919843 0.225612
H23   H     H_    0.116818 0.723917 0.076806 0.206665
H24   H     H_    0.208477 0.668563 0.104799 0.205230
C57   C     C_2   0.272240 0.552071 0.418868 0.412517
H25   H     H_    0.251554 0.615108 0.410307 0.075438
O9    O     O_2   0.286396 0.533500 0.353496 -0.548593
C58   C     C_2   0.729499 0.458007 0.586096 0.424631
H26   H     H_    0.726487 0.485751 0.641774 0.052671
O10   O     O_2   0.734703 0.375826 0.599348 -0.565176
C59   C     C_3   0.125239 0.307482 0.690297 -0.395408
C60   C     C_3   0.169558 0.343094 0.778701 -0.317140
C61   C     C_3   0.091872 0.290405 0.844776 -0.788785
H27   H     H_    0.068123 0.206406 0.857889 0.244313
H28   H     H_    0.125530 0.317584 0.907891 0.270443
H29   H     H_    0.024389 0.307918 0.818941 0.242980
H30   H     H_    0.236704 0.325721 0.807358 0.236745
H31   H     H_    0.194198 0.427072 0.768210 0.264122
H32   H     H_    0.056215 0.319214 0.666833 0.255005
H33   H     H_    0.096109 0.223197 0.701188 0.139327
C62   C     C_3   0.832676 0.655230 0.286822 -0.354555
C63   C     C_3   0.940438 0.737624 0.276174 -0.324292
C64   C     C_3   0.960816 0.769468 0.179913 -0.850001
H34   H     H_    0.949768 0.702158 0.154355 0.272971
H35   H     H_    0.909326 0.804637 0.138900 0.259522
H36   H     H_    0.040022 0.826358 0.174607 0.244829
H37   H     H_    0.952178 0.806078 0.300243 0.210011
H38   H     H_    0.997088 0.708671 0.314121 0.246129
H39   H     H_    0.821293 0.581860 0.273042 0.240575
H40   H     H_    0.780140 0.676769 0.232217 0.159628
C65   C     C_2   0.764091 0.800522 0.322000 0.313389
H41   H     H_    0.789334 0.822357 0.257501 0.080128
O11   O     O_2   0.764173 0.866923 0.353684 -0.517179
C66   C     C_2   0.271369 0.224347 0.703482 0.333834
H42   H     H_    0.202445 0.155168 0.705321 0.080758
O12   O     O_2   0.343636 0.224640 0.758107 -0.547018
C67   C     C_2   0.810776 0.490356 0.017871 0.328230
H43   H     H_    0.754925 0.486497 0.960375 0.081430
O13   O     O_2   0.790368 0.488935 0.088879 -0.557016
C68   C     C_2   0.194533 0.519487 0.981549 0.314747
H44   H     H_    0.249163 0.520748 0.039711 0.092800
O14   O     O_2   0.216785 0.524762 0.910178 -0.569194
C69   C     C_2   0.633830 0.805060 0.582665 0.421777
H45   H     H_    0.584822 0.727629 0.609775 0.055015
O15   O     O_2   0.708064 0.817688 0.551893 -0.521389
C70   C     C_2   0.365182 0.176954 0.360917 0.427896
H46   H     H_    0.412353 0.256973 0.362156 0.076864
O16   O     O_2   0.287896 0.154230 0.309446 -0.539959
C71   C     C_2   0.826732 0.960340 0.659385 0.430292
H47   H     H_    0.904567 0.972727 0.659730 0.056551
O17   O     O_2   0.778865 0.896809 0.718079 -0.555310
C72   C     C_2   0.186623 0.050598 0.463950 0.414740
H48   H     H_    0.107281 0.035375 0.443939 0.080868
O18   O     O_2   0.241247 0.126697 0.494857 -0.575771
C73   C     C_3   0.442414 0.783055 0.640405 -0.402932
C74   C     C_3   0.394590 0.816304 0.696758 -0.340407
C75   C     C_3   0.332938 0.725381 0.762641 -0.754986
H49   H     H_    0.271057 0.667256 0.727415 0.266120
H50   H     H_    0.382041 0.690119 0.808302 0.268670
H51   H     H_    0.298874 0.751472 0.801863 0.236673
H52   H     H_    0.455255 0.873869 0.733335 0.228490
H53   H     H_    0.343572 0.851513 0.655492 0.234930
H54   H     H_    0.385522 0.718110 0.610464 0.189281
H55   H     H_    0.492834 0.750999 0.688106 0.196647
C76   C     C_3   0.562233 0.186712 0.344123 -0.411124
C77   C     C_3   0.605417 0.134959 0.301243 -0.320205
C78   C     C_3   0.661048 0.208092 0.223241 -0.808198
H56   H     H_    0.608601 0.233027 0.171218 0.264573
H57   H     H_    0.724532 0.276149 0.245040 0.269367
H58   H     H_    0.692294 0.168623 0.194969 0.240398
H59   H     H_    0.659592 0.108633 0.349144 0.239300
H60   H     H_    0.542777 0.067340 0.277884 0.225413
H61   H     H_    0.513548 0.214600 0.290240 0.203924
H62   H     H_    0.622537 0.257128 0.363749 0.195223

loop_
_geom_bond_atom_site_label_1
_geom_bond_atom_site_label_2
_geom_bond_distance
_ccdc_geom_bond_type
C48   C50   1.381438 A    
C57   H25   1.076892 S    
C17   C21   1.396060 A    
C78   H57   1.111254 S    
C51   C52   1.531565 S    
C35   C37   1.415996 A    
C31   C73   1.534973 S    
C64   H34   1.111579 S    
C8    C14   1.537110 S    
O7    Cu2   1.926841 S    
C68   H44   1.084423 S    
C75   H49   1.111494 S    
C62   H39   1.102515 S    
C56   H18   1.111005 S    
O5    C3    1.305424 A    
C59   H33   1.108033 S    
C71   O17   1.221041 D    
C60   H30   1.110380 S    
C61   H27   1.110732 S    
C25   C29   1.420878 A    
O1    C1    1.310196 A    
C32   C76   1.542342 S    
C23   C25   1.397409 A    
C40   C57   1.479312 S    
C12   C14   1.537491 S    
C20   C72   1.482446 S    
Cu2   N1    2.048242 S    
C39   C41   1.424881 A    
C40   C42   1.429207 A    
C73   C74   1.538842 S    
C4    C10   1.419571 S    
C24   H3    1.077590 S    
C42   C44   1.408649 A    
C29   C30   1.415066 A    
O4    Cu1   1.924882 S    
C53   H12   1.111005 S    
C63   C64   1.527111 S    
C74   H53   1.107149 S    
C35   C43   1.410396 A    
C48   H10   1.079065 S    
C54   C55   1.531990 S    
C47   C49   1.388888 A    
C39   C58   1.480145 S    
C58   O10   1.218028 D    
C19   C21   1.399188 A    
N1    C39   1.382115 A    
C19   C71   1.483426 S    
O6    C4    1.305055 A    
C27   C33   1.415419 A    
C73   H54   1.105031 S    
C9    C15   1.196949 T    
C45   C48   1.402875 A    
C6    C12   1.547736 S    
C52   H15   1.110060 S    
Cu1   Cu2   2.726872 S    
C37   C62   1.523020 S    
C78   H58   1.109810 S    
C7    C51   1.529432 S    
O2    C2    1.313046 A    
C55   H22   1.111515 S    
C23   H4    1.077070 S    
C51   H16   1.111443 S    
C14   C16   1.452718 S    
C75   H50   1.110769 S    
C32   C34   1.422108 A    
C62   H40   1.112023 S    
C1    C17   1.469835 S    
C65   O11   1.220875 D    
N2    C40   1.382482 A    
C36   C38   1.418098 A    
C41   C43   1.409213 A    
C7    C12   1.540618 S    
C52   C53   1.525605 S    
C18   C22   1.399452 A    
C56   H19   1.111003 S    
C8    C11   1.540963 S    
C72   H48   1.085657 S    
O4    C2    1.308957 A    
C5    C14   1.546269 S    
C70   O16   1.221111 D    
C36   C44   1.403651 A    
O3    C1    1.311114 A    
C21   H6    1.084224 S    
C47   H9    1.079493 S    
C3    C9    1.420291 S    
C76   H61   1.108491 S    
C49   H7    1.079649 S    
C20   C22   1.405583 A    
C5    H1    1.110216 S    
C53   H11   1.110986 S    
C77   H60   1.111935 S    
C74   H52   1.111858 S    
C54   H24   1.111434 S    
C34   C70   1.486023 S    
Cu1   N2    2.048241 S    
C31   C33   1.409262 A    
C43   C49   1.406513 A    
C59   C60   1.536338 S    
C6    H2    1.110186 S    
C58   H26   1.085401 S    
C8    C54   1.529546 S    
C64   H35   1.110884 S    
C6    C8    1.552159 S    
C55   C56   1.525547 S    
O7    C3    1.305515 A    
C77   C78   1.526403 S    
O3    Cu2   1.924880 S    
O8    C4    1.305487 A    
C50   H8    1.082094 S    
C73   H55   1.110730 S    
C2    C18   1.470700 S    
C33   C69   1.491103 S    
C61   H29   1.110274 S    
C52   H14   1.111545 S    
C67   H43   1.084412 S    
C29   C32   1.433519 A    
O1    Cu1   1.935754 S    
C55   H21   1.109878 S    
C28   C34   1.421683 A    
C66   O12   1.221267 D    
C69   H45   1.083628 S    
C63   H38   1.101879 S    
C51   H17   1.111515 S    
C75   H51   1.109749 S    
C54   H23   1.111643 S    
C61   H28   1.109885 S    
C56   H20   1.110520 S    
C6    C13   1.546664 S    
C5    C7    1.551256 S    
C22   H5    1.084218 S    
O6    Cu2   1.928167 S    
C60   H31   1.111175 S    
C72   O18   1.221063 D    
C74   C75   1.526365 S    
C69   O15   1.221020 D    
O8    Cu1   1.926841 S    
C68   O14   1.219475 D    
C65   H41   1.083205 S    
C35   C65   1.491148 S    
C26   C30   1.415988 A    
C70   H46   1.085735 S    
C44   C50   1.404540 A    
C13   C15   1.453397 S    
C59   H32   1.083916 S    
C71   H47   1.085792 S    
C17   C23   1.391126 A    
C41   C45   1.432349 A    
C18   C24   1.394186 A    
C76   H62   1.104582 S    
C42   C46   1.439600 A    
C7    C13   1.537755 S    
C46   C47   1.406017 A    
C24   C26   1.392872 A    
C76   C77   1.539341 S    
C77   H59   1.108238 S    
C25   C27   1.422572 A    
C62   C63   1.538906 S    
C26   C28   1.413443 A    
C12   C67   1.498013 S    
C5    C11   1.547438 S    
C60   C61   1.527603 S    
C19   C27   1.431497 A    
C64   H36   1.110601 S    
N1    C37   1.385978 A    
C20   C28   1.429137 A    
C36   C66   1.491419 S    
O2    Cu2   1.935752 S    
C53   H13   1.110424 S    
C45   C46   1.426463 A    
O5    Cu1   1.928168 S    
C11   C13   1.537881 S    
C57   O9    1.221526 D    
C30   C31   1.433583 A    
C78   H56   1.110805 S    
C67   O13   1.220084 D    
C10   C16   1.196507 T    
C38   C59   1.526535 S    
C66   H42   1.084017 S    
C63   H37   1.110876 S    
N2    C38   1.389457 A    
C11   C68   1.497224 S    
