data_mof_unit_14851.cif
_audit_creation_date              2012-12-10T18:43:09-0500
_audit_creation_method            fapswitch 2.2
_symmetry_space_group_name_H-M    P1
_symmetry_Int_Tables_number       1
_space_group_crystal_system       triclinic
_cell_length_a                    10.712255
_cell_length_b                    9.842128
_cell_length_c                    10.720506
_cell_angle_alpha                 90.151027
_cell_angle_beta                  90.148211
_cell_angle_gamma                 89.223255
_cell_volume                      1130.16632692

loop_
_atom_site_label
_atom_site_type_symbol
_atom_type_description
_atom_site_fract_x
_atom_site_fract_y
_atom_site_fract_z
_atom_type_partial_charge
C1    C     C_R   0.259736 0.501663 0.500593 0.925484
C2    C     C_R   0.739784 0.499431 0.496151 0.928703
C3    C     C_R   0.502953 0.499620 0.262334 0.972717
C4    C     C_R   0.504259 0.499844 0.737301 0.925985
C5    C     C_2   0.557573 0.396523 0.933890 0.205541
C6    C     C_2   0.518615 0.386309 0.062527 0.245200
C7    C     C_2   0.502643 0.497579 0.869205 -0.445814
C8    C     C_2   0.530675 0.498198 0.132669 -0.416449
C9    C     C_R   0.064848 0.396987 0.554213 -0.263359
C10   C     C_R   0.937127 0.395290 0.552310 -0.272058
C11   C     C_R   0.871984 0.500314 0.493149 -0.183774
C12   C     C_R   0.126822 0.507037 0.502529 -0.212087
C13   C     C_R   0.932527 0.610417 0.437565 0.421814
C14   C     C_R   0.061174 0.619090 0.450688 0.432572
C15   C     C_R   0.566075 0.071617 0.587479 -0.220561
C16   C     C_R   0.434649 0.072967 0.412024 -0.222720
C17   C     C_R   0.563936 0.926855 0.590074 0.477424
C18   C     C_R   0.437184 0.928323 0.409334 0.469858
H1    H     H_    0.442671 0.573213 0.914117 0.130078
H2    H     H_    0.572018 0.589622 0.094556 0.128672
H3    H     H_    0.115210 0.313104 0.597365 0.183852
H4    H     H_    0.889282 0.311665 0.596139 0.178110
H5    H     H_    0.620986 0.127012 0.654751 0.167817
H6    H     H_    0.380418 0.129220 0.343962 0.182680
N1    N     N_R   0.500000 0.857200 0.500000 -0.167579
N2    N     N_R   0.500000 0.142810 0.500000 -0.114366
O1    O     O_R   0.316770 0.614620 0.499990 -0.574114
O2    O     O_R   0.683230 0.614620 0.500010 -0.577318
O3    O     O_R   0.316800 0.385290 0.500000 -0.628855
O4    O     O_R   0.683200 0.385290 0.500000 -0.640268
O5    O     O_R   0.500000 0.614630 0.319080 -0.580634
O6    O     O_R   0.500000 0.614630 0.680920 -0.585157
O7    O     O_R   0.500030 0.385300 0.319080 -0.588803
O8    O     O_R   0.499970 0.385300 0.680920 -0.618220
Zn1   Zn    Zn3+2 0.500000 0.653120 0.500000 1.022551
Zn2   Zn    Zn3+2 0.500000 0.346880 0.500000 0.945793
N3    N     N_2   0.646585 0.302486 0.880549 -0.300499
H7    H     H_    0.687865 0.334340 0.799126 0.236056
C19   C     C_3   0.737420 0.241892 0.964743 -0.837275
H8    H     H_    0.801653 0.174029 0.911423 0.235595
H9    H     H_    0.691158 0.179376 0.036523 0.244800
H10   H     H_    0.793195 0.322367 0.010593 0.256946
N4    N     N_2   0.450811 0.270022 0.101982 -0.283600
H11   H     H_    0.475058 0.182572 0.054223 0.217113
C20   C     C_3   0.316595 0.290510 0.102981 -0.783520
H12   H     H_    0.270714 0.197717 0.137922 0.227546
H13   H     H_    0.281969 0.311689 0.007038 0.235165
H14   H     H_    0.289838 0.376271 0.165352 0.250297
O9    O     O_3   0.869321 0.691487 0.351467 -0.596309
C21   C     C_3   0.841874 0.821417 0.401388 -0.196394
H15   H     H_    0.834708 0.823622 0.505083 0.159658
H16   H     H_    0.911771 0.895320 0.368911 0.172087
H17   H     H_    0.750080 0.855832 0.364080 0.166648
O10   O     O_3   0.122388 0.729358 0.400686 -0.544929
C22   C     C_3   0.128073 0.834458 0.491361 -0.205960
H18   H     H_    0.132515 0.933435 0.442398 0.178317
H19   H     H_    0.213644 0.824903 0.549019 0.180455
H20   H     H_    0.046574 0.839104 0.555506 0.084237
O11   O     O_3   0.633605 0.853894 0.676490 -0.582845
C23   C     C_3   0.596950 0.890049 0.798706 -0.318960
H21   H     H_    0.633109 0.811357 0.863871 0.192101
H22   H     H_    0.493455 0.893782 0.809294 0.150290
H23   H     H_    0.638365 0.988198 0.827146 0.169079
O12   O     O_3   0.369757 0.857392 0.321064 -0.536679
C24   C     C_3   0.416579 0.884759 0.200942 -0.272088
H24   H     H_    0.520454 0.877166 0.197289 0.139686
H25   H     H_    0.383880 0.985718 0.167864 0.141462
H26   H     H_    0.379552 0.807829 0.135210 0.188805

loop_
_geom_bond_atom_site_label_1
_geom_bond_atom_site_label_2
_ccdc_geom_bond_type
C21   H16   S    
N4    H11   S    
C15   C17   A    
N3    H7    S    
C5    N3    S    
C11   C13   A    
C9    C10   A    
C16   H6    S    
C7    H1    S    
O4    Zn2   S    
C22   H18   S    
C24   H26   S    
C17   N1    A    
O12   C24   S    
C1    O3    A    
C21   H15   S    
O11   C23   S    
C19   H9    S    
C16   C18   A    
C8    H2    S    
C13   C14   A    
C10   H4    S    
C3    O5    A    
N4    C20   S    
O3    Zn2   S    
C9    H3    S    
C4    O6    A    
C18   N1    A    
O1    Zn1   S    
C17   O11   S    
C23   H23   S    
C13   O9    S    
C2    C11   S    
C23   H22   S    
C14   O10   S    
N1    Zn1   S    
O9    C21   S    
C19   H10   S    
O8    Zn2   S    
C6    N4    S    
C22   H19   S    
C4    O8    A    
C16   N2    A    
C5    C6    S    
N3    C19   S    
C9    C12   A    
O5    Zn1   S    
C3    C8    S    
C21   H17   S    
C2    O2    A    
C10   C11   A    
C15   H5    S    
C18   O12   S    
O6    Zn1   S    
O7    Zn2   S    
C20   H13   S    
C1    O1    A    
C24   H24   S    
C22   H20   S    
N2    Zn2   S    
C19   H8    S    
C5    C7    D    
C3    O7    A    
O10   C22   S    
C15   N2    A    
C6    C8    D    
C20   H14   S    
C4    C7    S    
C20   H12   S    
C1    C12   S    
C2    O4    A    
O2    Zn1   S    
C12   C14   A    
C23   H21   S    
C24   H25   S    
