data_mof_unit_65382.cif
_audit_creation_date              2012-12-10T19:37:32-0500
_audit_creation_method            fapswitch 2.2
_symmetry_space_group_name_H-M    P1
_symmetry_Int_Tables_number       1
_space_group_crystal_system       triclinic
_cell_length_a                    13.895264
_cell_length_b                    15.798141
_cell_length_c                    17.045287
_cell_angle_alpha                 96.556596
_cell_angle_beta                  90.005866
_cell_angle_gamma                 82.631874
_cell_volume                      3686.20077103

loop_
_atom_site_label
_atom_site_type_symbol
_atom_type_description
_atom_site_fract_x
_atom_site_fract_y
_atom_site_fract_z
_atom_type_partial_charge
C1    C     C_R   0.497112 0.510813 0.651562 0.849175
C2    C     C_R   0.536004 0.833802 0.449740 -0.136338
C3    C     C_R   0.524933 0.107996 0.494689 0.323367
C4    C     C_R   0.475051 0.891883 0.504142 0.322345
C5    C     C_R   0.578290 0.143325 0.439355 -0.274818
C6    C     C_R   0.420495 0.856902 0.558899 -0.267875
C7    C     C_R   0.570756 0.232762 0.438007 0.060909
C8    C     C_R   0.427990 0.767566 0.560781 0.058512
C9    C     C_R   0.316152 0.513509 0.500676 0.878822
C10   C     C_R   0.683852 0.486494 0.499334 0.814425
C11   C     C_1   0.787225 0.478617 0.498819 -0.151249
C12   C     C_R   0.498400 0.489402 0.348281 0.827654
C13   C     C_1   0.212795 0.521422 0.501400 -0.122895
C14   C     C_2   0.978111 0.464730 0.497805 -0.143011
C15   C     C_2   0.021918 0.535378 0.502741 -0.147761
C16   C     C_1   0.125747 0.528250 0.502056 0.028214
C17   C     C_1   0.874279 0.471834 0.498343 0.019817
C18   C     C_R   0.496395 0.517262 0.738068 -0.099645
C19   C     C_R   0.499681 0.482837 0.261455 -0.109222
C20   C     C_R   0.554377 0.453717 0.774065 -0.239854
C21   C     C_R   0.537756 0.547321 0.225591 -0.231989
C22   C     C_R   0.560766 0.459370 0.855793 -0.137311
C23   C     C_R   0.453136 0.593690 0.867599 -0.215404
C24   C     C_R   0.546220 0.542016 0.143934 -0.138792
C25   C     C_R   0.509475 0.529390 0.903100 0.353691
C26   C     C_R   0.517372 0.471371 0.096286 0.352505
C27   C     C_2   0.370891 0.650514 0.751990 0.847073
C28   C     C_2   0.418694 0.345439 0.245209 0.864410
C29   C     C_2   0.587371 0.861506 0.382685 0.854300
C30   C     C_2   0.414913 0.137495 0.617493 0.858950
C31   C     C_R   0.481391 0.406073 0.131385 -0.213983
C32   C     C_R   0.443137 0.587329 0.785417 -0.040587
C33   C     C_R   0.468962 0.411895 0.213427 -0.052884
C34   C     C_R   0.458457 0.254925 0.544703 0.017936
C35   C     C_R   0.542598 0.744736 0.455758 0.009945
C36   C     C_R   0.465105 0.165756 0.550117 -0.142403
Cu1   Cu    Cu3+1 0.495370 0.585120 0.503830 0.977599
Cu2   Cu    Cu3+1 0.504630 0.414880 0.496170 0.987459
H1    H     H_    0.980110 0.598822 0.507249 0.166702
H2    H     H_    0.413650 0.299596 0.586733 0.175397
H3    H     H_    0.626169 0.101428 0.397334 0.181714
H4    H     H_    0.371677 0.899005 0.600069 0.185374
H5    H     H_    0.613326 0.258753 0.395637 0.139477
H6    H     H_    0.384374 0.741990 0.602544 0.156468
H7    H     H_    0.264582 0.671892 0.673166 0.326439
H8    H     H_    0.398306 0.220626 0.237642 0.346325
H9    H     H_    0.702753 0.838862 0.307892 0.341908
H10   H     H_    0.300849 0.159630 0.693604 0.344900
H11   H     H_    0.019927 0.401288 0.493278 0.170116
H12   H     H_    0.562442 0.601669 0.260871 0.171621
H13   H     H_    0.596006 0.400020 0.738742 0.168792
H14   H     H_    0.575962 0.592723 0.118061 0.165060
H15   H     H_    0.606165 0.409434 0.882001 0.163771
H16   H     H_    0.412376 0.646409 0.904828 0.178696
H17   H     H_    0.457952 0.352628 0.093843 0.181522
H18   H     H_    0.588160 0.699827 0.414435 0.167278
N1    N     N_2   0.510026 0.535950 0.986579 -0.245323
N2    N     N_2   0.520674 0.464892 0.012815 -0.245212
N3    N     N_R   0.511590 0.287020 0.490400 -0.178845
N4    N     N_R   0.488410 0.712980 0.509600 -0.182802
N5    N     N_2   0.538290 0.016193 0.495038 -0.175212
N6    N     N_2   0.461836 0.983655 0.503479 -0.175991
O1    O     O_R   0.495670 0.579790 0.617520 -0.566018
O2    O     O_R   0.313154 0.623567 0.689135 -0.774685
O3    O     O_2   0.358176 0.365628 0.298388 -0.579857
O4    O     O_R   0.437511 0.259899 0.211619 -0.754587
O5    O     O_2   0.551565 0.922803 0.349993 -0.564371
O6    O     O_R   0.675245 0.814722 0.354455 -0.774313
O7    O     O_2   0.451207 0.075720 0.649305 -0.562093
O8    O     O_R   0.327586 0.184222 0.646985 -0.765453
O9    O     O_R   0.504330 0.420210 0.382480 -0.563518
O10   O     O_R   0.503490 0.436020 0.611040 -0.596696
O11   O     O_R   0.496510 0.563980 0.388960 -0.596000
O12   O     O_R   0.357690 0.582040 0.503680 -0.571840
O13   O     O_R   0.642310 0.417960 0.496320 -0.582035
O14   O     O_R   0.365510 0.438280 0.497200 -0.556894
O15   O     O_R   0.634490 0.561720 0.502800 -0.574827
O16   O     O_2   0.359034 0.725491 0.781434 -0.586073

loop_
_geom_bond_atom_site_label_1
_geom_bond_atom_site_label_2
_ccdc_geom_bond_type
C2    C35   A    
C24   H14   S    
Cu1   O12   S    
C28   O4    S    
C27   O16   D    
Cu2   O14   S    
C1    C18   S    
C2    C29   S    
C34   H2    S    
C19   C21   A    
C24   C26   A    
H8    O4    S    
C20   H13   S    
C14   H11   S    
C15   C16   S    
C4    N6    S    
C9    C13   S    
C5    H3    S    
C30   O8    S    
C29   O5    D    
C22   C25   A    
C31   C33   A    
C9    O14   A    
C7    H5    S    
C34   C36   A    
C35   H18   S    
C26   C31   A    
C12   O11   A    
C14   C17   S    
C25   N1    S    
C1    O1    A    
C7    N3    A    
C21   H12   S    
Cu1   O1    S    
C10   O15   A    
C22   H15   S    
Cu2   O13   S    
C3    N5    S    
Cu2   O10   S    
C1    O10   A    
C4    C6    A    
C27   O2    S    
C5    C7    A    
C6    C8    A    
Cu1   O15   S    
C35   N4    A    
C2    C4    A    
Cu1   Cu2   S    
C29   O6    S    
C10   O13   A    
C26   N2    S    
C15   H1    S    
C12   O9    A    
C20   C22   A    
C28   C33   S    
C19   C33   A    
C34   N3    A    
C13   C16   T    
C18   C32   A    
C9    O12   A    
H9    O6    S    
C30   O7    D    
C23   H16   S    
Cu1   O11   S    
Cu2   O9    S    
C11   C17   T    
C27   C32   S    
C8    H6    S    
H10   O8    S    
C3    C5    A    
H7    O2    S    
C30   C36   S    
C23   C32   A    
C28   O3    D    
C8    N4    A    
N1    N2    D    
C3    C36   A    
C12   C19   S    
C18   C20   A    
C23   C25   A    
N5    N6    D    
Cu1   N4    S    
C10   C11   S    
Cu2   N3    S    
C6    H4    S    
C21   C24   A    
C14   C15   D    
C31   H17   S    
