data_mof_unit_23257.cif
_audit_creation_date              2012-12-10T16:44:45-0500
_audit_creation_method            fapswitch 2.2
_symmetry_space_group_name_H-M    P1
_symmetry_Int_Tables_number       1
_space_group_crystal_system       triclinic
_cell_length_a                    14.975248
_cell_length_b                    8.674987
_cell_length_c                    7.470374
_cell_angle_alpha                 102.781226
_cell_angle_beta                  94.331707
_cell_angle_gamma                 93.012948
_cell_volume                      941.329371216

loop_
_atom_site_label
_atom_site_type_symbol
_atom_type_description
_atom_site_fract_x
_atom_site_fract_y
_atom_site_fract_z
_atom_type_partial_charge
C1    C     C_R   0.497260 0.199851 0.453382 0.877635
C2    C     C_R   0.502732 0.800148 0.546618 0.877811
C3    C     C_R   0.031702 0.212551 0.353574 -0.044080
C4    C     C_R   0.968623 0.783514 0.658528 0.004684
C5    C     C_2   0.495976 0.031921 0.427198 -0.353804
C6    C     C_2   0.504003 0.968078 0.572803 -0.358820
C7    C     C_R   0.329126 0.497495 0.501802 0.800210
C8    C     C_R   0.670842 0.502554 0.498265 0.795316
C9    C     C_R   0.819908 0.641306 0.571016 -0.154385
C10   C     C_R   0.179647 0.360786 0.418891 -0.175105
C11   C     C_R   0.766976 0.503103 0.494511 -0.060734
C12   C     C_R   0.232943 0.495981 0.506371 -0.064700
C13   C     C_R   0.804920 0.363430 0.422128 -0.212127
C14   C     C_R   0.195326 0.631301 0.594789 -0.194892
C15   C     C_R   0.898373 0.358443 0.423125 0.047386
C16   C     C_R   0.101863 0.638358 0.587318 0.043677
C17   C     C_R   0.953283 0.499262 0.503967 0.032482
C18   C     C_R   0.046947 0.497307 0.507113 0.033313
C19   C     C_R   0.913905 0.642307 0.580293 0.083026
C20   C     C_R   0.086294 0.354926 0.427597 0.081485
C21   C     C_R   0.937274 0.215015 0.350182 -0.109524
C22   C     C_R   0.063070 0.782286 0.659648 -0.070514
Cu1   Cu    Cu3+1 0.510010 0.517380 0.684380 0.972723
Cu2   Cu    Cu3+1 0.489990 0.482620 0.315620 0.972165
H1    H     H_    0.785804 0.747022 0.620703 0.173118
H2    H     H_    0.212896 0.261541 0.345689 0.186051
H3    H     H_    0.759810 0.259070 0.369351 0.116329
H4    H     H_    0.240705 0.731108 0.664632 0.121468
H5    H     H_    0.488429 0.960482 0.286854 0.182365
H6    H     H_    0.511549 0.039516 0.713147 0.181642
H7    H     H_    0.429772 0.376883 0.948880 0.230955
H8    H     H_    0.570227 0.623119 0.051120 0.231827
N1    N     N_2   0.474890 0.456420 0.038520 -0.213744
N2    N     N_2   0.525110 0.543580 0.961480 -0.213219
O1    O     O_R   0.506510 0.286130 0.619770 -0.584349
O2    O     O_R   0.493490 0.713870 0.380230 -0.583002
O3    O     O_R   0.489600 0.256770 0.308360 -0.586360
O4    O     O_R   0.510400 0.743230 0.691640 -0.585964
O5    O     O_R   0.378710 0.514640 0.655720 -0.583682
O6    O     O_R   0.621290 0.485360 0.344280 -0.583692
O7    O     O_R   0.361800 0.485290 0.344300 -0.570411
O8    O     O_R   0.638200 0.514710 0.655700 -0.568256
C23   C     C_2   0.878637 0.067351 0.270649 0.354237
H9    H     H_    0.819503 0.070480 0.178746 0.131420
O9    O     O_2   0.894954 0.941613 0.309405 -0.574261
C24   C     C_2   0.121682 0.932078 0.730673 0.360744
H10   H     H_    0.181882 0.954037 0.665763 0.131840
O10   O     O_2   0.104209 0.032303 0.863262 -0.586385
C25   C     C_2   0.071084 0.060297 0.274714 0.461628
H11   H     H_    0.037765 0.980226 0.152860 0.165562
O11   O     O_2   0.137774 0.018382 0.349723 -0.598729
C26   C     C_2   0.928099 0.935287 0.731557 0.440693
H12   H     H_    0.949516 0.041807 0.688277 0.126743
O12   O     O_2   0.873945 0.944096 0.846815 -0.587799

loop_
_geom_bond_atom_site_label_1
_geom_bond_atom_site_label_2
_ccdc_geom_bond_type
Cu1   Cu2   S    
H7    N1    S    
C10   C20   A    
Cu1   O4    S    
C4    C22   A    
C2    O4    A    
Cu1   O1    S    
Cu2   N1    S    
C1    C5    S    
C8    O8    A    
C1    O3    A    
C23   H9    S    
Cu1   N2    S    
C10   H2    S    
C13   C15   A    
Cu2   O3    S    
C3    C25   S    
C5    H5    S    
C9    H1    S    
C3    C20   A    
C2    C6    S    
C6    H6    S    
Cu2   O7    S    
C23   O9    D    
C9    C11   A    
Cu2   O2    S    
Cu1   O8    S    
C10   C12   A    
C4    C26   S    
C8    C11   S    
Cu1   O5    S    
Cu2   O6    S    
C26   O12   D    
C17   C18   A    
C18   C20   A    
C7    O7    A    
C5    C6    D    
C14   C16   A    
C7    C12   S    
C3    C21   A    
C11   C13   A    
C17   C19   A    
C22   C24   S    
C24   O10   D    
C15   C21   A    
N1    N2    D    
C26   H12   S    
C1    O1    A    
C16   C18   A    
C25   H11   S    
C2    O2    A    
C15   C17   A    
C7    O5    A    
C24   H10   S    
C13   H3    S    
C16   C22   A    
C8    O6    A    
C14   H4    S    
C21   C23   S    
C4    C19   A    
C9    C19   A    
C12   C14   A    
C25   O11   D    
H8    N2    S    
