data_mof_unit_26965.cif
_audit_creation_date              2012-12-11T14:15:46-0500
_audit_creation_method            fapswitch 2.2
_symmetry_space_group_name_H-M    P1
_symmetry_Int_Tables_number       1
_space_group_crystal_system       triclinic
_cell_length_a                    11.157272
_cell_length_b                    12.720018
_cell_length_c                    23.491267
_cell_angle_alpha                 90.614191
_cell_angle_beta                  96.831841
_cell_angle_gamma                 68.59433
_cell_volume                      3079.95631511

loop_
_atom_site_label
_atom_site_type_symbol
_atom_type_description
_atom_site_fract_x
_atom_site_fract_y
_atom_site_fract_z
_atom_type_partial_charge
Br1   Br    Br    0.868529 0.130885 0.734186 -0.556930
Br2   Br    Br    0.042643 0.883088 0.628526 -0.484324
C1    C     C_R   0.149567 0.616734 0.428910 0.545811
C2    C     C_2   0.180707 0.233227 0.226605 -0.121017
C3    C     C_2   0.155183 0.165325 0.262732 -0.119761
C4    C     C_R   0.750127 0.603697 0.403778 0.541573
C5    C     C_1   0.132258 0.198707 0.320571 -0.042587
C6    C     C_1   0.210245 0.197881 0.169681 -0.045790
C7    C     C_1   0.115981 0.231843 0.368413 0.004176
C8    C     C_1   0.167405 0.749918 0.123678 -0.003667
C9    C     C_2   0.142649 0.688941 0.228009 -0.124622
C10   C     C_2   0.236809 0.676405 0.271592 -0.124856
C11   C     C_1   0.218241 0.652694 0.329271 -0.044969
C12   C     C_R   0.668835 0.553945 0.309727 -0.128429
C13   C     C_1   0.155163 0.720819 0.170763 -0.046647
C14   C     C_1   0.194172 0.635015 0.376246 0.002171
C15   C     C_1   0.628970 0.756784 0.865105 0.005523
C16   C     C_R   0.101146 0.282153 0.423399 0.550310
C17   C     C_2   0.699974 0.714170 0.761130 -0.110737
C18   C     C_2   0.614909 0.700232 0.719205 -0.104595
C19   C     C_1   0.652609 0.668343 0.663022 -0.026028
C20   C     C_1   0.664687 0.738395 0.818266 -0.036658
C21   C     C_1   0.690902 0.639424 0.617348 0.015183
C22   C     C_R   0.194642 0.186710 0.856455 0.000007
C23   C     C_R   0.714193 0.727199 0.317645 -0.126021
C24   C     C_R   0.103605 0.241098 0.643848 -0.013518
C25   C     C_R   0.003975 0.179731 0.716483 0.168243
C26   C     C_R   0.011558 0.198761 0.658875 -0.065124
C27   C     C_R   0.184243 0.269115 0.686288 -0.125998
C28   C     C_R   0.151838 0.617735 0.590223 0.561197
C29   C     C_R   0.176963 0.252235 0.743360 0.016325
C30   C     C_R   0.090449 0.202559 0.759167 0.054328
C31   C     C_R   0.099221 0.171148 0.816656 -0.100222
C32   C     C_R   0.266307 0.250167 0.841378 -0.120542
C33   C     C_R   0.258098 0.282231 0.784745 -0.122671
C34   C     C_R   0.706681 0.735058 0.258083 0.039717
C35   C     C_R   0.129292 0.751796 0.850082 0.002220
C36   C     C_R   0.199439 0.641111 0.647881 0.018369
C37   C     C_R   0.303878 0.560875 0.742180 -0.154346
C38   C     C_R   0.292568 0.552911 0.682760 -0.166425
C39   C     C_R   0.126630 0.741783 0.672915 0.159090
C40   C     C_R   0.749811 0.602291 0.566009 0.545310
C41   C     C_R   0.120658 0.740208 0.731695 0.052854
C42   C     C_R   0.213998 0.651697 0.766958 0.015089
C43   C     C_R   0.218551 0.658432 0.826351 -0.122476
C44   C     C_R   0.024137 0.828205 0.814697 -0.129802
C45   C     C_R   0.688936 0.647125 0.225272 0.041366
C46   C     C_R   0.021290 0.823643 0.755821 -0.099763
C47   C     C_R   0.265774 0.110166 0.069394 0.541795
C48   C     C_R   0.601329 0.774443 0.080896 0.542970
C49   C     C_R   0.189570 0.787818 0.069776 0.544184
C50   C     C_R   0.240215 0.116701 0.908533 0.545002
C51   C     C_R   0.573972 0.776441 0.918221 0.547555
C52   C     C_R   0.099163 0.280968 0.585870 0.552280
C53   C     C_R   0.163949 0.786794 0.906893 0.545694
C54   C     C_R   0.672347 0.752576 0.138587 0.005930
C55   C     C_R   0.700389 0.633983 0.343679 0.008693
C56   C     C_R   0.684427 0.652008 0.166485 -0.118469
C57   C     C_R   0.666969 0.558697 0.250999 -0.143046
C58   C     C_R   0.694577 0.839135 0.170515 -0.131538
C59   C     C_R   0.715946 0.828597 0.230414 -0.138626
C60   C     C_1   0.235697 0.162905 0.122925 -0.001205
Cr1   Cr    Cr6+3 0.189770 0.415650 0.511620 1.041028
Cr2   Cr    Cr6+3 0.930400 0.667320 0.496770 1.071083
Cr3   Cr    Cr6+3 0.879870 0.417010 0.491650 1.042307
Cr4   Cr    Cr6+3 0.149500 0.973980 0.985330 1.035201
Cr5   Cr    Cr6+3 0.457000 0.976510 0.994660 1.033867
Cr6   Cr    Cr6+3 0.411170 0.724270 0.995270 1.024777
H1    H     H_    0.671812 0.582768 0.142346 0.133461
H2    H     H_    0.297275 0.596427 0.853658 0.126067
H3    H     H_    0.686758 0.917263 0.149641 0.136315
H4    H     H_    0.950827 0.898341 0.832214 0.166885
H5    H     H_    0.376971 0.493068 0.768662 0.120169
H6    H     H_    0.941729 0.886149 0.729525 0.208413
H7    H     H_    0.352073 0.475834 0.664354 0.143750
H8    H     H_    0.648627 0.493079 0.225743 0.111620
H9    H     H_    0.730252 0.896631 0.254912 0.115246
H10   H     H_    0.655979 0.482114 0.328692 0.145553
H11   H     H_    0.736610 0.790227 0.343561 0.127672
H12   H     H_    0.053022 0.679006 0.235498 0.142026
H13   H     H_    0.154429 0.083452 0.249469 0.139532
H14   H     H_    0.182319 0.314746 0.240067 0.138068
H15   H     H_    0.326069 0.687359 0.264456 0.142507
H16   H     H_    0.517891 0.709108 0.727402 0.149503
H17   H     H_    0.797431 0.704224 0.753138 0.141049
H18   H     H_    0.043118 0.123601 0.829375 0.174971
H19   H     H_    0.337491 0.265666 0.872408 0.134107
H20   H     H_    0.321418 0.323489 0.772874 0.112667
H21   H     H_    0.943633 0.183453 0.626005 0.179753
H22   H     H_    0.250660 0.307930 0.675095 0.141104
O1    O     O_R   0.196340 0.303200 0.448500 -0.501029
O2    O     O_R   0.555390 0.700940 0.062700 -0.521425
O3    O     O_R   0.295020 0.731920 0.049950 -0.495322
O4    O     O_R   0.199310 0.519670 0.454880 -0.495062
O5    O     O_R   0.094290 0.884230 0.921550 -0.514414
O6    O     O_R   0.168980 0.069410 0.926940 -0.502457
O7    O     O_R   0.358400 0.089990 0.927950 -0.510986
O8    O     O_R   0.544850 0.873850 0.939920 -0.489080
O9    O     O_R   0.536020 0.701900 0.936430 -0.509275
O10   O     O_R   0.277070 0.732810 0.932890 -0.502899
O11   O     O_3   0.339220 0.891590 0.991750 -0.247228
O12   O     O_R   0.811960 0.658090 0.547150 -0.484837
O13   O     O_R   0.045660 0.691380 0.441680 -0.500868
O14   O     O_R   0.811930 0.659460 0.430950 -0.504088
O15   O     O_R   0.757900 0.507620 0.421760 -0.518477
O16   O     O_R   0.988630 0.322990 0.439840 -0.493407
O17   O     O_R   0.196380 0.301720 0.573850 -0.511489
O18   O     O_R   0.199350 0.518300 0.571080 -0.515120
O19   O     O_R   0.045700 0.689900 0.567030 -0.454327
O20   O     O_R   0.757930 0.506140 0.547110 -0.504102
O21   O     O_R   0.988670 0.321620 0.556040 -0.498417
O22   O     O_3   0.000020 0.499990 0.500010 -0.262051
O23   O     O_R   0.113660 0.883270 0.047820 -0.506848
O24   O     O_R   0.186930 0.068530 0.043990 -0.495275
O25   O     O_R   0.377770 0.089040 0.054220 -0.511594
O26   O     O_R   0.562800 0.872960 0.056970 -0.500186

loop_
_geom_bond_atom_site_label_1
_geom_bond_atom_site_label_2
_ccdc_geom_bond_type
C22   C50   S    
Cr2   O13   S    
Cr4   O23   S    
C17   C18   D    
Cr4   O11   S    
C2    C6    S    
C16   O16   A    
C51   O9    A    
Cr2   O12   S    
C12   C57   A    
Cr1   O4    S    
C49   O23   A    
C21   C40   S    
C52   O17   A    
C16   O1    A    
C8    C13   T    
Cr2   O22   S    
Br2   C39   S    
C40   O12   A    
C50   O7    A    
C28   C36   S    
C34   C45   A    
Cr2   O14   S    
C32   C33   A    
Cr1   O22   S    
Cr5   O25   S    
Cr3   O21   S    
Cr5   O8    S    
C9    C13   S    
C59   H9    S    
C53   O10   A    
C26   H21   S    
C4    O14   A    
C41   C46   A    
C44   H4    S    
C35   C44   A    
C12   H10   S    
C47   O24   A    
C25   C30   A    
C39   C41   A    
C4    C55   S    
C23   C55   A    
C8    C49   S    
C24   C52   S    
Cr3   O15   S    
C27   H22   S    
C44   C46   A    
C28   O19   A    
C46   H6    S    
C17   C20   S    
Cr6   O11   S    
C36   C39   A    
C53   O5    A    
C37   C38   A    
C3    C5    S    
C58   H3    S    
C22   C32   A    
C54   C58   A    
C10   H15   S    
C58   C59   A    
Cr5   O26   S    
Cr6   O10   S    
Cr3   O22   S    
C22   C31   A    
C3    H13   S    
C33   H20   S    
C29   C30   A    
C10   C11   S    
C49   O3    A    
C48   O2    A    
C47   O25   A    
C18   H16   S    
C41   C42   A    
C29   C33   A    
Cr1   O17   S    
C34   C59   A    
C15   C51   S    
Cr3   O16   S    
C42   C43   A    
Cr5   O11   S    
Cr4   O6    S    
C1    O13   A    
C5    C7    T    
C12   C55   A    
C47   C60   S    
Cr4   O24   S    
C28   O18   A    
C43   H2    S    
C23   H11   S    
C15   C20   T    
C2    C3    D    
C17   H17   S    
C9    C10   D    
C56   H1    S    
C37   C42   A    
C51   O8    A    
C24   C26   A    
Cr6   O3    S    
C38   H7    S    
C30   C31   A    
C19   C21   T    
C40   O20   A    
Cr6   O9    S    
C27   C29   A    
C45   C56   A    
C36   C38   A    
Cr2   O19   S    
Cr6   O2    S    
C4    O15   A    
C54   C56   A    
C52   O21   A    
C50   O6    A    
C1    O4    A    
C48   O26   A    
C32   H19   S    
C37   H5    S    
C48   C54   S    
Cr3   O20   S    
C9    H12   S    
Cr5   O7    S    
C23   C34   A    
C45   C57   A    
C35   C53   S    
C7    C16   S    
C2    H14   S    
C18   C19   S    
C24   C27   A    
C11   C14   T    
Cr1   O1    S    
C25   C26   A    
Br1   C25   S    
Cr1   O18   S    
C35   C43   A    
C57   H8    S    
C31   H18   S    
C1    C14   S    
C6    C60   T    
Cr4   O5    S    
