data_mof_unit_57472.cif
_audit_creation_date              2012-12-10T18:13:34-0500
_audit_creation_method            fapswitch 2.2
_symmetry_space_group_name_H-M    P1
_symmetry_Int_Tables_number       1
_space_group_crystal_system       triclinic
_cell_length_a                    12.621681
_cell_length_b                    13.092088
_cell_length_c                    16.645544
_cell_angle_alpha                 90.080913
_cell_angle_beta                  98.117948
_cell_angle_gamma                 97.867018
_cell_volume                      2696.78542688

loop_
_atom_site_label
_atom_site_type_symbol
_atom_type_description
_atom_site_fract_x
_atom_site_fract_y
_atom_site_fract_z
_atom_type_partial_charge
C1    C     C_R   0.558501 0.689704 0.520889 0.945622
C2    C     C_R   0.466337 0.461118 0.731345 -0.095383
C3    C     C_R   0.266390 0.046042 0.484145 -0.170822
C4    C     C_R   0.513817 0.500019 0.349547 0.946139
C5    C     C_R   0.402235 0.196280 0.485392 -0.119330
C6    C     C_R   0.702839 0.839352 0.563526 -0.113735
C7    C     C_R   0.730512 0.940917 0.538159 -0.071750
C8    C     C_R   0.647336 0.000540 0.515900 -0.144163
C9    C     C_R   0.539612 0.965619 0.528686 0.062344
C10   C     C_R   0.513270 0.863401 0.551314 -0.029738
C11   C     C_R   0.456770 0.028268 0.515941 0.076862
C12   C     C_R   0.545584 0.414585 0.227706 -0.206953
C13   C     C_R   0.347218 0.985689 0.514356 0.078425
C14   C     C_R   0.322510 0.885692 0.544817 -0.073702
C15   C     C_R   0.408739 0.829727 0.572412 -0.105960
C16   C     C_R   0.439528 0.307856 0.489018 0.870468
C17   C     C_R   0.481641 0.133714 0.507799 -0.251436
C18   C     C_R   0.293058 0.150364 0.466315 -0.043612
C19   C     C_R   0.592560 0.797052 0.551015 -0.123824
C20   C     C_R   0.898002 0.350373 0.619792 -0.054637
C21   C     C_R   0.206206 0.615537 0.395044 0.003106
C22   C     C_R   0.100500 0.620451 0.360917 -0.226876
C23   C     C_R   0.519428 0.361511 0.849588 0.006832
C24   C     C_R   0.017092 0.566445 0.396473 -0.143153
C25   C     C_R   0.038829 0.513998 0.470119 0.030409
C26   C     C_R   0.146504 0.501002 0.495893 0.250317
C27   C     C_R   0.957591 0.469560 0.515939 -0.089250
C28   C     C_R   0.484382 0.495052 0.650318 0.847900
C29   C     C_R   0.981553 0.394139 0.575631 0.092881
C30   C     C_R   0.088019 0.367683 0.588859 -0.061623
C31   C     C_R   0.169136 0.426782 0.553560 -0.252275
C32   C     C_R   0.854258 0.501396 0.507005 0.067024
C33   C     C_R   0.793141 0.371101 0.595391 -0.069631
C34   C     C_R   0.538331 0.401734 0.774725 -0.219918
C35   C     C_R   0.520066 0.502528 0.263524 -0.075465
C36   C     C_R   0.490088 0.586481 0.216260 -0.100990
C37   C     C_R   0.481137 0.578168 0.130872 -0.066741
C38   C     C_R   0.501746 0.485529 0.095828 0.128319
C39   C     C_R   0.535643 0.405759 0.144374 -0.144019
C40   C     C_2   0.466339 0.680946 0.256325 0.862266
C41   C     C_2   0.249770 0.455537 0.867599 0.568849
C42   C     C_2   0.205524 0.206042 0.426715 0.901892
C43   C     C_2   0.209234 0.840664 0.550914 0.498499
C44   C     C_2   0.784258 0.784038 0.612756 0.450400
C45   C     C_R   0.370344 0.474604 0.760442 -0.099194
C46   C     C_2   0.843723 0.984632 0.530501 0.424443
C47   C     C_2   0.397367 0.746205 0.633252 0.490432
C48   C     C_2   0.117611 0.273687 0.631493 1.008970
C49   C     C_2   0.915192 0.294779 0.696938 0.487267
C50   C     C_2   0.838070 0.604106 0.474202 0.925633
C51   C     C_2   0.599180 0.299873 0.893953 0.927021
C52   C     C_2   0.451346 0.666121 0.079696 0.462513
C53   C     C_R   0.349784 0.436437 0.835817 -0.001826
C54   C     C_R   0.427663 0.384460 0.882194 0.006594
C55   C     C_2   0.492975 0.471721 0.008388 -0.135058
C56   C     C_2   0.433976 0.388741 0.970133 -0.221603
H1    H     H_    0.182505 0.012107 0.472284 0.204945
H2    H     H_    0.312064 0.516007 0.724818 0.223331
H3    H     H_    0.389820 0.328393 0.002005 0.188022
H4    H     H_    0.554056 0.336035 0.117420 0.186402
H5    H     H_    0.568582 0.350583 0.264300 0.158345
H6    H     H_    0.531936 0.532905 0.973964 0.185804
H7    H     H_    0.365644 0.787382 0.260291 0.342526
H8    H     H_    0.232053 0.424641 0.925417 0.068684
H9    H     H_    0.048393 0.225846 0.415883 0.357703
H10   H     H_    0.181588 0.760525 0.533394 0.113570
H11   H     H_    0.869675 0.812287 0.618778 0.103400
H12   H     H_    0.564121 0.168887 0.524350 0.167283
H13   H     H_    0.907812 0.936871 0.536892 0.087521
H14   H     H_    0.468640 0.715244 0.661579 0.048598
H15   H     H_    0.078716 0.121654 0.649651 0.366092
H16   H     H_    0.854676 0.232401 0.710416 0.072636
H17   H     H_    0.897623 0.754999 0.472950 0.325696
H18   H     H_    0.748087 0.256778 0.904510 0.360999
H19   H     H_    0.475085 0.744726 0.102631 0.098418
H20   H     H_    0.668635 0.074110 0.489031 0.174123
H21   H     H_    0.727075 0.335098 0.625204 0.130055
H22   H     H_    0.609198 0.385701 0.749722 0.200696
H23   H     H_    0.272250 0.653995 0.366649 0.166975
H24   H     H_    0.936528 0.563745 0.363997 0.164379
H25   H     H_    0.083323 0.662864 0.305923 0.176700
H26   H     H_    0.248572 0.406660 0.566742 0.218146
N1    N     N_R   0.774070 0.445420 0.541180 -0.131906
N2    N     N_R   0.226730 0.554050 0.459240 -0.126608
O1    O     O_R   0.631480 0.627510 0.519670 -0.544436
O2    O     O_R   0.373059 0.723978 0.227613 -0.807328
O3    O     O_2   0.185447 0.505445 0.829346 -0.495754
O4    O     O_2   0.222858 0.267768 0.373452 -0.601355
O5    O     O_R   0.101212 0.183293 0.447002 -0.761988
O6    O     O_2   0.147688 0.890878 0.578755 -0.555797
O7    O     O_2   0.756321 0.709012 0.652160 -0.532149
O8    O     O_2   0.866678 0.075351 0.514762 -0.511955
O9    O     O_2   0.310902 0.713339 0.654903 -0.561118
O10   O     O_2   0.204535 0.276816 0.675197 -0.631618
O11   O     O_R   0.048571 0.180388 0.618662 -0.737078
O12   O     O_R   0.455770 0.662400 0.493360 -0.631252
O13   O     O_2   0.992551 0.322871 0.748548 -0.524126
O14   O     O_2   0.768614 0.612741 0.416717 -0.595491
O15   O     O_R   0.911351 0.690247 0.503756 -0.811824
O16   O     O_2   0.575152 0.245431 0.950095 -0.615969
O17   O     O_R   0.701544 0.302341 0.870276 -0.805128
O18   O     O_2   0.397833 0.652029 0.012572 -0.546027
O19   O     O_R   0.598240 0.480510 0.398910 -0.572014
O20   O     O_R   0.422540 0.515400 0.372600 -0.600500
O21   O     O_R   0.544230 0.337600 0.506640 -0.635097
O22   O     O_R   0.368520 0.372490 0.480330 -0.607138
O23   O     O_R   0.577460 0.484600 0.627400 -0.597905
O24   O     O_R   0.401760 0.519490 0.601090 -0.646040
O25   O     O_2   0.527771 0.720152 0.315065 -0.613310
Zn1   Zn    Zn3+2 0.617320 0.476700 0.517570 1.017421
Zn2   Zn    Zn3+2 0.382680 0.523300 0.482430 0.983683

loop_
_geom_bond_atom_site_label_1
_geom_bond_atom_site_label_2
_ccdc_geom_bond_type
C55   C56   D    
C55   H6    S    
C48   O11   S    
C27   C29   A    
C35   C36   A    
C15   C47   S    
O21   Zn1   S    
C52   H19   S    
C7    C8    A    
C53   C54   A    
H9    O5    S    
C6    C19   A    
C52   O18   D    
C50   O15   S    
C29   C30   A    
C31   H26   S    
C48   O10   D    
O19   Zn1   S    
C30   C48   S    
C36   C37   A    
C37   C38   A    
C10   C15   A    
C18   C42   S    
C30   C31   A    
H15   O11   S    
C28   O23   A    
C4    O19   A    
C8    H20   S    
C3    C18   A    
C40   O2    S    
C46   H13   S    
C24   H24   S    
C38   C55   S    
C8    C9    A    
C5    C16   S    
C49   H16   S    
C9    C10   A    
C3    C13   A    
C16   O22   A    
O22   Zn2   S    
C2    C34   A    
C4    C35   S    
C45   C53   A    
C26   C31   A    
C6    C44   S    
C13   C14   A    
C20   C29   A    
C2    C45   A    
C1    O1    A    
C41   O3    D    
O12   Zn2   S    
C54   C56   S    
C45   H2    S    
C1    C19   S    
C43   O6    D    
C50   O14   D    
N2    Zn2   S    
C7    C46   S    
C36   C40   S    
C24   C25   A    
O1    Zn1   S    
C37   C52   S    
C5    C18   A    
C25   C26   A    
C22   H25   S    
C47   H14   S    
C20   C49   S    
C33   N1    A    
C23   C51   S    
C46   O8    D    
C21   N2    A    
C10   C19   A    
C23   C34   A    
C41   C53   S    
C21   H23   S    
C47   O9    D    
N1    Zn1   S    
C12   C35   A    
C9    C11   A    
C32   C50   S    
C6    C7    A    
C44   O7    D    
C16   O21   A    
H18   O17   S    
C20   C33   A    
C3    H1    S    
H7    O2    S    
O23   Zn1   S    
C22   C24   A    
C42   O4    D    
C23   C54   A    
C51   O16   D    
H17   O15   S    
C32   N1    A    
C11   C17   A    
C17   H12   S    
C26   N2    A    
C27   C32   A    
O20   Zn2   S    
C56   H3    S    
C40   O25   D    
C25   C27   A    
O24   Zn2   S    
C42   O5    S    
C12   C39   A    
C34   H22   S    
C12   H5    S    
C11   C13   A    
C33   H21   S    
C38   C39   A    
C28   O24   A    
C43   H10   S    
C39   H4    S    
C4    O20   A    
C49   O13   D    
C5    C17   A    
C14   C15   A    
C44   H11   S    
C2    C28   S    
C1    O12   A    
C41   H8    S    
C21   C22   A    
C51   O17   S    
C14   C43   S    
