data_mof_unit_40633.cif
_audit_creation_date              2012-12-10T16:37:35-0500
_audit_creation_method            fapswitch 2.2
_symmetry_space_group_name_H-M    P1
_symmetry_Int_Tables_number       1
_space_group_crystal_system       triclinic
_cell_length_a                    10.910628
_cell_length_b                    10.849715
_cell_length_c                    15.563552
_cell_angle_alpha                 96.743078
_cell_angle_beta                  74.096403
_cell_angle_gamma                 98.345897
_cell_volume                      1747.24123483

loop_
_atom_site_label
_atom_site_type_symbol
_atom_type_description
_atom_site_fract_x
_atom_site_fract_y
_atom_site_fract_z
_atom_type_partial_charge
C1    C     C_R   0.158908 0.479974 0.519946 0.827535
C2    C     C_R   0.528741 0.507051 0.117492 0.450926
C3    C     C_R   0.637923 0.324499 0.115268 0.334988
C4    C     C_R   0.842535 0.521073 0.479750 0.796406
C5    C     C_R   0.426663 0.584897 0.841091 -0.270877
C6    C     C_2   0.981278 0.526350 0.470680 0.201212
C7    C     C_2   0.022613 0.473287 0.530298 0.273422
C8    C     C_2   0.541301 0.968820 0.474309 0.216318
C9    C     C_2   0.451352 0.036203 0.527777 0.204291
C10   C     C_R   0.467707 0.168644 0.520525 0.801833
C11   C     C_R   0.529283 0.833908 0.480378 0.819489
C12   C     C_R   0.290292 0.662011 0.983992 0.195309
C13   C     C_R   0.555462 0.445421 0.258926 0.879357
C14   C     C_R   0.448145 0.557358 0.742056 0.838882
C15   C     C_R   0.651436 0.300875 0.022975 0.441169
C16   C     C_R   0.576072 0.426708 0.162315 -0.333233
C17   C     C_R   0.320959 0.648492 0.890132 0.452448
C18   C     C_3   0.801930 0.295910 0.174953 0.060332
C19   C     C_3   0.913570 0.264573 0.094464 -0.333718
C20   C     C_3   0.041476 0.290606 0.119026 -0.909826
C21   C     C_3   0.665262 0.993506 0.328950 0.097807
C22   C     C_3   0.800468 0.957060 0.286392 -0.296207
C23   C     C_R   0.346040 0.590250 0.029738 0.389064
C24   C     C_3   0.818591 0.910076 0.188008 -0.942220
C25   C     C_3   0.690757 0.244476 0.753861 0.153917
C26   C     C_3   0.554097 0.172169 0.773032 -0.458542
C27   C     C_3   0.552830 0.040959 0.725124 -0.839369
C28   C     C_3   0.632692 0.094171 0.969429 0.165319
C29   C     C_3   0.657571 0.991559 0.019721 -0.378582
C30   C     C_3   0.580989 0.866897 0.000781 -0.910485
C31   C     C_3   0.122674 0.636068 0.860679 0.186625
C32   C     C_3   0.119466 0.502890 0.814291 -0.512489
C33   C     C_3   0.982861 0.437910 0.831833 -0.817050
C34   C     C_R   0.459156 0.536184 0.983130 0.015978
C35   C     C_R   0.501747 0.537109 0.888670 -0.282847
C36   C     C_R   0.528548 0.474618 0.027213 -0.034740
C37   C     C_R   0.605893 0.382418 0.977111 -0.321139
C38   C     C_R   0.643550 0.381779 0.882854 0.493720
C39   C     C_R   0.614502 0.481049 0.844642 0.388018
H1    H     H_    0.811416 0.254148 0.234306 0.163032
H2    H     H_    0.592708 0.915601 0.314758 0.135359
H3    H     H_    0.872235 0.039561 0.291774 0.216817
H4    H     H_    0.818286 0.882331 0.322968 0.254391
H5    H     H_    0.747935 0.827390 0.180775 0.278950
H6    H     H_    0.916858 0.882842 0.159842 0.279279
H7    H     H_    0.806500 0.985162 0.149707 0.263448
H8    H     H_    0.286850 0.047471 0.615333 0.319932
H9    H     H_    0.762567 0.179824 0.719378 0.170635
H10   H     H_    0.701139 0.314850 0.705321 0.237284
H11   H     H_    0.512052 0.163786 0.845815 0.214445
H12   H     H_    0.808990 0.398925 0.191950 0.135569
H13   H     H_    0.490329 0.224930 0.750306 0.224438
H14   H     H_    0.606392 0.982642 0.752620 0.241970
H15   H     H_    0.452368 0.996010 0.735034 0.293239
H16   H     H_    0.598054 0.045554 0.652291 0.265429
H17   H     H_    0.653215 0.061092 0.897332 0.181181
H18   H     H_    0.528774 0.108048 0.992600 0.105277
H19   H     H_    0.761477 0.980168 0.998726 0.231294
H20   H     H_    0.629523 0.018349 0.092872 0.259109
H21   H     H_    0.476522 0.874837 0.024217 0.279826
H22   H     H_    0.603328 0.794286 0.036896 0.298912
H23   H     H_    0.898889 0.164602 0.070178 0.249667
H24   H     H_    0.606534 0.837317 0.927899 0.253272
H25   H     H_    0.503100 0.638434 0.218047 0.337072
H26   H     H_    0.065896 0.690028 0.832462 0.169799
H27   H     H_    0.073093 0.633539 0.933154 0.171003
H28   H     H_    0.159520 0.506440 0.740857 0.254400
H29   H     H_    0.177160 0.446330 0.839657 0.205134
H30   H     H_    0.938929 0.433653 0.904917 0.261679
H31   H     H_    0.983759 0.341139 0.799428 0.280986
H32   H     H_    0.924354 0.489276 0.803361 0.311844
H33   H     H_    0.194432 0.580560 0.132059 0.333504
H34   H     H_    0.917540 0.322368 0.039236 0.229216
H35   H     H_    0.215771 0.767895 0.089362 0.346556
H36   H     H_    0.688219 0.616015 0.767973 0.330643
H37   H     H_    0.026317 0.615590 0.362386 0.354994
H38   H     H_    0.055480 0.388722 0.147274 0.273896
H39   H     H_    0.121214 0.275347 0.058241 0.270053
H40   H     H_    0.043865 0.226824 0.169250 0.270102
H41   H     H_    0.989078 0.382955 0.636646 0.312661
H42   H     H_    0.652492 0.074992 0.296607 0.176621
O1    O     O_3   0.500000 0.500000 0.500000 -0.505845
O2    O     O_R   0.463530 0.379110 0.309170 -0.598221
O3    O     O_R   0.388210 0.611730 0.699360 -0.602517
O4    O     O_R   0.624720 0.532760 0.292120 -0.678736
O5    O     O_R   0.523540 0.476390 0.699360 -0.636387
O6    O     O_3   0.682194 0.243813 0.159547 -0.651497
O7    O     O_3   0.938587 0.417230 0.602785 -0.763511
O8    O     O_3   0.652459 0.029814 0.421168 -0.676411
O9    O     O_3   0.339399 0.980825 0.582589 -0.752153
O10   O     O_3   0.726358 0.298401 0.832483 -0.619083
O11   O     O_3   0.718577 0.203407 0.977834 -0.599085
O12   O     O_R   0.537910 0.240570 0.564270 -0.650426
O13   O     O_3   0.492954 0.622579 0.156508 -0.730185
O14   O     O_3   0.249061 0.699915 0.845358 -0.578264
O15   O     O_3   0.284056 0.560684 0.116324 -0.713400
O16   O     O_3   0.202202 0.742478 0.029047 -0.779386
O17   O     O_3   0.704938 0.529675 0.771972 -0.735657
O18   O     O_3   0.071156 0.584308 0.401293 -0.787102
O19   O     O_R   0.438950 0.782540 0.540270 -0.572252
O20   O     O_R   0.222350 0.398740 0.468260 -0.634776
O21   O     O_R   0.800790 0.578160 0.427210 -0.673298
O22   O     O_R   0.212140 0.566330 0.564260 -0.641356
O23   O     O_R   0.764730 0.456770 0.540270 -0.562775
O24   O     O_R   0.412790 0.208310 0.468260 -0.648171
O25   O     O_R   0.610350 0.768590 0.427210 -0.657993
Zn1   Zn    Zn3+2 0.580150 0.419820 0.574680 0.978785
Zn2   Zn    Zn3+2 0.401380 0.373730 0.437510 1.004931
Zn3   Zn    Zn3+2 0.631680 0.593260 0.413140 0.955242
Zn4   Zn    Zn3+2 0.386790 0.613180 0.574670 1.023572

loop_
_geom_bond_atom_site_label_1
_geom_bond_atom_site_label_2
_ccdc_geom_bond_type
C31   H27   S    
O19   Zn4   S    
O5    Zn1   S    
C14   O3    A    
C28   H17   S    
C27   H15   S    
C21   O8    S    
C28   H18   S    
C23   O15   S    
H37   O18   S    
C12   C23   A    
C26   C27   S    
C37   C38   A    
C20   H38   S    
O22   Zn4   S    
C24   H6    S    
O1    Zn4   S    
C36   C37   A    
C34   C35   A    
O4    Zn3   S    
C26   H11   S    
C38   C39   A    
C27   H16   S    
C5    C17   A    
C19   H23   S    
C5    C35   A    
O2    Zn2   S    
C18   C19   S    
C18   H1    S    
C15   C37   A    
C15   O11   S    
C19   C20   S    
C8    C9    D    
C30   H21   S    
C12   C17   A    
C17   O14   S    
O1    Zn2   S    
C2    C16   A    
C9    C10   S    
C1    O22   A    
C33   H30   S    
C32   H29   S    
O20   Zn2   S    
C21   C22   S    
C18   H12   S    
H35   O16   S    
O24   Zn2   S    
C25   O10   S    
C3    O6    S    
O1    Zn3   S    
C29   H20   S    
C2    O13   S    
C14   O5    A    
C4    C6    S    
C39   O17   S    
C10   O12   A    
C25   C26   S    
C38   O10   S    
H36   O17   S    
O3    Zn4   S    
C4    O21   A    
C11   O19   A    
C35   C39   A    
C29   C30   S    
C26   H13   S    
C7    O7    S    
C19   H34   S    
C23   C34   A    
C11   O25   A    
C5    C14   S    
C28   O11   S    
O1    Zn1   S    
C25   H9    S    
C12   O16   S    
C33   H31   S    
C32   H28   S    
C21   H2    S    
C21   H42   S    
C24   H5    S    
H8    O9    S    
C22   C24   S    
C30   H22   S    
C1    O20   A    
C3    C15   A    
C2    C36   A    
C31   H26   S    
C28   C29   S    
C20   H40   S    
C1    C7    S    
C31   C32   S    
O21   Zn3   S    
C9    O9    S    
C27   H14   S    
C6    C7    D    
C13   O2    A    
C18   O6    S    
C20   H39   S    
C24   H7    S    
C6    O18   S    
H25   O13   S    
H41   O7    S    
C32   C33   S    
C22   H3    S    
C8    C11   S    
C31   O14   S    
C4    O23   A    
C34   C36   A    
O23   Zn1   S    
C25   H10   S    
C33   H32   S    
H33   O15   S    
C29   H19   S    
C13   C16   S    
C13   O4    A    
C10   O24   A    
C8    O8    S    
C30   H24   S    
C22   H4    S    
O12   Zn1   S    
C3    C16   A    
O25   Zn3   S    
