data_mof_unit_48700.cif
_audit_creation_date              2012-12-10T19:12:28-0500
_audit_creation_method            fapswitch 2.2
_symmetry_space_group_name_H-M    P1
_symmetry_Int_Tables_number       1
_space_group_crystal_system       triclinic
_cell_length_a                    15.706826
_cell_length_b                    10.631621
_cell_length_c                    9.732887
_cell_angle_alpha                 90.163606
_cell_angle_beta                  89.872785
_cell_angle_gamma                 89.4987
_cell_volume                      1625.21234216

loop_
_atom_site_label
_atom_site_type_symbol
_atom_type_description
_atom_site_fract_x
_atom_site_fract_y
_atom_site_fract_z
_atom_type_partial_charge
C1    C     C_R   0.501806 0.257609 0.500023 0.899431
C2    C     C_3   0.082619 0.498842 0.500076 0.148254
C3    C     C_3   0.972097 0.616485 0.540995 -0.284816
C4    C     C_3   0.917084 0.503525 0.500176 0.155022
C5    C     C_3   0.028636 0.589580 0.413279 -0.223226
C6    C     C_3   0.971628 0.477420 0.372198 -0.128495
C7    C     C_1   0.173548 0.498104 0.500538 -0.035879
C8    C     C_1   0.826267 0.504931 0.500125 -0.076664
C9    C     C_3   0.514957 0.071422 0.649371 -0.385342
C10   C     C_3   0.510773 0.928791 0.650544 -0.410231
C11   C     C_3   0.417229 0.073590 0.443627 -0.504150
C12   C     C_R   0.337856 0.499623 0.500103 0.913680
C13   C     C_3   0.577069 0.070037 0.406924 0.360630
C14   C     C_3   0.503408 0.121061 0.500189 0.114052
C15   C     C_3   0.501979 0.878587 0.501293 0.151486
C16   C     C_3   0.418086 0.929375 0.438339 -0.426870
C17   C     C_3   0.578992 0.924896 0.416351 -0.479940
C18   C     C_3   0.444402 0.395867 0.080894 0.500523
C19   C     C_3   0.447387 0.392080 0.917430 -0.342691
C20   C     C_3   0.465571 0.619908 0.080287 -0.339840
C21   C     C_3   0.586538 0.481164 0.079135 0.063044
C22   C     C_3   0.463513 0.616640 0.918061 -0.283388
C23   C     C_R   0.500693 0.742335 0.500369 0.848962
C24   C     C_3   0.586227 0.485321 0.916736 -0.238817
C25   C     C_R   0.662093 0.501298 0.499978 0.940338
C26   C     C_3   0.970810 0.411937 0.586870 -0.256126
C27   C     C_3   0.027368 0.386687 0.458866 -0.220209
C28   C     C_1   0.248897 0.498567 0.500422 -0.196277
C29   C     C_1   0.750952 0.504081 0.500086 -0.210991
C30   C     C_3   0.026818 0.524347 0.625390 0.545667
H1    H     H_    0.052067 0.293570 0.424633 0.146246
H2    H     H_    0.455314 0.899089 0.713857 0.175336
H3    H     H_    0.364049 0.106896 0.510692 0.186538
H4    H     H_    0.362305 0.892639 0.495974 0.170113
H5    H     H_    0.561365 0.097403 0.299088 0.057305
H6    H     H_    0.638618 0.891331 0.466364 0.171011
H7    H     H_    0.577967 0.885006 0.310484 0.133398
H8    H     H_    0.405330 0.111215 0.338667 0.191732
H9    H     H_    0.412138 0.897586 0.329689 0.176417
H10   H     H_    0.945101 0.340497 0.658465 0.136323
H11   H     H_    0.474066 0.305489 0.112338 0.096141
H12   H     H_    0.476505 0.301083 0.884443 0.120835
H13   H     H_    0.384247 0.392233 0.867624 0.179655
H14   H     H_    0.401612 0.642425 0.122762 0.164197
H15   H     H_    0.397928 0.632561 0.879242 0.157766
H16   H     H_    0.627172 0.559320 0.116842 0.158296
H17   H     H_    0.617723 0.401273 0.870089 0.178285
H18   H     H_    0.624946 0.566494 0.881897 0.135592
H19   H     H_    0.506849 0.698619 0.114094 0.149764
H20   H     H_    0.946196 0.458023 0.268005 0.134815
H21   H     H_    0.500948 0.697244 0.878708 0.159161
H22   H     H_    0.054505 0.660920 0.341708 0.146380
H23   H     H_    0.947293 0.709850 0.574173 0.129817
H24   H     H_    0.463850 0.109098 0.717983 0.166344
H25   H     H_    0.577181 0.102324 0.691795 0.200716
H26   H     H_    0.569471 0.890319 0.699553 0.170378
N1    N     N_3   0.498170 0.499750 0.138610 -0.069646
N2    N     N_3   0.498850 0.496730 0.861320 -0.057414
O1    O     O_R   0.499980 0.314910 0.616040 -0.632830
O2    O     O_R   0.500040 0.314680 0.383960 -0.636212
O3    O     O_R   0.376750 0.500100 0.616020 -0.621369
O4    O     O_R   0.376810 0.499870 0.383940 -0.567947
O5    O     O_R   0.499960 0.685320 0.616040 -0.639303
O6    O     O_R   0.500020 0.685090 0.383960 -0.639873
O7    O     O_R   0.623190 0.500130 0.616060 -0.624471
O8    O     O_R   0.623250 0.499900 0.383980 -0.627205
Zn1   Zn    Zn3+2 0.499960 0.500150 0.654960 0.906009
Zn2   Zn    Zn3+2 0.500040 0.499850 0.345040 0.939536
O9    O     O_3   0.656019 0.122801 0.447521 -0.620574
C31   C     C_3   0.719855 0.099870 0.347070 0.077300
H27   H     H_    0.696559 0.114882 0.240325 0.125754
H28   H     H_    0.744449 0.001949 0.356097 0.145191
C32   C     C_3   0.793716 0.188771 0.370468 -0.822186
H29   H     H_    0.815940 0.182982 0.478550 0.262163
H30   H     H_    0.847338 0.163504 0.300850 0.199980
H31   H     H_    0.773155 0.286407 0.347588 0.255275
O10   O     O_3   0.363395 0.388367 0.147040 -0.598434
C33   C     C_3   0.293420 0.447000 0.081101 0.116764
H32   H     H_    0.310012 0.514931 0.000277 0.114829
H33   H     H_    0.257599 0.502120 0.159594 0.169032
C34   C     C_3   0.233927 0.347194 0.024172 -0.880925
H34   H     H_    0.205276 0.293292 0.109965 0.253442
H35   H     H_    0.182332 0.392724 0.964029 0.250151
H36   H     H_    0.269083 0.280821 0.956068 0.244604
C35   C     C_3   0.631819 0.357898 0.124284 -0.945866
H37   H     H_    0.701742 0.368172 0.111937 0.230242
H38   H     H_    0.619001 0.332294 0.231374 0.306712
H39   H     H_    0.612404 0.276252 0.060530 0.199358
O11   O     O_3   0.061868 0.545304 0.756860 -0.619050
C36   C     C_3   0.996800 0.584518 0.848023 0.099431
H40   H     H_    0.941552 0.519464 0.845652 0.130605
H41   H     H_    0.974869 0.681243 0.821665 0.138199
C37   C     C_3   0.031296 0.586757 0.994007 -0.862717
H42   H     H_    0.088933 0.646350 0.999451 0.258275
H43   H     H_    0.982205 0.625795 0.064905 0.203831
H44   H     H_    0.047761 0.489866 0.027502 0.249645

loop_
_geom_bond_atom_site_label_1
_geom_bond_atom_site_label_2
_ccdc_geom_bond_type
O8    Zn2   S    
C37   H42   S    
C11   H8    S    
C32   H29   S    
C2    C7    S    
C4    C8    S    
C34   H34   S    
O10   C33   S    
C26   C27   S    
C12   C28   S    
C8    C29   T    
O6    Zn2   S    
C13   H5    S    
C10   C15   S    
C1    O1    A    
C5    C6    S    
C11   C14   S    
C33   H33   S    
C15   C16   S    
C18   C19   S    
C16   H4    S    
O7    Zn1   S    
C5    H22   S    
C2    C27   S    
C9    H25   S    
C17   H6    S    
C10   H26   S    
C9    C10   S    
C19   H12   S    
O1    Zn1   S    
C15   C23   S    
C37   H43   S    
C13   C14   S    
C32   H30   S    
C30   O11   S    
C34   H35   S    
C19   H13   S    
C21   C35   S    
C35   H38   S    
C19   N2    S    
C25   C29   S    
O5    Zn1   S    
C27   H1    S    
C24   H18   S    
C11   H3    S    
C25   O7    A    
C4    C6    S    
C18   H11   S    
C33   H32   S    
C35   H37   S    
C7    C28   T    
C3    C30   S    
C9    C14   S    
C21   N1    S    
C20   H19   S    
C12   O4    A    
C11   C16   S    
O3    Zn1   S    
C18   N1    S    
C36   H41   S    
C6    C27   S    
C31   C32   S    
C17   H7    S    
C6    H20   S    
C31   H27   S    
C23   O6    A    
C20   C22   S    
C20   H14   S    
C37   H44   S    
C32   H31   S    
C1    O2    A    
C2    C5    S    
N1    Zn2   S    
C3    C4    S    
C34   H36   S    
C36   C37   S    
C21   H16   S    
C35   H39   S    
C15   C17   S    
C24   H17   S    
C25   O8    A    
C3    C5    S    
C22   N2    S    
C4    C26   S    
C26   C30   S    
C1    C14   S    
O4    Zn2   S    
C13   C17   S    
C2    C30   S    
O11   C36   S    
C12   O3    A    
C3    H23   S    
C33   C34   S    
C26   H10   S    
C36   H40   S    
C13   O9    S    
C18   O10   S    
C23   O5    A    
O9    C31   S    
C16   H9    S    
C10   H2    S    
N2    Zn1   S    
C22   H15   S    
O2    Zn2   S    
C24   N2    S    
C21   C24   S    
C31   H28   S    
C9    H24   S    
C20   N1    S    
C22   H21   S    
