data_mof_unit_33092.cif
_audit_creation_date              2012-12-10T17:24:50-0500
_audit_creation_method            fapswitch 2.2
_symmetry_space_group_name_H-M    P1
_symmetry_Int_Tables_number       1
_space_group_crystal_system       triclinic
_cell_length_a                    10.156571
_cell_length_b                    10.859994
_cell_length_c                    19.210206
_cell_angle_alpha                 90.04307
_cell_angle_beta                  80.472804
_cell_angle_gamma                 96.093585
_cell_volume                      2077.55336873

loop_
_atom_site_label
_atom_site_type_symbol
_atom_type_description
_atom_site_fract_x
_atom_site_fract_y
_atom_site_fract_z
_atom_type_partial_charge
C1    C     C_R   0.557570 0.732612 0.495052 0.883082
C2    C     C_R   0.500010 0.498369 0.365586 0.851922
C3    C     C_R   0.374086 0.483102 0.756726 -0.203132
C4    C     C_R   0.617092 0.477785 0.243301 -0.199528
C5    C     C_R   0.371179 0.467801 0.828671 -0.170110
C6    C     C_R   0.614084 0.461307 0.172001 -0.167771
C7    C     C_R   0.490883 0.459103 0.854909 0.091454
C8    C     C_R   0.491473 0.454390 0.146834 0.089472
C9    C     C_R   0.613381 0.466167 0.808277 -0.168850
C10   C     C_R   0.371862 0.463128 0.194055 -0.168445
C11   C     C_R   0.616177 0.481441 0.736447 -0.194690
C12   C     C_R   0.442431 0.267437 0.505209 0.881504
C13   C     C_R   0.374996 0.479587 0.265358 -0.195205
C14   C     C_R   0.496549 0.489727 0.710272 -0.036643
C15   C     C_R   0.497661 0.487089 0.290319 -0.038731
C16   C     C_R   0.489322 0.444769 0.071234 0.287964
C17   C     C_R   0.489063 0.447699 0.930773 0.288108
C18   C     C_R   0.273839 0.088884 0.557783 0.135491
C19   C     C_R   0.231108 0.141520 0.623514 -0.117576
C20   C     C_R   0.105082 0.101802 0.662639 -0.163944
C21   C     C_R   0.020680 0.009359 0.636620 -0.124104
C22   C     C_R   0.062066 0.956753 0.571371 -0.155958
C23   C     C_2   0.594209 0.864962 0.486700 -0.181094
C24   C     C_R   0.187621 0.996826 0.531741 -0.185547
C25   C     C_R   0.727830 0.912847 0.445976 0.135566
C26   C     C_R   0.810892 0.005105 0.474019 -0.183996
C27   C     C_R   0.937863 0.046858 0.436524 -0.157127
C28   C     C_R   0.983851 0.995722 0.371452 -0.121654
C29   C     C_R   0.902609 0.903138 0.343455 -0.165054
C30   C     C_R   0.775157 0.861769 0.380427 -0.119716
C31   C     C_R   0.110657 0.577928 0.600621 0.271856
C32   C     C_R   0.040126 0.484997 0.647895 -0.197660
C33   C     C_R   0.002623 0.511074 0.719252 -0.200837
C34   C     C_2   0.405731 0.135346 0.514778 -0.179230
C35   C     C_R   0.038026 0.628700 0.744400 -0.122418
C36   C     C_R   0.112747 0.719672 0.698385 -0.164644
C37   C     C_R   0.150220 0.693712 0.626983 -0.136644
C38   C     C_R   0.889003 0.419845 0.399665 0.270918
C39   C     C_R   0.848854 0.303325 0.374441 -0.135780
C40   C     C_R   0.886523 0.274945 0.303409 -0.163813
C41   C     C_R   0.962027 0.364236 0.256578 -0.132470
C42   C     C_R   0.997706 0.482681 0.280499 -0.201019
C43   C     C_R   0.960012 0.511166 0.351498 -0.196702
C44   C     C_2   0.497921 0.936243 0.511870 -0.204509
C45   C     C_2   0.501167 0.063486 0.489219 -0.204896
C46   C     C_2   0.925896 0.503826 0.508213 -0.145168
C47   C     C_2   0.074346 0.496992 0.491381 -0.146119
C48   C     C_R   0.499275 0.498957 0.634483 0.851606
H1    H     H_    0.280516 0.488050 0.737480 0.179305
H2    H     H_    0.409212 0.896051 0.547113 0.179351
H3    H     H_    0.116233 0.448196 0.445073 0.167039
H4    H     H_    0.884238 0.553290 0.554313 0.167659
H5    H     H_    0.295339 0.213288 0.644473 0.123358
H6    H     H_    0.072870 0.142774 0.713139 0.132137
H7    H     H_    0.923328 0.978305 0.667043 0.133741
H8    H     H_    0.996840 0.884654 0.551457 0.154613
H9    H     H_    0.217420 0.956395 0.480760 0.149247
H10   H     H_    0.777481 0.044493 0.524881 0.149635
H11   H     H_    0.000530 0.119248 0.457907 0.155098
H12   H     H_    0.712760 0.483433 0.261529 0.180364
H13   H     H_    0.082265 0.028110 0.342668 0.134260
H14   H     H_    0.938339 0.863393 0.293062 0.132024
H15   H     H_    0.713373 0.790009 0.357916 0.123103
H16   H     H_    0.014824 0.392616 0.629422 0.143832
H17   H     H_    0.947417 0.439711 0.755153 0.138680
H18   H     H_    0.009399 0.648706 0.799706 0.138020
H19   H     H_    0.142604 0.809999 0.718118 0.150294
H20   H     H_    0.210704 0.763362 0.592127 0.142504
H21   H     H_    0.787929 0.234899 0.409912 0.143868
H22   H     H_    0.856278 0.184037 0.284599 0.150874
H23   H     H_    0.275327 0.462938 0.863544 0.148760
H24   H     H_    0.990950 0.342329 0.201572 0.138160
H25   H     H_    0.053679 0.552702 0.243949 0.142494
H26   H     H_    0.985809 0.604082 0.369031 0.143253
H27   H     H_    0.707978 0.455345 0.136689 0.149178
H28   H     H_    0.707304 0.460545 0.827133 0.142125
H29   H     H_    0.275946 0.458073 0.176017 0.144145
H30   H     H_    0.711937 0.486283 0.701473 0.162789
H31   H     H_    0.281341 0.485272 0.300923 0.163688
H32   H     H_    0.588977 0.102992 0.453050 0.178723
N1    N     N_R   0.604947 0.441465 0.956208 -0.185868
N2    N     N_R   0.372962 0.448491 0.045842 -0.186277
N3    N     N_R   0.605091 0.440069 0.025215 -0.183920
N4    N     N_R   0.372817 0.449889 0.976792 -0.183795
N5    N     N_2   0.842710 0.448880 0.471430 -0.141571
N6    N     N_2   0.157290 0.551120 0.528570 -0.141384
O1    O     O_R   0.431050 0.692470 0.505750 -0.619407
O2    O     O_R   0.568950 0.307530 0.494250 -0.620279
O3    O     O_R   0.651120 0.659650 0.487410 -0.608260
O4    O     O_R   0.348880 0.340350 0.512590 -0.609086
O5    O     O_R   0.389930 0.516430 0.611030 -0.613527
O6    O     O_R   0.610070 0.483570 0.388970 -0.613584
O7    O     O_R   0.610000 0.483610 0.592700 -0.621612
O8    O     O_R   0.390000 0.516390 0.407300 -0.621579
Zn1   Zn    Zn3+2 0.353060 0.521920 0.512240 0.939786
Zn2   Zn    Zn3+2 0.646940 0.478080 0.487760 0.939886

loop_
_geom_bond_atom_site_label_1
_geom_bond_atom_site_label_2
_ccdc_geom_bond_type
C1    O1    A    
O2    Zn2   S    
C41   C42   A    
C19   C20   A    
C13   H31   S    
C3    H1    S    
C36   H19   S    
C33   H17   S    
O4    Zn1   S    
C26   C27   A    
C40   H22   S    
C18   C24   A    
C12   O4    A    
C36   C37   A    
C38   C39   A    
N5    Zn2   S    
C37   H20   S    
C46   H4    S    
O6    Zn2   S    
C18   C19   A    
C33   C35   A    
C46   C47   S    
C47   H3    S    
C35   C36   A    
C24   H9    S    
C7    C17   S    
C48   O5    A    
O1    Zn1   S    
C9    H28   S    
C46   N5    D    
C28   H13   S    
C19   H5    S    
C43   H26   S    
C8    C16   S    
C31   N6    S    
C30   H15   S    
N1    N3    A    
C10   H29   S    
C18   C34   S    
C48   O7    A    
C12   O2    A    
C38   N5    S    
C47   N6    D    
C2    O8    A    
C32   H16   S    
C4    C6    A    
C39   C40   A    
C5    C7    A    
C14   C48   S    
C35   H18   S    
C25   C26   A    
C16   N3    A    
C23   C44   D    
C31   C37   A    
C29   C30   A    
C11   H30   S    
C26   H10   S    
C31   C32   A    
C4    H12   S    
C16   N2    A    
C39   H21   S    
C34   C45   D    
C2    O6    A    
C2    C15   S    
C9    C11   A    
C3    C14   A    
C41   H24   S    
C20   H6    S    
C40   C41   A    
C1    C23   S    
O7    Zn2   S    
N2    N4    A    
C13   C15   A    
C22   C24   A    
C42   C43   A    
C12   C34   S    
C44   C45   S    
C21   H7    S    
C44   H2    S    
C25   C30   A    
C7    C9    A    
C29   H14   S    
C28   C29   A    
C42   H25   S    
C1    O3    A    
C3    C5    A    
C10   C13   A    
C6    C8    A    
C22   H8    S    
C17   N4    A    
C32   C33   A    
O3    Zn2   S    
C38   C43   A    
C5    H23   S    
C27   H11   S    
C4    C15   A    
C11   C14   A    
C45   H32   S    
C17   N1    A    
C23   C25   S    
O8    Zn1   S    
N6    Zn1   S    
O5    Zn1   S    
C20   C21   A    
C8    C10   A    
C27   C28   A    
C21   C22   A    
C6    H27   S    
