data_mof_unit_33969.cif
_audit_creation_date              2012-12-11T15:55:48-0500
_audit_creation_method            fapswitch 2.2
_symmetry_space_group_name_H-M    P1
_symmetry_Int_Tables_number       1
_space_group_crystal_system       triclinic
_cell_length_a                    6.942561
_cell_length_b                    14.536883
_cell_length_c                    16.16753
_cell_angle_alpha                 90.213623
_cell_angle_beta                  90.521038
_cell_angle_gamma                 89.620811
_cell_volume                      1631.56463711

loop_
_atom_site_label
_atom_site_type_symbol
_atom_type_description
_atom_site_fract_x
_atom_site_fract_y
_atom_site_fract_z
_atom_type_partial_charge
O1    O     O_R   0.505680 0.583900 0.413320 -0.512154
O2    O     O_R   0.176010 0.594950 0.586080 -0.566344
O3    O     O_R   0.005680 0.416100 0.586680 -0.561563
C1    C     C_R   0.345816 0.617245 0.614823 0.743099
O4    O     O_R   0.175960 0.594930 0.413930 -0.540797
O5    O     O_R   0.005640 0.416080 0.413300 -0.543914
C2    C     C_R   0.344210 0.614836 0.383230 0.735586
O6    O     O_R   0.505720 0.583920 0.586700 -0.520863
O7    O     O_3   0.339190 0.441320 0.500000 -0.388645
V1    V     V_3+5 0.064350 0.510890 0.500000 1.394356
O8    O     O_R   0.675920 0.405050 0.413920 -0.523389
C3    C     C_R   0.844949 0.381597 0.386273 0.774033
O9    O     O_R   0.675960 0.405070 0.586070 -0.528051
C4    C     C_R   0.846793 0.379995 0.612993 0.693663
V2    V     V_3+5 0.564340 0.489110 0.500000 1.482495
O10   O     O_3   0.839370 0.558680 0.500000 -0.374127
C5    C     C_R   0.994069 0.318119 0.745656 -0.095512
C6    C     C_R   0.862408 0.308493 0.679891 -0.132330
C7    C     C_R   0.752042 0.227409 0.678573 -0.166062
H1    H     H_    0.674782 0.211111 0.622590 0.105724
C8    C     C_R   0.763405 0.162074 0.744299 0.461012
C9    C     C_R   0.873954 0.182810 0.815996 -0.223537
C10   C     C_R   0.987797 0.262005 0.816243 -0.122574
C11   C     C_3   0.200657 0.261124 0.829455 0.298845
C12   C     C_3   0.213601 0.307412 0.745802 0.747392
H2    H     H_    0.262759 0.190521 0.831841 0.069356
C13   C     C_R   0.999269 0.262184 0.188051 0.393370
C14   C     C_R   0.990862 0.323388 0.255441 -0.318888
H3    H     H_    0.086912 0.381865 0.256765 0.160611
C15   C     C_R   0.855764 0.312410 0.318408 -0.256901
C16   C     C_R   0.733501 0.235379 0.315827 0.386567
C17   C     C_R   0.738624 0.173805 0.247640 0.302680
C18   C     C_R   0.877241 0.184903 0.184622 -0.295781
C19   C     C_R   0.230543 0.757924 0.690293 -0.254359
H4    H     H_    0.120068 0.767447 0.643342 0.144112
C20   C     C_R   0.242910 0.821118 0.755486 -0.212133
H5    H     H_    0.141497 0.878049 0.757017 0.148111
C21   C     C_R   0.383749 0.811874 0.817912 -0.124705
C22   C     C_R   0.516951 0.736957 0.813516 0.062261
C23   C     C_R   0.507314 0.674902 0.745531 0.410367
C24   C     C_R   0.360834 0.684275 0.684553 -0.167939
C25   C     C_R   0.196086 0.733204 0.288219 -0.201738
H6    H     H_    0.060838 0.726801 0.320481 0.201026
C26   C     C_R   0.208727 0.797528 0.224278 -0.225327
H7    H     H_    0.082363 0.838301 0.209227 0.205972
C27   C     C_R   0.382867 0.812161 0.182557 -0.213162
C28   C     C_R   0.545565 0.758342 0.205321 0.406504
C29   C     C_R   0.529049 0.688648 0.265725 0.398929
C30   C     C_R   0.355940 0.679128 0.311246 -0.221093
O11   O     O_R   0.229200 0.915950 0.913350 -0.549259
O12   O     O_R   0.559090 0.905000 0.086080 -0.503690
O13   O     O_R   0.729280 0.083880 0.086680 -0.530754
C31   C     C_R   0.391324 0.882564 0.115088 0.745569
O14   O     O_R   0.558920 0.904980 0.913920 -0.531586
O15   O     O_R   0.729110 0.083860 0.913300 -0.541273
C32   C     C_R   0.390469 0.881720 0.885853 0.702587
O16   O     O_R   0.229360 0.915970 0.086730 -0.554249
O17   O     O_3   0.395680 0.058580 0.000030 -0.381350
V3    V     V_3+5 0.670570 0.989070 0.999990 1.458003
O18   O     O_R   0.058820 0.094950 0.913870 -0.547159
C33   C     C_R   0.888929 0.115952 0.884769 0.754846
O19   O     O_R   0.058990 0.094970 0.086020 -0.532102
C34   C     C_R   0.889861 0.117169 0.114988 0.801195
V4    V     V_3+5 0.170560 0.010930 0.999930 1.416304
O20   O     O_3   0.895590 0.941310 0.999960 -0.376671
O21   O     O_3   0.621243 0.097152 0.247046 -0.551362
C35   C     C_3   0.432612 0.124300 0.224220 -0.087743
H8    H     H_    0.343797 0.061686 0.216359 0.127841
H9    H     H_    0.430122 0.161650 0.164220 0.153529
H10   H     H_    0.364177 0.167102 0.273005 0.154369
C36   C     C_3   0.657994 0.717343 0.883954 -0.352361
C37   C     C_3   0.850882 0.766342 0.872709 -0.639342
H11   H     H_    0.952272 0.723729 0.836870 0.193574
H12   H     H_    0.833282 0.833321 0.840724 0.235184
H13   H     H_    0.920229 0.778178 0.933626 0.199783
H14   H     H_    0.593111 0.738244 0.943613 0.149719
H15   H     H_    0.684894 0.642288 0.890500 0.191662
O22   O     O_3   0.624719 0.597490 0.744351 -0.566450
C38   C     C_3   0.806865 0.619117 0.711965 -0.160587
H16   H     H_    0.918182 0.601856 0.758737 0.110864
H17   H     H_    0.834862 0.574199 0.658159 0.184129
H18   H     H_    0.824533 0.692001 0.692128 0.108460
O23   O     O_3   0.725732 0.781282 0.176043 -0.541420
C39   C     C_3   0.786281 0.717469 0.115606 -0.197480
H19   H     H_    0.880704 0.753822 0.071943 0.151162
H20   H     H_    0.665553 0.686793 0.079192 0.073911
H21   H     H_    0.875953 0.662826 0.144584 0.164136
O24   O     O_3   0.687767 0.633324 0.282001 -0.539034
C40   C     C_3   0.661729 0.547726 0.241583 -0.235817
H22   H     H_    0.618166 0.555437 0.175527 0.090644
H23   H     H_    0.553527 0.504992 0.273495 0.137963
H24   H     H_    0.800743 0.509799 0.242842 0.142382
O25   O     O_3   0.714924 0.070334 0.731816 -0.570159
C41   C     C_3   0.521492 0.060248 0.707321 -0.199427
H25   H     H_    0.423428 0.092169 0.752799 0.153252
H26   H     H_    0.488162 0.985754 0.706204 0.149478
H27   H     H_    0.495384 0.085963 0.643760 0.145070
O26   O     O_3   0.253527 0.317765 0.896967 -0.563971
C42   C     C_3   0.448258 0.301266 0.918252 -0.218540
H28   H     H_    0.466559 0.231795 0.945692 0.154375
H29   H     H_    0.493140 0.352383 0.965591 0.141402
H30   H     H_    0.544741 0.309156 0.864193 0.166685
O27   O     O_3   0.283371 0.238539 0.690746 -0.612535
C43   C     C_3   0.283932 0.267088 0.608179 -0.186958
H31   H     H_    0.376447 0.220122 0.572048 0.120353
H32   H     H_    0.344492 0.336245 0.603372 0.224415
H33   H     H_    0.139641 0.260160 0.579576 0.124675
O28   O     O_3   0.331209 0.387635 0.747784 -0.546171
C44   C     C_3   0.231313 0.467549 0.773805 -0.204728
H34   H     H_    0.131813 0.455964 0.826095 0.146642
H35   H     H_    0.151155 0.497127 0.720831 0.120905
H36   H     H_    0.336798 0.518081 0.796779 0.183729
O29   O     O_3   0.126885 0.279474 0.125063 -0.553731
C45   C     C_3   0.044173 0.346252 0.072107 -0.206997
H37   H     H_    0.969581 0.403285 0.105555 0.094038
H38   H     H_    0.942574 0.313001 0.027833 0.139338
H39   H     H_    0.160835 0.378861 0.036713 0.197748
O30   O     O_3   0.609383 0.218881 0.380410 -0.548689
C46   C     C_3   0.704991 0.161694 0.438141 -0.209848
H40   H     H_    0.600397 0.140402 0.485591 0.139072
H41   H     H_    0.823574 0.199354 0.469965 0.097941
H42   H     H_    0.761535 0.097547 0.409002 0.160325

loop_
_geom_bond_atom_site_label_1
_geom_bond_atom_site_label_2
_ccdc_geom_bond_type
O25   C41   S    
O15   V3    S    
O11   V4    S    
C4    C6    S    
C7    H1    S    
C39   H21   S    
C1    O6    A    
C43   H32   S    
C45   H37   S    
C13   C18   A    
C5    C10   A    
C11   O26   S    
C17   O21   S    
C20   H5    S    
C7    C8    A    
C39   H20   S    
C6    C7    A    
C44   H35   S    
O5    C3    A    
C21   C22   A    
C1    C24   S    
V2    O10   S    
O28   C44   S    
C19   H4    S    
O30   C46   S    
O19   V4    S    
O8    V2    S    
C42   H28   S    
C10   C11   S    
C29   O24   S    
O1    V2    S    
C28   O23   S    
C40   H23   S    
O7    V1    S    
O21   C35   S    
C8    C9    A    
C19   C24   A    
C25   C26   A    
C37   H13   S    
C43   H31   S    
C26   C27   A    
O14   V3    S    
C46   H41   S    
O17   V4    S    
O14   C32   A    
C35   H8    S    
C28   C29   A    
C11   C12   S    
C2    C30   S    
C37   H12   S    
C44   H36   S    
C22   C23   A    
C38   H17   S    
C31   O16   A    
O22   C38   S    
C12   O27   S    
C41   H27   S    
O17   V3    S    
O11   C32   A    
O18   C33   A    
O12   C31   A    
O2    C1    A    
C16   O30   S    
O19   C34   A    
O13   V3    S    
O23   C39   S    
C15   C16   A    
C18   C34   S    
C5    C6    A    
C39   H19   S    
C40   H24   S    
C41   H26   S    
O3    C4    A    
C13   O29   S    
C23   C24   A    
C42   H29   S    
O26   C42   S    
O6    V2    S    
O9    V2    S    
C23   O22   S    
O12   V3    S    
C25   H6    S    
O2    V1    S    
C36   H15   S    
C26   H7    S    
O16   V4    S    
O4    C2    A    
O29   C45   S    
C46   H42   S    
C27   C28   A    
C14   H3    S    
C3    C15   S    
O1    C2    A    
C16   C17   A    
C11   H2    S    
C37   H11   S    
O13   C34   A    
O5    V1    S    
C38   H18   S    
C45   H38   S    
O8    C3    A    
O18   V4    S    
C35   H10   S    
C5    C12   S    
V4    O20   S    
C14   C15   A    
O7    V2    S    
C36   C37   S    
O3    V1    S    
V1    O10   S    
C44   H34   S    
C17   C18   A    
C9    C33   S    
C36   H14   S    
C8    O25   S    
C29   C30   A    
O15   C33   A    
C27   C31   S    
C20   C21   A    
C19   C20   A    
C41   H25   S    
C45   H39   S    
C25   C30   A    
C38   H16   S    
O4    V1    S    
C42   H30   S    
C21   C32   S    
O24   C40   S    
C46   H40   S    
O27   C43   S    
C22   C36   S    
C9    C10   A    
C35   H9    S    
C40   H22   S    
O9    C4    A    
C43   H33   S    
V3    O20   S    
C12   O28   S    
C13   C14   A    
