data_mof_unit_19556.cif
_audit_creation_date              2012-12-10T18:51:30-0500
_audit_creation_method            fapswitch 2.2
_symmetry_space_group_name_H-M    P1
_symmetry_Int_Tables_number       1
_space_group_crystal_system       triclinic
_cell_length_a                    10.69326
_cell_length_b                    9.866348
_cell_length_c                    10.517147
_cell_angle_alpha                 89.484598
_cell_angle_beta                  89.613013
_cell_angle_gamma                 89.888971
_cell_volume                      1109.52286741

loop_
_atom_site_label
_atom_site_type_symbol
_atom_type_description
_atom_site_fract_x
_atom_site_fract_y
_atom_site_fract_z
_atom_type_partial_charge
C1    C     C_R   0.872473 0.499914 0.499986 -0.007290
C2    C     C_R   0.127528 0.500084 0.499953 -0.007294
C3    C     C_R   0.259989 0.500071 0.499971 0.849057
C4    C     C_R   0.740011 0.499929 0.500013 0.849124
C5    C     C_R   0.497680 0.500753 0.257666 0.943358
C6    C     C_R   0.502311 0.499247 0.742335 0.943458
C7    C     C_3   0.461683 0.621752 0.036623 0.495610
C8    C     C_3   0.538279 0.378248 0.963380 0.495627
C9    C     C_3   0.579553 0.594036 0.958021 0.456120
C10   C     C_3   0.420408 0.405964 0.041982 0.455932
C11   C     C_3   0.382153 0.525429 0.954632 -0.555159
C12   C     C_3   0.617812 0.474567 0.045364 -0.555062
C13   C     C_3   0.501989 0.497786 0.876749 -0.241759
C14   C     C_3   0.497979 0.502213 0.123253 -0.241903
C15   C     C_R   0.543381 0.070770 0.602190 -0.069726
C16   C     C_R   0.456621 0.929229 0.397810 -0.069771
C17   C     C_R   0.456906 0.072827 0.397644 -0.101040
C18   C     C_R   0.543093 0.927173 0.602356 -0.101024
C19   C     C_R   0.064031 0.381524 0.534251 -0.204546
C20   C     C_R   0.935970 0.618474 0.465666 -0.204553
C21   C     C_R   0.935964 0.381446 0.534290 -0.209890
C22   C     C_R   0.064037 0.618551 0.465634 -0.209907
H1    H     H_    0.578540 0.123978 0.683776 0.185212
H2    H     H_    0.421466 0.876018 0.316225 0.185211
H3    H     H_    0.422790 0.127529 0.315396 0.164336
H4    H     H_    0.577206 0.872470 0.684605 0.164387
H5    H     H_    0.288990 0.543707 0.911761 0.159169
H6    H     H_    0.710985 0.456258 0.088202 0.159199
H7    H     H_    0.112983 0.289656 0.561777 0.162934
H8    H     H_    0.887018 0.710341 0.438132 0.162915
H9    H     H_    0.887003 0.289618 0.562009 0.160236
H10   H     H_    0.112998 0.710380 0.437918 0.160213
N1    N     N_R   0.500000 0.857200 0.500000 -0.083871
N2    N     N_R   0.500000 0.142800 0.500000 -0.083864
O1    O     O_R   0.316770 0.614620 0.499990 -0.629298
O2    O     O_R   0.683230 0.385380 0.500010 -0.629296
O3    O     O_R   0.683230 0.614620 0.500010 -0.626657
O4    O     O_R   0.316770 0.385380 0.499990 -0.626656
O5    O     O_R   0.499970 0.614650 0.313950 -0.590480
O6    O     O_R   0.500030 0.385350 0.686050 -0.590464
O7    O     O_R   0.500030 0.614650 0.686050 -0.618709
O8    O     O_R   0.499970 0.385350 0.313950 -0.618768
Zn1   Zn    Zn3+2 0.500000 0.653120 0.500000 0.957191
Zn2   Zn    Zn3+2 0.500000 0.346880 0.500000 0.957197
O9    O     O_3   0.426960 0.748637 0.086872 -0.602922
C23   C     C_3   0.357357 0.822225 0.996152 0.079148
H11   H     H_    0.267446 0.770409 0.976050 0.136974
H12   H     H_    0.411413 0.835547 0.906036 0.168406
C24   C     C_3   0.325800 0.961051 0.049255 -0.786066
H13   H     H_    0.412327 0.014290 0.077200 0.277407
H14   H     H_    0.276440 0.022750 0.976355 0.233472
H15   H     H_    0.264494 0.949795 0.134315 0.232351
O10   O     O_3   0.573046 0.251385 0.913127 -0.602998
C25   C     C_3   0.642155 0.177557 0.004076 0.079062
H16   H     H_    0.587740 0.164288 0.093979 0.168489
H17   H     H_    0.732089 0.229150 0.024583 0.137000
C26   C     C_3   0.673618 0.038702 0.950982 -0.785415
H18   H     H_    0.735376 0.049893 0.866241 0.232306
H19   H     H_    0.722458 0.976755 0.024076 0.233752
H20   H     H_    0.587085 0.985760 0.922521 0.277248
O11   O     O_3   0.657157 0.697647 0.908116 -0.609432
C27   C     C_3   0.770729 0.640636 0.864560 0.133040
H21   H     H_    0.754624 0.552669 0.801070 0.125822
H22   H     H_    0.828621 0.607560 0.946677 0.139548
C28   C     C_3   0.844209 0.746481 0.789445 -0.848417
H23   H     H_    0.865536 0.834360 0.850691 0.248098
H24   H     H_    0.933571 0.701776 0.755260 0.217082
H25   H     H_    0.789608 0.781394 0.705962 0.260378
O12   O     O_3   0.342782 0.302364 0.091877 -0.609518
C29   C     C_3   0.229266 0.359423 0.135551 0.133196
H26   H     H_    0.171367 0.392696 0.053499 0.139482
H27   H     H_    0.245467 0.447269 0.199171 0.125748
C30   C     C_3   0.155721 0.253528 0.210537 -0.848212
H28   H     H_    0.210270 0.218526 0.294046 0.260265
H29   H     H_    0.066349 0.298255 0.244696 0.217047
H30   H     H_    0.134402 0.165692 0.149203 0.248161

loop_
_geom_bond_atom_site_label_1
_geom_bond_atom_site_label_2
_ccdc_geom_bond_type
C15   C18   A    
C5    O8    A    
C4    O2    A    
C1    C21   A    
C8    C13   S    
C30   H29   S    
C30   H28   S    
C18   H4    S    
C20   H8    S    
O9    C23   S    
C7    C11   S    
C21   H9    S    
C23   C24   S    
C22   H10   S    
C12   H6    S    
C9    O11   S    
C7    O9    S    
C19   C21   A    
C26   H19   S    
C9    C13   S    
C27   H22   S    
C23   H11   S    
C7    C14   S    
C3    O4    A    
C16   C17   A    
C28   H24   S    
C6    O7    A    
C2    C22   A    
C29   H26   S    
C11   H5    S    
O1    Zn1   S    
C15   N2    A    
C24   H15   S    
C15   H1    S    
C16   H2    S    
O7    Zn1   S    
O12   C29   S    
O8    Zn2   S    
C18   N1    A    
C25   H17   S    
C23   H12   S    
N1    Zn1   S    
N2    Zn2   S    
C10   C14   S    
C26   H20   S    
O5    Zn1   S    
C24   H14   S    
O10   C25   S    
O3    Zn1   S    
O4    Zn2   S    
C27   H21   S    
C16   N1    A    
C3    O1    A    
C8    C12   S    
C28   H25   S    
C29   C30   S    
C5    C14   S    
C12   C14   S    
C24   H13   S    
C5    O5    A    
C30   H30   S    
C6    O6    A    
O2    Zn2   S    
C17   N2    A    
C19   H7    S    
C7    C9    S    
C25   H16   S    
C1    C20   A    
C27   C28   S    
C2    C19   A    
C20   C22   A    
C8    O10   S    
C1    C4    S    
C17   H3    S    
C2    C3    S    
C6    C13   S    
C11   C13   S    
C26   H18   S    
O11   C27   S    
C9    C12   S    
C10   C11   S    
C10   O12   S    
O6    Zn2   S    
C4    O3    A    
C8    C10   S    
C28   H23   S    
C29   H27   S    
C25   C26   S    
