data_mof_unit_54441.cif
_audit_creation_date              2012-12-10T16:43:24-0500
_audit_creation_method            fapswitch 2.2
_symmetry_space_group_name_H-M    P1
_symmetry_Int_Tables_number       1
_space_group_crystal_system       triclinic
_cell_length_a                    10.829663
_cell_length_b                    8.670171
_cell_length_c                    7.41692
_cell_angle_alpha                 103.168352
_cell_angle_beta                  92.729355
_cell_angle_gamma                 91.199246
_cell_volume                      676.968846212

loop_
_atom_site_label
_atom_site_type_symbol
_atom_type_description
_atom_site_fract_x
_atom_site_fract_y
_atom_site_fract_z
_atom_type_partial_charge
C1    C     C_R   0.488361 0.200016 0.453982 0.897254
C2    C     C_R   0.064369 0.445015 0.647473 0.086731
C3    C     C_R   0.128929 0.512876 0.520894 -0.115919
C4    C     C_R   0.063541 0.571428 0.384838 -0.244097
C5    C     C_R   0.935577 0.563451 0.370832 -0.036480
C6    C     C_R   0.871400 0.479976 0.481487 -0.160786
C7    C     C_2   0.476240 0.031880 0.428785 -0.331499
C8    C     C_2   0.492733 0.968085 0.574467 -0.343936
C9    C     C_R   0.262447 0.504550 0.506857 0.787487
C10   C     C_R   0.499002 0.800220 0.547207 0.896692
C11   C     C_R   0.737418 0.492608 0.493645 0.818145
C12   C     C_R   0.119687 0.408396 0.809210 -0.182683
C13   C     C_R   0.055961 0.315605 0.907298 -0.171725
C14   C     C_R   0.941625 0.246491 0.837090 -0.149578
C15   C     C_R   0.885150 0.284667 0.680330 0.019011
C16   C     C_R   0.938257 0.404698 0.604556 0.046498
Cu1   Cu    Cu3+1 0.513920 0.517380 0.684380 0.967971
Cu2   Cu    Cu3+1 0.486080 0.482620 0.315620 0.959806
H1    H     H_    0.112891 0.627506 0.291493 0.164226
H2    H     H_    0.409826 0.372812 0.947826 0.216150
N1    N     N_2   0.465100 0.456430 0.038520 -0.229891
N2    N     N_2   0.534900 0.543570 0.961480 -0.212213
O1    O     O_R   0.509050 0.286130 0.619770 -0.590473
O2    O     O_R   0.485540 0.256780 0.308360 -0.584885
O3    O     O_R   0.331410 0.514680 0.655740 -0.610391
O4    O     O_R   0.307900 0.485330 0.344330 -0.591726
O5    O     O_R   0.514460 0.743220 0.691640 -0.583239
O6    O     O_R   0.490950 0.713870 0.380230 -0.585712
O7    O     O_R   0.692100 0.514670 0.655670 -0.561220
O8    O     O_R   0.668590 0.485320 0.344260 -0.577850
H3    H     H_    0.590243 0.626777 0.052349 0.252448
H4    H     H_    0.209394 0.453622 0.867379 0.170009
H5    H     H_    0.099410 0.287854 0.030103 0.158373
H6    H     H_    0.900826 0.156533 0.898203 0.149495
C17   C     C_1   0.804054 0.165805 0.564020 0.209712
N3    N     N_1   0.744343 0.066414 0.466396 -0.288858
C18   C     C_1   0.874062 0.643976 0.243199 0.285373
N4    N     N_1   0.826056 0.709217 0.140713 -0.282227
H7    H     H_    0.461551 0.960021 0.288330 0.175127
H8    H     H_    0.507487 0.039954 0.714923 0.174878

loop_
_geom_bond_atom_site_label_1
_geom_bond_atom_site_label_2
_ccdc_geom_bond_type
C10   O5    A    
C14   H6    S    
C13   H5    S    
C18   N4    T    
Cu2   O8    S    
C5    C18   S    
Cu2   N1    S    
C2    C16   A    
Cu1   N2    S    
Cu2   O4    S    
C2    C12   A    
Cu1   Cu2   S    
C9    O3    A    
C7    C8    D    
N1    N2    D    
H2    N1    S    
Cu1   O1    S    
C3    C9    S    
C15   C17   S    
C9    O4    A    
C1    O1    A    
C2    C3    A    
C5    C6    A    
Cu2   O2    S    
N2    H3    S    
C6    C16   A    
C3    C4    A    
Cu1   O5    S    
Cu1   O7    S    
Cu2   O6    S    
C12   C13   A    
C11   O7    A    
C1    O2    A    
C8    C10   S    
C10   O6    A    
C6    C11   S    
C7    H7    S    
C14   C15   A    
C4    C5    A    
C8    H8    S    
C13   C14   A    
C1    C7    S    
C4    H1    S    
C12   H4    S    
C15   C16   A    
C11   O8    A    
Cu1   O3    S    
C17   N3    T    
