data_mof_unit_18145.cif
_audit_creation_date              2013-03-05T16:30:58-0500
_audit_creation_method            fapswitch 2.2
_symmetry_space_group_name_H-M    P1
_symmetry_Int_Tables_number       1
_space_group_crystal_system       triclinic
_cell_length_a                    12.993
_cell_length_b                    10.846
_cell_length_c                    9.550098
_cell_angle_alpha                 90.686202
_cell_angle_beta                  96.079191
_cell_angle_gamma                 90.467231
_cell_volume                      1338.09533277

loop_
_atom_site_label
_atom_site_type_symbol
_atom_site_description
_atom_site_fract_x
_atom_site_fract_y
_atom_site_fract_z
_atom_type_partial_charge
O1    O     O_R   0.500000 0.319640 0.618810 -0.583137
O2    O     O_R   0.500010 0.319680 0.381230 -0.583696
C1    C     C_R   0.497144 0.262458 0.498761 0.793521
O3    O     O_R   0.348990 0.499960 0.599490 -0.592406
O4    O     O_R   0.349000 0.500000 0.361910 -0.594311
C2    C     C_R   0.300562 0.499806 0.473755 0.800809
Cu1   Cu    Cu3+1 0.499990 0.499980 0.640670 0.962164
Cu2   Cu    Cu3+1 0.500010 0.500020 0.359330 0.948516
O5    O     O_R   0.499990 0.680320 0.618770 -0.577377
O6    O     O_R   0.500000 0.680360 0.381190 -0.585893
O7    O     O_R   0.651000 0.500000 0.638090 -0.561477
O8    O     O_R   0.651010 0.500040 0.400510 -0.586120
C3    C     C_R   0.498168 0.737896 0.500178 0.818014
C4    C     C_R   0.699410 0.498081 0.526043 0.831527
C5    C     C_R   0.812057 0.492267 0.540188 -0.060953
C6    C     C_R   0.187814 0.500803 0.458526 -0.049381
C7    C     C_R   0.025061 0.533832 0.316545 -0.188269
C8    C     C_R   0.132508 0.528767 0.328715 -0.198561
C9    C     C_R   0.134997 0.475595 0.575596 -0.249596
C10   C     C_R   0.027561 0.479787 0.564099 0.158539
C11   C     C_R   0.972261 0.510148 0.433849 0.165524
C12   C     C_R   0.864978 0.516461 0.422990 -0.248888
C13   C     C_R   0.867049 0.459188 0.668261 -0.098976
C14   C     C_R   0.974521 0.453942 0.680637 -0.187067
H1    H     H_    0.822929 0.540269 0.323109 0.165578
H2    H     H_    0.826871 0.435579 0.757938 0.194094
H3    H     H_    0.983403 0.556742 0.215981 0.178920
H4    H     H_    0.015968 0.429043 0.780644 0.143663
H5    H     H_    0.172279 0.548483 0.237288 0.159594
H6    H     H_    0.177313 0.452654 0.675783 0.142720
C15   C     C_R   0.473783 0.065908 0.618458 0.122959
C16   C     C_R   0.485238 0.129622 0.495146 -0.094259
C17   C     C_R   0.481860 0.062897 0.367702 -0.209575
H7    H     H_    0.484222 0.109371 0.268318 0.167147
C18   C     C_R   0.482787 0.934261 0.368971 -0.207039
H8    H     H_    0.485116 0.885128 0.270058 0.160138
C19   C     C_R   0.487458 0.871242 0.497679 -0.092451
C20   C     C_R   0.475066 0.938939 0.620059 0.123750
C21   C     C_3   0.535736 0.938620 0.761942 -0.476577
C22   C     C_3   0.533226 0.078168 0.760236 -0.444748
H9    H     H_    0.490342 0.899428 0.843457 0.190005
H10   H     H_    0.615098 0.901994 0.758523 0.233282
H11   H     H_    0.485916 0.118535 0.839432 0.197778
H12   H     H_    0.610839 0.121445 0.756920 0.208259
C23   C     C_R   0.585444 0.538077 0.086857 0.228764
N1    N     N_R   0.500660 0.500930 0.148010 -0.184022
C24   C     C_R   0.419572 0.450875 0.062104 -0.082797
H13   H     H_    0.353763 0.412612 0.107545 0.140275
C25   C     C_R   0.419394 0.451242 0.913356 -0.079880
H14   H     H_    0.353413 0.413206 0.848148 0.139844
N2    N     N_R   0.500660 0.500890 0.852110 -0.212985
C26   C     C_R   0.586709 0.535275 0.939399 0.198810
C27   C     C_3   0.638805 0.658629 0.943936 0.120868
C28   C     C_3   0.634736 0.662568 0.102330 -0.539288
H15   H     H_    0.590767 0.728418 0.886085 0.111135
H16   H     H_    0.711306 0.661539 0.165954 0.223222
H17   H     H_    0.581150 0.733840 0.135698 0.177875
N3    N     N_R   0.744401 0.652602 0.904285 0.149680
O9    O     O_R   0.772054 0.723998 0.806148 -0.371677
O10   O     O_R   0.812407 0.579893 0.969385 -0.415564

loop_
_geom_bond_atom_site_label_1
_geom_bond_atom_site_label_2
_geom_bond_distance
_ccdc_geom_bond_type
O4    Cu2   1.964832 S    
C13   C14   1.390539 A    
O6    C3    1.292387 A    
C19   C20   1.397223 A    
C27   N3    1.463204 S    
C24   C25   1.420369 A    
C3    C19   1.454311 S    
C18   H8    1.082350 S    
C23   C26   1.410042 A    
C15   C20   1.377599 A    
Cu2   O8    1.959707 S    
C16   C17   1.405022 A    
C10   C14   1.399618 A    
C25   N2    1.369692 A    
C5    C13   1.401733 A    
C17   H7    1.083159 S    
Cu1   N2    2.018276 S    
Cu1   Cu2   2.686857 S    
C21   H9    1.111606 S    
C8    H5    1.083217 S    
C15   C16   1.393368 A    
C27   C28   1.519290 S    
C15   C22   1.489968 S    
Cu1   O7    1.964835 S    
C1    C16   1.447380 S    
O3    Cu1   1.959707 S    
C11   C12   1.389092 A    
C18   C19   1.409511 A    
O8    C4    1.293950 A    
C23   C28   1.488690 S    
C7    C8    1.390160 A    
C21   H10   1.111599 S    
O2    C1    1.292897 A    
C27   H15   1.101120 S    
C6    C9    1.400869 A    
O4    C2    1.295927 A    
Cu2   O6    1.964591 S    
O7    C4    1.297428 A    
C28   H16   1.109693 S    
O3    C2    1.295259 A    
C5    C12   1.400531 A    
C2    C6    1.456863 S    
N2    C26   1.368348 A    
C7    H3    1.083913 S    
C24   H13   1.081108 S    
C14   H4    1.083846 S    
C22   H12   1.112499 S    
C20   C21   1.493761 S    
C10   C11   1.412929 A    
C6    C8    1.403254 A    
C25   H14   1.080721 S    
N1    C24   1.369219 A    
C13   H2    1.081348 S    
C21   C22   1.514395 S    
Cu1   O5    1.969607 S    
O5    C3    1.297971 A    
C4    C5    1.457481 S    
O1    Cu1   1.964593 S    
Cu2   N1    2.019180 S    
C17   C18   1.395521 A    
N3    O9    1.300489 A    
C23   N1    1.360729 A    
C9    H6    1.084520 S    
N3    O10   1.302277 A    
C28   H17   1.110730 S    
C22   H11   1.111980 S    
O2    Cu2   1.969607 S    
C9    C10   1.389749 A    
C26   C27   1.492523 S    
O1    C1    1.293834 A    
C12   H1    1.082977 S    
C7    C11   1.399437 A    
