data_mof_unit_32960.cif
_audit_creation_date              2012-12-10T16:53:54-0500
_audit_creation_method            fapswitch 2.2
_symmetry_space_group_name_H-M    P1
_symmetry_Int_Tables_number       1
_space_group_crystal_system       triclinic
_cell_length_a                    7.805296
_cell_length_b                    8.678692
_cell_length_c                    10.765629
_cell_angle_alpha                 92.633993
_cell_angle_beta                  86.11503
_cell_angle_gamma                 93.695754
_cell_volume                      725.438548296

loop_
_atom_site_label
_atom_site_type_symbol
_atom_type_description
_atom_site_fract_x
_atom_site_fract_y
_atom_site_fract_z
_atom_type_partial_charge
C1    C     C_R   0.547018 0.793554 0.491657 0.846797
C2    C     C_3   0.497208 0.495155 0.121663 -0.270760
C3    C     C_3   0.365331 0.372865 0.064487 0.241165
C4    C     C_3   0.686090 0.470504 0.063733 0.128314
C5    C     C_2   0.581400 0.954179 0.477805 0.318669
C6    C     C_2   0.442070 0.041771 0.493124 -0.469118
C7    C     C_R   0.505090 0.507301 0.742065 0.908355
C8    C     C_R   0.456586 0.205445 0.499026 1.003064
C9    C     C_R   0.496865 0.494263 0.257997 0.987658
C10   C     C_3   0.420599 0.650621 0.939285 -0.481764
C11   C     C_3   0.437263 0.655425 0.083168 0.092180
C12   C     C_3   0.410598 0.356800 0.923322 -0.385311
C13   C     C_3   0.698383 0.523400 0.929676 0.256301
C14   C     C_3   0.512131 0.507536 0.878138 -0.181528
H1    H     H_    0.282857 0.644067 0.919220 0.266740
H2    H     H_    0.488249 0.255963 0.900047 0.245887
H3    H     H_    0.311638 0.991103 0.507243 0.172705
H4    H     H_    0.009942 0.366950 0.421107 0.232734
H5    H     H_    0.998172 0.644573 0.562936 0.263813
H6    H     H_    0.477515 0.759576 0.898757 0.233767
H7    H     H_    0.308435 0.676536 0.129435 0.184014
H8    H     H_    0.290569 0.331572 0.874604 0.236442
H9    H     H_    0.238451 0.422076 0.078351 0.194556
H10   H     H_    0.728855 0.650330 0.939112 0.162391
H11   H     H_    0.779184 0.550960 0.112385 0.145242
N1    N     N_2   0.950330 0.457950 0.465890 -0.151699
N2    N     N_2   0.049670 0.542050 0.534110 -0.131827
O1    O     O_R   0.389250 0.738570 0.508370 -0.651015
O2    O     O_R   0.678390 0.711620 0.486510 -0.560600
O3    O     O_R   0.355430 0.513500 0.696140 -0.600892
O4    O     O_R   0.644580 0.486550 0.674270 -0.544320
O5    O     O_R   0.321610 0.288380 0.513490 -0.629134
O6    O     O_R   0.610750 0.261430 0.491630 -0.529986
O7    O     O_R   0.355420 0.513450 0.325730 -0.644354
O8    O     O_R   0.644570 0.486500 0.303860 -0.611580
Zn1   Zn    Zn3+2 0.306940 0.517990 0.514600 1.021791
Zn2   Zn    Zn3+2 0.693060 0.482010 0.485400 1.117003
S1    S     S_3+6 0.759032 0.276812 0.083660 0.171558
O9    O     O_2   0.652095 0.193133 0.182593 -0.171611
O10   O     O_2   0.758121 0.178281 0.965335 -0.165187
O11   O     O_3   0.959581 0.292904 0.130668 -0.438150
H12   H     H_    0.956930 0.371187 0.200466 0.335252
Cl1   Cl    Cl    0.319624 0.189225 0.132951 -0.432257
S2    S     S_3+6 0.808458 0.015737 0.452301 0.101617
O12   O     O_2   0.838099 0.134776 0.355889 -0.218193
O13   O     O_2   0.871306 0.081648 0.573398 -0.295540
O14   O     O_3   0.932241 0.870159 0.402994 -0.523749
H13   H     H_    0.050330 0.918559 0.391066 0.380670
Cl2   Cl    Cl    0.575853 0.816477 0.133453 -0.483749
S3    S     S_3+6 0.896300 0.480962 0.844004 0.057579
O15   O     O_2   0.953890 0.621085 0.772736 -0.334151
O16   O     O_2   0.029409 0.461235 0.933994 -0.347209
O17   O     O_3   0.881042 0.322371 0.749180 -0.443816
H14   H     H_    0.001708 0.302294 0.722003 0.391233

loop_
_geom_bond_atom_site_label_1
_geom_bond_atom_site_label_2
_ccdc_geom_bond_type
C1    O1    A    
C2    C4    S    
N1    Zn2   S    
O17   H14   S    
C11   Cl2   S    
N2    Zn1   S    
H5    N2    S    
O11   H12   S    
S3    O16   D    
O14   H13   S    
H4    N1    S    
S2    O14   S    
O3    Zn1   S    
C10   H1    S    
C1    O2    A    
C2    C3    S    
C7    O3    A    
C13   C14   S    
S1    O10   D    
C3    Cl1   S    
N1    N2    D    
C9    O7    A    
C10   H6    S    
C5    C6    D    
C2    C11   S    
O5    Zn1   S    
O8    Zn2   S    
C5    S2    S    
C12   C14   S    
C4    H11   S    
O7    Zn1   S    
C8    O6    A    
O4    Zn2   S    
S1    O9    D    
C1    C5    S    
S3    O17   S    
C7    O4    A    
C10   C11   S    
C13   S3    S    
C8    O5    A    
C12   H8    S    
S2    O12   D    
O1    Zn1   S    
S1    O11   S    
C10   C14   S    
O2    Zn2   S    
C4    C13   S    
C9    O8    A    
C6    H3    S    
C6    C8    S    
C3    C12   S    
S3    O15   D    
C4    S1    S    
C2    C9    S    
C3    H9    S    
C11   H7    S    
C7    C14   S    
O6    Zn2   S    
C12   H2    S    
C13   H10   S    
S2    O13   D    
