data_mof_unit_18113.cif
_audit_creation_date              2012-12-11T15:34:50-0500
_audit_creation_method            fapswitch 2.2
_symmetry_space_group_name_H-M    P1
_symmetry_Int_Tables_number       1
_space_group_crystal_system       triclinic
_cell_length_a                    30.882324
_cell_length_b                    7.258178
_cell_length_c                    25.657525
_cell_angle_alpha                 90.001263
_cell_angle_beta                  112.009505
_cell_angle_gamma                 89.999781
_cell_volume                      5331.98716236

loop_
_atom_site_label
_atom_site_type_symbol
_atom_type_description
_atom_site_fract_x
_atom_site_fract_y
_atom_site_fract_z
_atom_type_partial_charge
O1    O     O_R   0.295360 0.592990 0.320420 -0.541927
O2    O     O_R   0.704640 0.407010 0.679580 -0.527460
O3    O     O_R   0.204640 0.092990 0.179580 -0.541919
O4    O     O_R   0.795360 0.907010 0.820420 -0.527459
O5    O     O_R   0.294060 0.265620 0.213230 -0.528698
O6    O     O_R   0.705940 0.734380 0.786770 -0.511408
O7    O     O_R   0.205940 0.765620 0.286770 -0.528695
O8    O     O_R   0.794060 0.234380 0.713230 -0.511406
C1    C     C_R   0.304397 0.431602 0.200060 0.828897
C2    C     C_R   0.694316 0.567225 0.798730 0.800710
C3    C     C_R   0.195602 0.931604 0.299939 0.828887
C4    C     C_R   0.805684 0.067222 0.701270 0.800714
O9    O     O_R   0.300850 0.263360 0.322080 -0.521179
O10   O     O_R   0.699150 0.736640 0.677920 -0.534932
O11   O     O_R   0.199150 0.763360 0.177920 -0.521182
O12   O     O_R   0.800850 0.236640 0.822080 -0.534935
O13   O     O_R   0.211480 0.091820 0.289210 -0.526938
O14   O     O_R   0.788520 0.908180 0.710790 -0.524781
O15   O     O_R   0.288520 0.591820 0.210790 -0.526944
O16   O     O_R   0.711480 0.408180 0.789210 -0.524778
C5    C     C_R   0.313435 0.432700 0.343385 0.759642
C6    C     C_R   0.686139 0.567770 0.656830 0.749560
C7    C     C_R   0.186565 0.932697 0.156615 0.759631
C8    C     C_R   0.813862 0.067773 0.843169 0.749558
O17   O     O_3   0.220670 0.426670 0.239090 -0.375974
O18   O     O_3   0.779330 0.573330 0.760910 -0.360723
O19   O     O_3   0.279330 0.926670 0.260910 -0.375982
O20   O     O_3   0.720670 0.073330 0.739090 -0.360722
V1    V     V_3+5 0.255440 0.152290 0.252020 1.587954
V2    V     V_3+5 0.744560 0.847710 0.747980 1.632093
V3    V     V_3+5 0.244560 0.652290 0.247980 1.587949
V4    V     V_3+5 0.755440 0.347710 0.752020 1.632092
C9    C     C_R   0.850789 0.053873 0.900621 -0.171420
C10   C     C_R   0.149950 0.946192 0.099075 -0.174462
C11   C     C_R   0.649212 0.553862 0.599378 -0.171422
C12   C     C_R   0.350050 0.446203 0.400925 -0.174471
C13   C     C_R   0.872372 0.958824 0.997612 -0.130666
C14   C     C_R   0.127831 0.964204 0.998008 -0.112171
C15   C     C_R   0.627629 0.458797 0.502387 -0.130673
C16   C     C_R   0.372171 0.464220 0.501992 -0.112169
C17   C     C_R   0.838178 0.004022 0.946046 0.302391
C18   C     C_R   0.162499 0.955421 0.051571 0.342800
C19   C     C_R   0.661824 0.503992 0.553954 0.302387
C20   C     C_R   0.337502 0.455447 0.448430 0.342784
C21   C     C_R   0.898580 0.073476 0.909467 0.280225
C22   C     C_R   0.102667 0.971622 0.091873 0.288184
C23   C     C_R   0.601421 0.573477 0.590531 0.280224
C24   C     C_R   0.397333 0.471624 0.408126 0.288185
C25   C     C_R   0.934325 0.014066 0.961734 -0.033142
C26   C     C_R   0.066388 0.970604 0.036448 -0.040044
C27   C     C_R   0.565676 0.514062 0.538264 -0.033143
C28   C     C_R   0.433614 0.470604 0.463550 -0.040044
C29   C     C_R   0.920142 0.965242 0.006744 -0.080731
C30   C     C_R   0.080139 0.974690 0.989399 -0.089624
C31   C     C_R   0.579859 0.465231 0.493254 -0.080735
C32   C     C_R   0.419863 0.474690 0.510600 -0.089620
C33   C     C_R   0.983194 0.996843 0.970809 -0.008402
C34   C     C_R   0.017183 0.965161 0.026028 -0.009701
C35   C     C_R   0.516807 0.496838 0.529189 -0.008407
C36   C     C_R   0.482818 0.465159 0.473969 -0.009698
C37   C     C_R   0.000883 0.911495 0.068008 -0.149314
C38   C     C_R   0.998696 0.991437 0.925860 -0.151032
C39   C     C_R   0.499117 0.411498 0.431988 -0.149311
C40   C     C_R   0.501306 0.491424 0.574138 -0.151040
C41   C     C_R   0.953861 0.916205 0.059805 0.377507
C42   C     C_R   0.045853 0.985708 0.934267 0.382831
C43   C     C_R   0.546139 0.416204 0.440191 0.377513
C44   C     C_R   0.454150 0.485696 0.565732 0.382829
H1    H     H_    0.860443 0.915756 0.030315 0.177086
H2    H     H_    0.139342 0.963619 0.963071 0.182566
H3    H     H_    0.639559 0.415716 0.469684 0.177086
H4    H     H_    0.360661 0.463642 0.536929 0.182563
H5    H     H_    0.024252 0.857903 0.107846 0.220140
H6    H     H_    0.974434 0.984444 0.882819 0.208677
H7    H     H_    0.475748 0.357912 0.392148 0.220146
H8    H     H_    0.525569 0.484425 0.617179 0.208672
C45   C     C_R   0.090217 0.872397 0.478334 0.608069
C46   C     C_R   0.912597 0.006322 0.526052 0.626996
C47   C     C_R   0.409778 0.372413 0.021657 0.608064
C48   C     C_R   0.587399 0.506365 0.973945 0.626988
N1    N     N_R   0.073235 0.936462 0.423880 -0.552402
N2    N     N_R   0.932162 0.979066 0.583266 -0.548807
N3    N     N_R   0.426758 0.436484 0.076111 -0.552398
N4    N     N_R   0.567835 0.479103 0.916730 -0.548808
C49   C     C_R   0.027676 0.994598 0.399235 0.596345
C50   C     C_R   0.978221 0.927557 0.608525 0.596361
C51   C     C_R   0.472316 0.494634 0.100757 0.596348
C52   C     C_R   0.521776 0.427590 0.891470 0.596361
C53   C     C_R   0.997840 0.991880 0.429478 -0.038329
C54   C     C_R   0.006283 0.905148 0.576423 -0.040847
C55   C     C_R   0.502153 0.491920 0.070514 -0.038328
C56   C     C_R   0.493714 0.405181 0.923570 -0.040847
C57   C     C_R   0.015922 0.938823 0.486390 -0.012167
C58   C     C_R   0.987413 0.946879 0.518648 -0.014733
C59   C     C_R   0.484073 0.438857 0.013603 -0.012165
C60   C     C_R   0.512583 0.446916 0.981347 -0.014730
C61   C     C_R   0.062554 0.879411 0.511249 -0.051098
C62   C     C_R   0.940229 0.998553 0.493168 -0.053736
C63   C     C_R   0.437442 0.379436 0.988743 -0.051097
C64   C     C_R   0.559766 0.498597 0.006828 -0.053735
C65   C     C_R   0.950635 0.043729 0.404474 -0.126518
C66   C     C_R   0.052974 0.846095 0.600871 -0.124361
C67   C     C_R   0.549358 0.543777 0.095520 -0.126519
C68   C     C_R   0.447024 0.346122 0.899121 -0.124363
C69   C     C_R   0.922006 0.044339 0.435717 -0.120353
C70   C     C_R   0.080546 0.830730 0.568491 -0.121787
C71   C     C_R   0.577988 0.544388 0.064278 -0.120355
C72   C     C_R   0.419450 0.330752 0.931501 -0.121790
O21   O     O_2   0.133879 0.803186 0.500799 -0.479650
O22   O     O_2   0.866564 0.043207 0.501027 -0.480929
O23   O     O_2   0.366118 0.303186 0.999192 -0.479652
O24   O     O_2   0.633432 0.543255 0.998971 -0.480929
O25   O     O_2   0.011344 0.057606 0.345881 -0.504272
O26   O     O_2   0.997241 0.901753 0.664641 -0.501517
O27   O     O_2   0.488647 0.557653 0.154111 -0.504274
O28   O     O_2   0.502758 0.401781 0.835354 -0.501517
H9    H     H_    0.935612 0.083763 0.360651 0.179569
H10   H     H_    0.068377 0.811427 0.645102 0.182477
H11   H     H_    0.564380 0.583815 0.139343 0.179570
H12   H     H_    0.431621 0.311451 0.854890 0.182477
H13   H     H_    0.885829 0.085037 0.414994 0.181639
H14   H     H_    0.116328 0.784636 0.588795 0.184037
H15   H     H_    0.614164 0.585092 0.085002 0.181640
H16   H     H_    0.383669 0.284652 0.911196 0.184037
C73   C     C_R   0.899413 0.872778 0.652702 -0.098620
C74   C     C_R   0.090928 0.848001 0.340926 -0.128499
C75   C     C_R   0.600586 0.372796 0.847298 -0.098619
C76   C     C_R   0.409070 0.348029 0.159068 -0.128501
H17   H     H_    0.918875 0.745659 0.657420 0.209665
H18   H     H_    0.058153 0.773680 0.324878 0.197975
H19   H     H_    0.581125 0.245676 0.842581 0.209663
H20   H     H_    0.441848 0.273728 0.175117 0.197979
C77   C     C_R   0.870804 0.897438 0.683537 0.232338
C78   C     C_R   0.119882 0.847399 0.309991 0.220890
C79   C     C_R   0.629196 0.397445 0.816464 0.232337
C80   C     C_R   0.380118 0.347420 0.190005 0.220888
C81   C     C_R   0.841574 0.054855 0.674652 -0.262404
C82   C     C_R   0.163693 0.936403 0.331184 -0.255725
C83   C     C_R   0.658427 0.554863 0.825349 -0.262407
C84   C     C_R   0.336303 0.436397 0.168812 -0.255727
C85   C     C_R   0.847885 0.197990 0.640265 0.239532
C86   C     C_R   0.177799 0.022486 0.384169 0.198457
C87   C     C_R   0.652115 0.698006 0.859735 0.239533
C88   C     C_R   0.322192 0.522450 0.115823 0.198445
C89   C     C_R   0.880486 0.180165 0.614186 0.402714
C90   C     C_R   0.147148 0.036907 0.412977 0.424100
C91   C     C_R   0.619514 0.680190 0.885812 0.402720
C92   C     C_R   0.352841 0.536883 0.087013 0.424105
C93   C     C_R   0.904092 0.010913 0.617012 0.146628
C94   C     C_R   0.103631 0.942926 0.392223 0.147211
C95   C     C_R   0.595906 0.510941 0.882987 0.146627
C96   C     C_R   0.396362 0.442935 0.107769 0.147202
O29   O     O_3   0.942355 0.869369 0.105097 -0.612932
H21   H     H_    0.918918 0.959138 0.107181 0.304228
O30   O     O_3   0.056824 0.989919 0.886902 -0.610460
H22   H     H_    0.082891 0.077874 0.893843 0.305371
O31   O     O_3   0.557646 0.369380 0.394897 -0.612930
H23   H     H_    0.581086 0.459140 0.392819 0.304226
O32   O     O_3   0.443180 0.489891 0.613098 -0.610462
H24   H     H_    0.417115 0.577854 0.606163 0.305371
Br1   Br    Br    0.813554 0.424760 0.626527 -0.405685
Br2   Br    Br    0.241153 0.101474 0.421647 -0.413819
Br3   Br    Br    0.686450 0.924770 0.873476 -0.405682
Br4   Br    Br    0.258833 0.601376 0.078344 -0.413827
O33   O     O_3   0.888200 0.331119 0.585954 -0.587583
H25   H     H_    0.918761 0.317192 0.582112 0.301185
O34   O     O_3   0.161129 0.142025 0.461354 -0.569894
H26   H     H_    0.133312 0.176875 0.469488 0.311513
O35   O     O_3   0.611800 0.831152 0.914044 -0.587583
H27   H     H_    0.581239 0.817225 0.917887 0.301187
O36   O     O_3   0.338854 0.641980 0.038633 -0.569889
H28   H     H_    0.366669 0.676855 0.030499 0.311517
O37   O     O_3   0.094290 0.019598 0.139224 -0.626166
H29   H     H_    0.070126 0.117460 0.128263 0.311319
O38   O     O_3   0.908570 0.163853 0.868101 -0.634683
H30   H     H_    0.935512 0.246182 0.887120 0.306030
O39   O     O_3   0.405710 0.519596 0.360775 -0.626164
H31   H     H_    0.429873 0.617463 0.371736 0.311318
O40   O     O_3   0.591431 0.663867 0.631896 -0.634683
H32   H     H_    0.564487 0.746185 0.612878 0.306033
O41   O     O_3   0.208140 0.967324 0.055044 -0.584215
H33   H     H_    0.229497 0.985797 0.094499 0.305806
O42   O     O_3   0.792541 0.002652 0.942299 -0.596509
H34   H     H_    0.774596 0.090333 0.912476 0.312897
O43   O     O_3   0.291862 0.467374 0.444958 -0.584217
H35   H     H_    0.270507 0.485871 0.405504 0.305813
O44   O     O_3   0.707460 0.502602 0.557703 -0.596500
H36   H     H_    0.725405 0.590314 0.587521 0.312886
Br5   Br    Br    0.878011 0.719840 0.741908 -0.432530
Br6   Br    Br    0.097892 0.720522 0.239162 -0.458614
Br7   Br    Br    0.621992 0.219825 0.758097 -0.432531
Br8   Br    Br    0.402114 0.220570 0.260837 -0.458615

loop_
_geom_bond_atom_site_label_1
_geom_bond_atom_site_label_2
_ccdc_geom_bond_type
O17   V3    S    
N3    C51   A    
C90   O34   S    
C14   H2    S    
O1    C5    A    
O33   H25   S    
C51   C55   A    
O19   V1    S    
C9    C21   A    
O35   H27   S    
C86   C90   A    
O3    C7    A    
C59   C60   A    
C10   C18   A    
C56   C60   A    
C46   C62   A    
C48   N4    A    
C11   C23   A    
C33   C34   A    
C77   Br5   S    
C33   C38   A    
C5    C12   S    
C89   O33   S    
O41   H33   S    
C38   H6    S    
C77   C81   A    
C6    C11   S    
C35   C40   A    
C57   C58   A    
C62   C69   A    
C80   Br8   S    
C36   C39   A    
C40   C44   A    
C47   C63   A    
C3    C82   S    
C75   C79   A    
C14   C18   A    
C13   H1    S    
C76   C80   A    
C42   O30   S    
O4    C8    A    
C1    C84   S    
C59   C63   A    
C92   C96   A    
C74   H18   S    
C73   C77   A    
N1    C94   S    
O1    V3    S    
C92   O36   S    
O13   V1    S    
C31   C43   A    
O2    V4    S    
C32   C44   A    
O3    V1    S    
C54   C66   A    
C23   O40   S    
C28   C36   A    
C75   C95   A    
C90   C94   A    
C83   C87   A    
C76   C96   A    
O31   H23   S    
C15   C31   A    
C52   C56   A    
C2    O16   A    
O20   V2    S    
C16   C32   A    
O2    C6    A    
C41   O29   S    
C45   C61   A    
C10   C22   A    
C71   H15   S    
C44   O32   S    
C11   C19   A    
C16   C20   A    
C51   O27   S    
C66   H10   S    
C80   C84   A    
C20   O43   S    
C13   C29   A    
C34   C37   A    
O11   C7    A    
C78   C82   A    
O15   V3    S    
C35   C36   A    
O12   C8    A    
O37   H29   S    
C88   Br4   S    
C13   C17   A    
C48   O24   S    
C72   H16   S    
C76   H20   S    
C87   Br3   S    
C24   O39   S    
C1    O15   A    
N1    C49   A    
C54   C58   A    
O5    V1    S    
C18   O41   S    
C65   C69   A    
C39   C43   A    
O7    V3    S    
C38   C42   A    
O9    C5    A    
C26   C34   A    
N4    C52   A    
C46   O22   S    
C82   C86   A    
O34   H26   S    
C49   C53   A    
O18   V4    S    
C23   C27   A    
C37   H5    S    
O10   V2    S    
O4    V2    S    
O8    V4    S    
C52   O28   S    
C87   C91   A    
O42   H34   S    
O5    C1    A    
C63   C72   A    
C37   C41   A    
C46   N2    A    
O7    C3    A    
O32   H24   S    
C14   C30   A    
C45   N1    A    
O8    C4    A    
C7    C10   S    
C70   H14   S    
C21   C25   A    
C40   H8    S    
C22   O37   S    
C69   H13   S    
C43   O31   S    
C26   C30   A    
C45   O21   S    
O36   H28   S    
C79   Br7   S    
C73   C93   A    
O14   V2    S    
C61   C70   A    
O6    V2    S    
C50   C54   A    
C12   C20   A    
C27   C35   A    
C2    C83   S    
C57   C61   A    
C68   C72   A    
C29   C41   A    
N3    C96   S    
O16   V4    S    
O9    V1    S    
C81   C85   A    
C3    O13   A    
C64   C71   A    
C15   H3    S    
C16   H4    S    
C53   C65   A    
C67   H11   S    
C84   C88   A    
C55   C67   A    
C19   O44   S    
C86   Br2   S    
C25   C33   A    
C15   C19   A    
O11   V3    S    
C30   C42   A    
C85   C89   A    
O12   V4    S    
C22   C26   A    
C8    C9    S    
C47   O23   S    
C50   O26   S    
C79   C83   A    
C9    C17   A    
C78   Br6   S    
C21   O38   S    
C65   H9    S    
O44   H36   S    
O38   H30   S    
N2    C50   A    
C47   N3    A    
C74   C94   A    
O10   C6    A    
O43   H35   S    
C39   H7    S    
C25   C29   A    
C91   C95   A    
C60   C64   A    
C49   O25   S    
C12   C24   A    
C27   C31   A    
C53   C57   A    
C85   Br1   S    
C75   H19   S    
N2    C93   S    
O6    C2    A    
C56   C68   A    
C55   C59   A    
O40   H32   S    
N4    C95   S    
C73   H17   S    
C24   C28   A    
C89   C93   A    
C74   C78   A    
O39   H31   S    
C66   C70   A    
C4    O14   A    
O30   H22   S    
C58   C62   A    
C4    C81   S    
C17   O42   S    
C67   C71   A    
O29   H21   S    
C91   O35   S    
C48   C64   A    
C28   C32   A    
C68   H12   S    
C88   C92   A    
