data_mof_unit_65046.cif
_audit_creation_date              2012-12-10T19:58:38-0500
_audit_creation_method            fapswitch 2.2
_symmetry_space_group_name_H-M    P1
_symmetry_Int_Tables_number       1
_space_group_crystal_system       triclinic
_cell_length_a                    15.011913
_cell_length_b                    14.28204
_cell_length_c                    19.273954
_cell_angle_alpha                 89.999934
_cell_angle_beta                  91.510901
_cell_angle_gamma                 89.999894
_cell_volume                      4130.91332915

loop_
_atom_site_label
_atom_site_type_symbol
_atom_type_description
_atom_site_fract_x
_atom_site_fract_y
_atom_site_fract_z
_atom_type_partial_charge
Br1   Br    Br    0.487580 0.296812 0.864928 -0.393970
Br2   Br    Br    0.487572 0.703689 0.134804 -0.394963
Br3   Br    Br    0.512733 0.296843 0.135066 -0.393929
Br4   Br    Br    0.512030 0.703729 0.865174 -0.395129
Br5   Br    Br    0.370820 0.265215 0.386954 -0.484444
Br6   Br    Br    0.642910 0.734194 0.602413 -0.459154
Br7   Br    Br    0.629187 0.265215 0.613041 -0.484405
Br8   Br    Br    0.357085 0.734196 0.397591 -0.459144
C1    C     C_R   0.327955 0.500045 0.500024 0.889752
C2    C     C_R   0.951876 0.501231 0.500126 0.103321
C3    C     C_R   0.449058 0.105449 0.451200 -0.268399
C4    C     C_R   0.561784 0.894415 0.540557 -0.271030
C5    C     C_R   0.550942 0.105449 0.548800 -0.268391
C6    C     C_R   0.438216 0.894415 0.459444 -0.271028
C7    C     C_R   0.448220 0.203725 0.452794 0.359567
C8    C     C_R   0.559734 0.796146 0.541152 0.358755
C9    C     C_R   0.551781 0.203724 0.547206 0.359554
C10   C     C_R   0.440265 0.796147 0.458849 0.358746
C11   C     C_R   0.500000 0.053274 0.500000 0.077619
C12   C     C_R   0.672045 0.500045 0.499976 0.889756
C13   C     C_R   0.500000 0.946587 0.500000 0.080588
C14   C     C_R   0.500058 0.500013 0.365762 0.933326
C15   C     C_R   0.499940 0.500013 0.634238 0.933324
C16   C     C_R   0.494283 0.415252 0.745843 -0.183131
C17   C     C_R   0.494931 0.585029 0.254045 -0.188359
C18   C     C_R   0.505779 0.415255 0.254159 -0.183146
C19   C     C_R   0.504964 0.585036 0.745953 -0.188275
C20   C     C_R   0.494394 0.414955 0.817755 0.266701
C21   C     C_R   0.494788 0.585477 0.182131 0.266173
C22   C     C_R   0.505656 0.414957 0.182247 0.266759
C23   C     C_R   0.187181 0.579876 0.523199 -0.148785
C24   C     C_R   0.505091 0.585488 0.817866 0.266072
C25   C     C_R   0.499833 0.500257 0.853682 -0.085407
C26   C     C_R   0.500123 0.500253 0.146322 -0.085532
C27   C     C_R   0.499746 0.500088 0.709665 -0.152992
C28   C     C_R   0.500241 0.500087 0.290336 -0.152978
C29   C     C_R   0.581087 0.501252 0.965681 -0.080302
C30   C     C_R   0.418866 0.499432 0.034331 -0.080290
C31   C     C_R   0.581155 0.501258 0.037566 -0.092642
C32   C     C_R   0.418797 0.499443 0.962446 -0.092647
C33   C     C_R   0.500045 0.500331 0.071507 0.153780
C34   C     C_R   0.814954 0.421358 0.523067 -0.149375
C35   C     C_R   0.499908 0.500336 0.928502 0.153729
C36   C     C_R   0.095212 0.580054 0.523536 -0.151591
C37   C     C_R   0.906876 0.422085 0.523756 -0.159424
C38   C     C_R   0.904789 0.580057 0.476473 -0.151595
C39   C     C_R   0.093124 0.422088 0.476242 -0.159428
C40   C     C_R   0.812820 0.579879 0.476808 -0.148798
C41   C     C_R   0.185046 0.421361 0.476929 -0.149390
C42   C     C_R   0.232123 0.500365 0.500107 -0.036696
C43   C     C_R   0.767877 0.500365 0.499894 -0.036700
C44   C     C_R   0.048125 0.501231 0.499878 0.103319
H1    H     H_    0.489739 0.349121 0.718505 0.218326
H2    H     H_    0.942797 0.361296 0.543156 0.150473
H3    H     H_    0.939060 0.641091 0.457130 0.149315
H4    H     H_    0.057203 0.361302 0.456837 0.150474
H5    H     H_    0.223023 0.641145 0.541834 0.173967
H6    H     H_    0.780973 0.359688 0.541407 0.199074
H7    H     H_    0.776978 0.641150 0.458178 0.173963
H8    H     H_    0.219027 0.359694 0.458584 0.199071
H9    H     H_    0.409398 0.071882 0.410978 0.185070
H10   H     H_    0.612732 0.927961 0.572159 0.181971
H11   H     H_    0.590604 0.071882 0.589021 0.185074
H12   H     H_    0.490804 0.651132 0.281296 0.218436
H13   H     H_    0.387267 0.927962 0.427843 0.181972
H14   H     H_    0.510411 0.349130 0.281500 0.218275
H15   H     H_    0.509013 0.651144 0.718699 0.218399
H16   H     H_    0.643703 0.501928 0.938988 0.160369
H17   H     H_    0.356251 0.498706 0.061026 0.160297
H18   H     H_    0.643825 0.501957 0.066760 0.156170
H19   H     H_    0.356126 0.498743 0.933254 0.156251
H20   H     H_    0.060942 0.641085 0.542885 0.149317
N1    N     N_R   0.500000 0.252470 0.500000 -0.143404
N2    N     N_R   0.500000 0.747530 0.500000 -0.147713
O1    O     O_R   0.369060 0.579480 0.500010 -0.593917
O2    O     O_R   0.630940 0.420520 0.499990 -0.600768
O3    O     O_R   0.630940 0.579480 0.499990 -0.593918
O4    O     O_R   0.369060 0.420520 0.500010 -0.600769
O5    O     O_R   0.500020 0.579510 0.398180 -0.599584
O6    O     O_R   0.499980 0.420490 0.601820 -0.593129
O7    O     O_R   0.499980 0.579510 0.601820 -0.599570
O8    O     O_R   0.500020 0.420490 0.398180 -0.593114
Zn1   Zn    Zn3+2 0.500000 0.606140 0.500000 1.029810
Zn2   Zn    Zn3+2 0.500000 0.393860 0.500000 1.030442

loop_
_geom_bond_atom_site_label_1
_geom_bond_atom_site_label_2
_ccdc_geom_bond_type
O5    Zn1   S    
C32   H19   S    
C6    C10   A    
N2    Zn1   S    
O6    Zn2   S    
C2    C44   S    
C34   H6    S    
C39   C41   A    
C3    C11   A    
C41   H8    S    
C12   O3    A    
Br2   C21   S    
C8    N2    A    
C14   O8    A    
C6    C13   A    
C11   C13   S    
C14   O5    A    
C12   C43   S    
O3    Zn1   S    
C29   H16   S    
C12   O2    A    
C3    C7    A    
C6    H13   S    
C40   C43   A    
C4    C8    A    
Br7   C9    S    
C38   H3    S    
C2    C38   A    
Br1   C20   S    
C15   O6    A    
N1    Zn2   S    
C34   C43   A    
C36   C44   A    
C30   H17   S    
C10   N2    A    
C9    N1    A    
O2    Zn2   S    
C26   C33   S    
O7    Zn1   S    
C32   C35   A    
C17   C21   A    
C38   C40   A    
C16   C27   A    
C23   C36   A    
C22   C26   A    
C18   H14   S    
C30   C33   A    
C31   C33   A    
C5    C11   A    
C19   C27   A    
C16   H1    S    
C4    C13   A    
Br8   C10   S    
C34   C37   A    
C25   C35   S    
C29   C35   A    
Br3   C22   S    
C4    H10   S    
C5    H11   S    
C2    C37   A    
Br4   C24   S    
C18   C28   A    
C7    N1    A    
C37   H2    S    
C18   C22   A    
O8    Zn2   S    
C23   C42   A    
C40   H7    S    
C15   O7    A    
C19   C24   A    
C1    C42   S    
C16   C20   A    
C3    H9    S    
C20   C25   A    
C39   C44   A    
C14   C28   S    
C15   C27   S    
C5    C9    A    
C24   C25   A    
C23   H5    S    
C29   C31   A    
C30   C32   A    
O1    Zn1   S    
C21   C26   A    
C31   H18   S    
C36   H20   S    
C1    O4    A    
Br5   C7    S    
C19   H15   S    
C17   C28   A    
Br6   C8    S    
O4    Zn2   S    
C41   C42   A    
C1    O1    A    
C17   H12   S    
C39   H4    S    
