data_mof_unit_32236.cif
_audit_creation_date              2012-12-10T19:46:53-0500
_audit_creation_method            fapswitch 2.2
_symmetry_space_group_name_H-M    P1
_symmetry_Int_Tables_number       1
_space_group_crystal_system       triclinic
_cell_length_a                    10.878365
_cell_length_b                    10.903953
_cell_length_c                    13.124964
_cell_angle_alpha                 90.573781
_cell_angle_beta                  90.107474
_cell_angle_gamma                 90.371186
_cell_volume                      1556.73256023

loop_
_atom_site_label
_atom_site_type_symbol
_atom_type_description
_atom_site_fract_x
_atom_site_fract_y
_atom_site_fract_z
_atom_type_partial_charge
C1    C     C_R   0.491568 0.259647 0.499307 0.855975
C2    C     C_R   0.508064 0.740386 0.500745 0.866117
C3    C     C_R   0.872907 0.496078 0.500693 -0.061539
C4    C     C_R   0.127249 0.505362 0.499409 -0.053094
C5    C     C_R   0.939027 0.442387 0.581008 0.055192
C6    C     C_R   0.061201 0.559566 0.419307 0.061759
C7    C     C_R   0.282686 0.224377 0.209305 -0.122286
C8    C     C_R   0.709055 0.773939 0.794639 -0.137935
C9    C     C_R   0.320506 0.176413 0.302541 -0.084740
C10   C     C_R   0.673530 0.821185 0.700526 -0.101580
C11   C     C_R   0.432801 0.114046 0.309874 0.088072
C12   C     C_R   0.562824 0.886019 0.691448 0.109004
C13   C     C_R   0.505901 0.099562 0.222476 -0.130112
C14   C     C_R   0.488912 0.903367 0.778058 -0.156214
C15   C     C_R   0.467930 0.148208 0.129480 -0.149410
C16   C     C_R   0.524611 0.855498 0.871944 -0.141432
C17   C     C_R   0.356372 0.210500 0.122902 -0.125937
C18   C     C_R   0.634689 0.790992 0.880244 -0.115297
C19   C     C_R   0.482631 0.932283 0.410578 -0.169731
C20   C     C_R   0.515994 0.067752 0.589762 -0.178843
C21   C     C_R   0.508604 0.873093 0.502102 -0.046710
C22   C     C_R   0.490402 0.126919 0.498187 -0.044617
C23   C     C_R   0.259654 0.504125 0.499812 0.886641
C24   C     C_R   0.740424 0.496724 0.500199 0.874471
C25   C     C_R   0.527246 0.941360 0.592940 0.026608
C26   C     C_R   0.470888 0.058613 0.407589 0.038978
C27   C     C_1   0.500060 0.500028 0.173584 0.162503
C28   C     C_1   0.499907 0.499923 0.826415 0.159526
C29   C     C_1   0.500015 0.499991 0.050682 -0.102925
C30   C     C_1   0.499926 0.499914 0.949317 -0.103911
C31   C     C_R   0.220767 0.808658 0.266295 -0.206976
C32   C     C_R   0.776764 0.195987 0.734852 -0.235010
C33   C     C_R   0.161458 0.750397 0.347721 0.467431
C34   C     C_R   0.836953 0.253085 0.653319 0.394795
C35   C     C_R   0.122064 0.627043 0.335778 -0.013019
C36   C     C_R   0.878277 0.375796 0.665013 0.006377
C37   C     C_R   0.140866 0.565987 0.242510 -0.185087
C38   C     C_R   0.860926 0.437289 0.758283 -0.181862
C39   C     C_R   0.200596 0.625012 0.162556 -0.130406
C40   C     C_R   0.800578 0.379344 0.838465 -0.129607
C41   C     C_R   0.240978 0.745983 0.174593 -0.188417
C42   C     C_R   0.758000 0.259087 0.826580 -0.165268
C43   C     C_R   0.933986 0.552754 0.420089 -0.167376
C44   C     C_R   0.066182 0.448902 0.580081 -0.182328
Cu1   Cu    Cu3+1 0.499990 0.499990 0.592680 1.005610
Cu2   Cu    Cu3+1 0.500010 0.500010 0.407320 1.011383
H1    H     H_    0.287300 0.791622 0.112509 0.147147
H2    H     H_    0.711040 0.214341 0.888788 0.145193
H3    H     H_    0.592223 0.050884 0.226526 0.148637
H4    H     H_    0.403717 0.953794 0.772727 0.127680
H5    H     H_    0.524768 0.137252 0.062430 0.130002
H6    H     H_    0.467174 0.868801 0.938357 0.127069
H7    H     H_    0.467266 0.879486 0.341226 0.141321
H8    H     H_    0.531070 0.120619 0.659114 0.145441
H9    H     H_    0.251165 0.902996 0.273282 0.173789
H10   H     H_    0.744481 0.102268 0.727978 0.161287
H11   H     H_    0.215699 0.576831 0.091212 0.140642
H12   H     H_    0.786547 0.427860 0.909810 0.139588
H13   H     H_    0.882414 0.595199 0.359176 0.152074
H14   H     H_    0.117715 0.406464 0.641024 0.148058
H15   H     H_    0.326954 0.247874 0.050831 0.131215
H16   H     H_    0.662361 0.754217 0.953004 0.131161
H17   H     H_    0.195881 0.271597 0.203870 0.131084
H18   H     H_    0.794554 0.724668 0.801357 0.124720
N1    N     N_1   0.500030 0.500030 0.268070 -0.132707
N2    N     N_1   0.499970 0.499970 0.731930 -0.132945
O1    O     O_R   0.499980 0.319630 0.578260 -0.593275
O2    O     O_R   0.500020 0.680370 0.421740 -0.591203
O3    O     O_R   0.500000 0.319650 0.421740 -0.560233
O4    O     O_R   0.500000 0.680350 0.578260 -0.562209
O5    O     O_R   0.319630 0.500000 0.578260 -0.575609
O6    O     O_R   0.680370 0.500000 0.421740 -0.574224
O7    O     O_R   0.319650 0.500020 0.421740 -0.591241
O8    O     O_R   0.680350 0.499980 0.578260 -0.588622
S1    S     S_3+6 0.134941 0.834088 0.461787 -0.018100
O9    O     O_2   0.164238 0.967642 0.447165 -0.288302
O10   O     O_2   0.002490 0.820346 0.492016 -0.285560
O11   O     O_3   0.224206 0.778866 0.555095 -0.579229
H19   H     H_    0.214801 0.837411 0.612708 0.367245
S2    S     S_3+6 0.861903 0.168611 0.539384 0.009764
O12   O     O_2   0.782351 0.218664 0.456148 -0.290855
O13   O     O_2   0.994208 0.179847 0.507853 -0.263595
O14   O     O_3   0.826644 0.019814 0.555291 -0.502511
H20   H     H_    0.885900 0.990796 0.606978 0.358671
H21   H     H_    0.109799 0.472203 0.232159 0.141458
H22   H     H_    0.893497 0.530620 0.768410 0.136057
H23   H     H_    0.262237 0.187303 0.368800 0.162327
H24   H     H_    0.732174 0.807406 0.634887 0.150018

loop_
_geom_bond_atom_site_label_1
_geom_bond_atom_site_label_2
_ccdc_geom_bond_type
C27   C29   S    
C39   C41   A    
Cu1   Cu2   S    
C10   H24   S    
C38   H22   S    
C37   H21   S    
C35   C37   A    
C2    O2    A    
C33   C35   A    
Cu1   O5    S    
C20   C25   A    
C39   H11   S    
C5    C36   S    
C6    C35   S    
C15   C17   A    
C19   C26   A    
Cu2   O3    S    
C17   H15   S    
C33   S1    S    
C7    C17   A    
Cu1   O1    S    
C31   C33   A    
C15   H5    S    
Cu2   O6    S    
C43   H13   S    
C34   S2    S    
C19   H7    S    
C40   C42   A    
C1    C22   S    
C20   H8    S    
C3    C24   S    
C23   O7    A    
S2    O14   S    
C40   H12   S    
C23   O5    A    
Cu2   N1    S    
S2    O13   D    
C4    C23   S    
O11   H19   S    
C18   H16   S    
C4    C44   A    
C11   C26   S    
C8    C18   A    
Cu1   O8    S    
C32   C34   A    
C28   N2    T    
S1    O9    D    
Cu2   O2    S    
C29   C30   T    
C27   N1    T    
S1    O10   D    
O14   H20   S    
C3    C43   A    
C2    C21   S    
C41   H1    S    
C16   C18   A    
C42   H2    S    
C9    C11   A    
C7    H17   S    
C10   C12   A    
C8    H18   S    
C13   H3    S    
C4    C6    A    
C5    C44   A    
C12   C14   A    
C6    C43   A    
C13   C15   A    
C14   C16   A    
C24   O6    A    
C7    C9    A    
C21   C25   A    
C31   C41   A    
C19   C21   A    
Cu1   O4    S    
C16   H6    S    
C20   C22   A    
S2    O12   D    
C3    C5    A    
C12   C25   S    
C28   C30   S    
C37   C39   A    
C9    H23   S    
C38   C40   A    
C11   C13   A    
C24   O8    A    
C14   H4    S    
C44   H14   S    
C36   C38   A    
C1    O1    A    
C34   C36   A    
S1    O11   S    
C1    O3    A    
C8    C10   A    
C22   C26   A    
Cu1   N2    S    
C32   C42   A    
C31   H9    S    
C2    O4    A    
C32   H10   S    
Cu2   O7    S    
