data_mof_unit_40861.cif
_audit_creation_date              2012-12-11T15:03:51-0500
_audit_creation_method            fapswitch 2.2
_symmetry_space_group_name_H-M    P1
_symmetry_Int_Tables_number       1
_space_group_crystal_system       triclinic
_cell_length_a                    8.282427
_cell_length_b                    15.07737
_cell_length_c                    18.837363
_cell_angle_alpha                 99.882747
_cell_angle_beta                  91.527842
_cell_angle_gamma                 98.734886
_cell_volume                      2287.21159532

loop_
_atom_site_label
_atom_site_type_symbol
_atom_type_description
_atom_site_fract_x
_atom_site_fract_y
_atom_site_fract_z
_atom_type_partial_charge
Ba1   Ba    Ba6+2 0.854120 0.540280 0.465540 1.694349
Ba2   Ba    Ba6+2 0.335710 0.459790 0.534460 1.672134
C1    C     C_3   0.619054 0.853310 0.274003 -0.316400
C2    C     C_3   0.645734 0.772860 0.309158 0.349182
C3    C     C_3   0.438660 0.310078 0.311473 0.260406
C4    C     C_3   0.381782 0.271214 0.233621 -0.372494
C5    C     C_3   0.071298 0.273168 0.731154 0.277026
C6    C     C_3   0.106421 0.251605 0.806255 0.204539
C7    C     C_3   0.560399 0.228318 0.713929 0.244367
C8    C     C_3   0.573792 0.160046 0.766645 -0.148257
C9    C     C_R   0.002191 0.448463 0.045168 0.013381
C10   C     C_R   0.911747 0.392807 0.088403 -0.064300
C11   C     C_R   0.768979 0.332658 0.057232 -0.115592
C12   C     C_3   0.136435 0.724131 0.274227 0.362683
C13   C     C_R   0.710905 0.336509 0.986401 0.470044
C14   C     C_R   0.786010 0.403961 0.949347 0.014767
C15   C     C_R   0.940015 0.452851 0.975095 -0.047842
C16   C     C_R   0.712072 0.422559 0.886099 -0.028961
C17   C     C_R   0.811901 0.460838 0.835009 -0.097476
C18   C     C_R   0.974061 0.503645 0.857961 0.060547
C19   C     C_R   0.032221 0.505099 0.930212 0.052057
C20   C     C_R   0.757549 0.456594 0.761749 -0.042091
C21   C     C_R   0.868449 0.488545 0.712939 -0.226006
C22   C     C_R   0.026509 0.535055 0.734946 0.121680
C23   C     C_3   0.126662 0.748618 0.199396 -0.344499
C24   C     C_R   0.076881 0.546785 0.809903 -0.034879
C25   C     C_R   0.154910 0.499667 0.071774 0.028799
C26   C     C_R   0.213871 0.500213 0.143492 0.013005
C27   C     C_R   0.113476 0.454110 0.190614 -0.018668
C28   C     C_R   0.966124 0.398935 0.161349 -0.029312
C29   C     C_R   0.225584 0.600804 0.839057 -0.059453
C30   C     C_R   0.280488 0.604900 0.911222 0.024979
C31   C     C_R   0.186770 0.553701 0.956022 0.036387
C32   C     C_R   0.248163 0.551109 0.026659 0.038464
C33   C     C_R   0.431798 0.656512 0.938577 -0.105263
C34   C     C_3   0.214535 0.753323 0.632471 0.281946
C35   C     C_R   0.494038 0.652576 0.007587 -0.104887
C36   C     C_R   0.403952 0.599372 0.051741 0.035818
C37   C     C_R   0.372517 0.547656 0.167899 -0.027740
C38   C     C_R   0.467020 0.594785 0.120697 -0.111733
C39   C     C_R   0.428440 0.550207 0.239925 -0.041709
C40   C     C_R   0.318137 0.516381 0.288093 -0.322950
C41   C     C_R   0.163400 0.465700 0.265463 -0.010381
C42   C     C_R   0.761226 0.235174 0.523618 -0.327912
C43   C     C_R   0.853896 0.177147 0.550085 0.005150
C44   C     C_R   0.795616 0.082615 0.538565 -0.050603
C45   C     C_3   0.159166 0.845645 0.657144 -0.292764
C46   C     C_R   0.649221 0.044812 0.495568 0.102907
C47   C     C_R   0.577523 0.105264 0.459547 -0.017848
C48   C     C_R   0.622726 0.199178 0.478545 -0.018414
C49   C     C_R   0.403483 0.914831 0.461916 0.341810
C50   C     C_R   0.334926 0.821605 0.455609 -0.068610
C51   C     C_R   0.581965 0.790233 0.511773 0.056016
C52   C     C_R   0.657180 0.880339 0.512256 -0.186805
C53   C     C_R   0.570543 0.945173 0.488188 0.022242
C54   C     C_R   0.421882 0.762700 0.484261 -0.337616
C55   C     C_3   0.979264 0.245549 0.366554 0.222178
C56   C     C_3   0.027496 0.152026 0.338572 -0.249842
C57   C     C_3   0.708258 0.682078 0.692403 0.647866
C58   C     C_3   0.608422 0.698593 0.758810 -0.339755
H1    H     H_    0.734850 0.797200 0.356082 0.104297
H2    H     H_    0.205727 0.873511 0.713725 0.082040
H3    H     H_    0.023488 0.836765 0.655669 0.147495
H4    H     H_    0.849351 0.236885 0.380205 0.005044
H5    H     H_    0.056941 0.279864 0.415183 0.063764
H6    H     H_    0.969385 0.125331 0.283546 0.145073
H7    H     H_    0.162017 0.159461 0.334157 0.081124
H8    H     H_    0.661282 0.612503 0.662347 0.045837
H9    H     H_    0.736009 0.884236 0.254404 0.167996
H10   H     H_    0.667444 0.759617 0.797648 0.090623
H11   H     H_    0.596391 0.638309 0.785960 0.068209
H12   H     H_    0.486483 0.711733 0.742402 0.120665
H13   H     H_    0.526564 0.745481 0.329178 -0.096032
H14   H     H_    0.572121 0.905408 0.313687 0.103865
H15   H     H_    0.332496 0.333156 0.339347 0.061649
H16   H     H_    0.539919 0.367880 0.312497 0.085059
H17   H     H_    0.259829 0.228137 0.230870 0.126417
H18   H     H_    0.373566 0.327238 0.203025 0.098040
H19   H     H_    0.469708 0.228166 0.209004 0.181559
H20   H     H_    0.528293 0.830048 0.227558 0.089779
H21   H     H_    0.151287 0.690839 0.158319 0.061471
H22   H     H_    0.151524 0.337777 0.726496 0.092632
H23   H     H_    0.942951 0.283695 0.726310 -0.015273
H24   H     H_    0.239147 0.251601 0.813396 0.129307
H25   H     H_    0.686251 0.257495 0.703628 -0.076092
H26   H     H_    0.044067 0.662670 0.274963 0.088150
H27   H     H_    0.641966 0.199787 0.816438 0.154085
H28   H     H_    0.827860 0.481054 0.656853 0.058585
H29   H     H_    0.892251 0.361717 0.195942 0.087667
H30   H     H_    0.300272 0.639632 0.805908 0.090455
H31   H     H_    0.504833 0.697646 0.905758 0.072332
H32   H     H_    0.613220 0.691132 0.026386 0.076091
H33   H     H_    0.588162 0.631115 0.137703 0.107707
H34   H     H_    0.260728 0.708566 0.284448 -0.080277
H35   H     H_    0.867304 0.040683 0.562774 0.149258
H36   H     H_    0.781394 0.899103 0.534247 0.143324
H37   H     H_    0.489210 0.081527 0.414779 0.125617
H38   H     H_    0.360053 0.696407 0.490361 0.076830
H39   H     H_    0.802729 0.308035 0.534153 0.073149
H40   H     H_    0.002640 0.763576 0.187296 0.146766
H41   H     H_    0.218616 0.809477 0.196439 0.117706
H42   H     H_    0.346498 0.763792 0.622032 -0.060145
H43   H     H_    0.142507 0.717440 0.582600 0.067419
O1    O     O_2   0.871030 0.438240 0.324420 -0.455772
O2    O     O_3   0.695942 0.751146 0.652211 -0.654710
O3    O     O_3   0.103956 0.797830 0.325416 -0.587677
O4    O     O_2   0.318670 0.561790 0.675630 -0.481928
O5    O     O_3   0.069120 0.554770 0.586270 -0.486428
O6    O     O_3   0.526680 0.394150 0.629950 -0.489054
O7    O     O_3   0.195265 0.706520 0.690294 -0.614582
O8    O     O_3   0.607620 0.388570 0.462320 -0.426797
O9    O     O_3   0.103380 0.345110 0.593380 -0.505903
O10   O     O_2   0.186147 0.183849 0.545076 -0.441912
O11   O     O_3   0.102819 0.201832 0.677291 -0.605628
O12   O     O_3   0.120590 0.445310 0.413740 -0.476220
O13   O     O_3   0.582100 0.611510 0.537680 -0.472138
O14   O     O_2   0.334040 0.276520 0.462890 -0.468620
O15   O     O_3   0.495545 0.241972 0.342459 -0.646742
O16   O     O_2   0.419648 0.462356 0.752072 -0.492420
O17   O     O_3   0.473560 0.296914 0.746376 -0.623376
O18   O     O_3   0.663040 0.605930 0.370050 -0.455095
O19   O     O_2   0.768294 0.540969 0.241985 -0.494350
O20   O     O_3   0.995066 0.293491 0.309150 -0.645269
O21   O     O_3   0.709606 0.708818 0.258665 -0.612479
O22   O     O_2   0.855660 0.723510 0.537160 -0.459725
O23   O     O_3   0.086340 0.654970 0.406630 -0.511925
O24   O     O_2   0.993860 0.815235 0.453447 -0.455136
P1    P     P_3+3 0.038110 0.412300 0.335300 0.983040
P2    P     P_3+3 0.679950 0.711710 0.558590 1.014121
P3    P     P_3+3 0.130033 0.772788 0.412066 0.964703
P4    P     P_3+3 0.151600 0.587780 0.664700 1.034307
P5    P     P_3+3 0.058873 0.227061 0.592005 0.993186
P6    P     P_3+3 0.642599 0.599354 0.276185 0.954129
P7    P     P_3+3 0.513767 0.274924 0.436324 0.983873
P8    P     P_3+3 0.548093 0.403184 0.723140 0.923496
C59   C     C_2   0.223060 0.913923 0.612210 0.487369
H44   H     H_    0.353827 0.929980 0.607390 0.043156
O25   O     O_2   0.129883 0.953326 0.582631 -0.518390
C60   C     C_2   0.978280 0.083788 0.385934 0.403097
H45   H     H_    0.039570 0.090698 0.438218 0.077346
O26   O     O_2   0.873350 0.017790 0.364751 -0.600693
O27   O     O_3   0.871513 0.686426 0.714807 -0.780492
H46   H     H_    0.910974 0.748969 0.741709 0.306298
O28   O     O_3   0.062199 0.319755 0.858765 -0.733743
H47   H     H_    0.116184 0.314606 0.905290 0.361200
C61   C     C_2   0.018226 0.159481 0.815198 0.571875
H48   H     H_    0.034507 0.099098 0.777270 0.026590
O29   O     O_2   0.930680 0.151195 0.865585 -0.576194
C62   C     C_2   0.478059 0.184768 0.641483 0.557399
H49   H     H_    0.464524 0.227192 0.601833 0.040227
O30   O     O_2   0.428352 0.103210 0.625702 -0.585299
C63   C     C_2   0.668860 0.084589 0.739506 0.425287
H50   H     H_    0.664459 0.026737 0.767109 0.043411
O31   O     O_2   0.755527 0.088188 0.688591 -0.613012
C64   C     C_2   0.409621 0.116866 0.787036 0.439347
H51   H     H_    0.318189 0.080313 0.745816 0.034484
O32   O     O_2   0.379185 0.120374 0.850413 -0.540698
C65   C     C_2   0.680268 0.264816 0.097026 0.475356
H52   H     H_    0.743505 0.237838 0.137612 -0.006958
O33   O     O_2   0.534152 0.237555 0.084278 -0.549138
O34   O     O_3   0.591542 0.269586 0.949230 -0.621844
H53   H     H_    0.611112 0.210064 0.960311 0.350778
C66   C     C_2   0.541005 0.439833 0.890244 0.574789
H54   H     H_    0.512190 0.500249 0.872954 -0.020543
O35   O     O_2   0.434446 0.391610 0.915745 -0.523313
C67   C     C_2   0.361403 0.542597 0.364533 0.604146
H55   H     H_    0.351275 0.610127 0.389974 -0.071359
O36   O     O_2   0.424657 0.492665 0.397103 -0.541180
O37   O     O_3   0.305662 0.978480 0.451332 -0.718904
H56   H     H_    0.196326 0.949403 0.430392 0.339699

loop_
_geom_bond_atom_site_label_1
_geom_bond_atom_site_label_2
_ccdc_geom_bond_type
C56   C60   S    
C46   C53   S    
C5    H23   S    
Ba2   O6    S    
O10   P5    D    
C45   C59   S    
C64   O32   D    
C60   O26   D    
C39   C40   A    
C17   C18   A    
Ba1   P1    S    
C54   H38   S    
C38   H33   S    
C45   H2    S    
C39   P6    S    
O34   H53   S    
C55   C56   S    
C5    C6    S    
C37   C39   A    
C51   C52   A    
C10   C11   A    
Ba2   O9    S    
C57   O2    S    
O21   P6    S    
C34   H43   S    
C5    O11   S    
C26   C27   A    
C66   O35   D    
C35   C36   A    
Ba1   O22   S    
Ba1   Ba2   S    
Ba1   P2    S    
C62   O30   D    
C45   H3    S    
C3    C4    S    
C42   H39   S    
C4    H18   S    
O6    P8    S    
O23   P3    S    
C13   C14   A    
Ba2   O4    S    
C2    O21   S    
C34   C45   S    
C34   H42   S    
C16   C17   A    
Ba2   O12   S    
C1    H14   S    
O5    P4    S    
C8    C63   S    
Ba2   O13   S    
C56   H6    S    
O13   P2    S    
C66   H54   S    
C57   O27   S    
C14   C15   A    
C21   C22   A    
Ba1   O13   S    
C9    C25   A    
C7    C8    S    
C52   H36   S    
O15   P7    S    
C7    H25   S    
C57   C58   S    
C6    H24   S    
C27   C41   A    
C67   O36   D    
C28   H29   S    
C1    H20   S    
Ba2   O14   S    
Ba2   P4    S    
C61   O29   D    
C25   C32   A    
Ba2   O8    S    
C44   C46   A    
C8    H27   S    
C44   H35   S    
C50   C54   A    
C49   C50   A    
C30   C33   A    
C49   O37   S    
C17   C20   A    
Ba1   O23   S    
C12   H26   S    
O4    P4    D    
C48   P7    S    
C37   C38   A    
C59   H44   S    
C4    H17   S    
O2    P2    S    
C26   C37   A    
C43   C44   A    
C10   C28   A    
C2    H1    S    
C15   C19   A    
O12   P1    S    
O14   P7    D    
C3    H15   S    
O19   P6    D    
C27   C28   A    
C57   H8    S    
C55   O20   S    
C16   C66   S    
C23   H40   S    
Ba1   O18   S    
C29   C30   A    
O1    P1    D    
C58   H10   S    
C60   H45   S    
C29   H30   S    
C7    C62   S    
C31   C32   A    
O7    P4    S    
C6    O28   S    
O37   H56   S    
O9    P5    S    
Ba1   O1    S    
C2    H13   S    
C59   O25   D    
C46   C47   A    
C63   O31   D    
C21   H28   S    
C11   C13   A    
C34   O7    S    
C67   H55   S    
C51   P2    S    
C40   C41   A    
C1    C2    S    
C11   C65   S    
C64   H51   S    
C42   C43   A    
C33   C35   A    
C55   H4    S    
C61   H48   S    
C51   C54   A    
C42   C48   A    
O3    P3    S    
C52   C53   A    
C9    C15   A    
C35   H32   S    
C1    H9    S    
C32   C36   A    
O11   P5    S    
C13   O34   S    
C6    C61   S    
C22   C24   A    
C55   H5    S    
O28   H47   S    
C23   H21   S    
C8    C64   S    
C9    C10   A    
O8    P7    S    
C20   P8    S    
C58   H11   S    
C3    O15   S    
O17   P8    S    
C50   P3    S    
C30   C31   A    
C3    H16   S    
O24   P3    D    
C62   H49   S    
Ba1   O8    S    
C36   C38   A    
C65   O33   D    
C22   P4    S    
C23   H41   S    
C4    H19   S    
C65   H52   S    
C41   P1    S    
C18   C24   A    
Ba2   O5    S    
C49   C53   A    
C12   C23   S    
O16   P8    D    
Ba1   O5    S    
C47   H37   S    
O22   P2    D    
C56   H7    S    
C24   C29   A    
C5    H22   S    
C19   C31   A    
C18   C19   A    
C43   P5    S    
C14   C16   A    
C47   C48   A    
C12   O3    S    
O20   P1    S    
C25   C26   A    
O27   H46   S    
C7    O17   S    
C58   H12   S    
C20   C21   A    
C63   H50   S    
Ba1   O12   S    
O18   P6    S    
C12   H34   S    
C40   C67   S    
C33   H31   S    
