data_mof_unit_12794.cif
_audit_creation_date              2012-12-10T17:54:19-0500
_audit_creation_method            fapswitch 2.2
_symmetry_space_group_name_H-M    P1
_symmetry_Int_Tables_number       1
_space_group_crystal_system       triclinic
_cell_length_a                    27.704489
_cell_length_b                    10.634376
_cell_length_c                    9.930429
_cell_angle_alpha                 89.320064
_cell_angle_beta                  89.281939
_cell_angle_gamma                 91.850248
_cell_volume                      2923.72707906

loop_
_atom_site_label
_atom_site_type_symbol
_atom_type_description
_atom_site_fract_x
_atom_site_fract_y
_atom_site_fract_z
_atom_type_partial_charge
C1    C     C_R   0.501804 0.260977 0.500786 0.858336
C2    C     C_R   0.277151 0.480728 0.387711 -0.076886
C3    C     C_R   0.252816 0.482327 0.511807 0.308465
C4    C     C_R   0.101500 0.483781 0.525243 -0.067874
C5    C     C_R   0.125031 0.367705 0.515489 -0.050353
C6    C     C_R   0.096740 0.254395 0.513042 0.001865
C7    C     C_R   0.129200 0.596839 0.536480 -0.021237
C8    C     C_R   0.353358 0.493380 0.503936 -0.044234
C9    C     C_R   0.646475 0.509162 0.495582 -0.077235
C10   C     C_R   0.971209 0.378284 0.516333 0.055343
C11   C     C_R   0.977023 0.610537 0.512706 0.047266
C12   C     C_R   0.406103 0.498591 0.500893 0.831314
C13   C     C_R   0.948935 0.496684 0.511207 0.070266
C14   C     C_R   0.941188 0.267927 0.523033 -0.208413
C15   C     C_R   0.891327 0.273759 0.518971 -0.140225
C16   C     C_R   0.869364 0.389499 0.508621 -0.028827
C17   C     C_R   0.897951 0.501371 0.504794 -0.051094
C18   C     C_R   0.875425 0.617974 0.494816 -0.030547
C19   C     C_R   0.825040 0.620388 0.489074 0.539368
C20   C     C_R   0.819110 0.396245 0.503556 0.543756
C21   C     C_R   0.722222 0.479244 0.374162 0.553322
C22   C     C_R   0.671436 0.479077 0.377020 -0.348739
C23   C     C_R   0.500336 0.739260 0.499254 0.863045
C24   C     C_R   0.671986 0.546501 0.609882 -0.258879
C25   C     C_R   0.722014 0.548731 0.607608 -0.210487
C26   C     C_R   0.746917 0.514704 0.491028 0.255796
C27   C     C_R   0.022410 0.374126 0.515183 0.050972
C28   C     C_R   0.050370 0.487720 0.522747 0.073541
C29   C     C_R   0.027724 0.605807 0.526561 0.049479
C30   C     C_R   0.046612 0.259547 0.507896 -0.283727
C31   C     C_R   0.106442 0.711175 0.549674 -0.117780
C32   C     C_R   0.953327 0.725798 0.498211 -0.209927
C33   C     C_R   0.903489 0.729176 0.489943 -0.134519
C34   C     C_R   0.593837 0.502577 0.498986 0.886020
C35   C     C_R   0.056694 0.715790 0.545281 -0.216065
C36   C     C_R   0.580356 0.132088 0.630828 -0.333693
C37   C     C_R   0.617987 0.066345 0.693403 0.595588
C38   C     C_R   0.617537 0.935763 0.682891 -0.180069
C39   C     C_R   0.580767 0.871122 0.616087 -0.245177
C40   C     C_R   0.541762 0.935511 0.560015 0.120516
C41   C     C_R   0.542076 0.066742 0.565167 0.045343
C42   C     C_R   0.504046 0.128770 0.502163 -0.098822
C43   C     C_R   0.466607 0.065111 0.437456 -0.178213
C44   C     C_R   0.464557 0.935801 0.436602 -0.052510
C45   C     C_R   0.175932 0.371194 0.503281 0.535859
C46   C     C_R   0.502432 0.872071 0.497763 -0.144284
C47   C     C_R   0.433462 0.343109 0.143569 -0.261702
C48   C     C_R   0.399574 0.267961 0.075824 -0.039656
C49   C     C_R   0.400236 0.268046 0.935558 -0.156845
C50   C     C_R   0.433928 0.343012 0.864109 -0.204743
C51   C     C_R   0.466907 0.423976 0.929837 0.173101
C52   C     C_R   0.466761 0.424160 0.074183 0.161828
C53   C     C_R   0.533888 0.567097 0.067403 0.018238
C54   C     C_R   0.533256 0.567182 0.924825 -0.184983
C55   C     C_R   0.179439 0.593382 0.534404 0.513579
C56   C     C_R   0.278430 0.488380 0.631829 -0.082551
C57   C     C_R   0.328524 0.493747 0.628154 -0.199760
C58   C     C_R   0.327361 0.486209 0.383587 -0.217470
H1    H     H_    0.345702 0.485065 0.286669 0.165534
H2    H     H_    0.259400 0.489812 0.727702 0.147318
H3    H     H_    0.127069 0.798494 0.562237 0.208601
H4    H     H_    0.972293 0.815583 0.489510 0.136630
H5    H     H_    0.653290 0.573048 0.701120 0.163259
H6    H     H_    0.887044 0.819810 0.479573 0.187646
H7    H     H_    0.741633 0.575292 0.697087 0.162739
H8    H     H_    0.042048 0.807375 0.559333 0.138340
H9    H     H_    0.437950 0.117464 0.391749 0.159091
H10   H     H_    0.580266 0.233050 0.633433 0.160569
H11   H     H_    0.257108 0.476383 0.294874 0.146729
H12   H     H_    0.646208 0.883128 0.727690 0.168491
H13   H     H_    0.583450 0.770215 0.609549 0.169720
H14   H     H_    0.433530 0.333292 0.250216 0.194383
H15   H     H_    0.375095 0.208508 0.880550 0.196985
H16   H     H_    0.433728 0.333195 0.757551 0.212944
H17   H     H_    0.560254 0.621762 0.867494 0.141763
H18   H     H_    0.651174 0.455133 0.288072 0.145565
H19   H     H_    0.870007 0.186545 0.524179 0.193800
H20   H     H_    0.954713 0.174761 0.534292 0.140715
H21   H     H_    0.027384 0.170488 0.499424 0.123611
H22   H     H_    0.347684 0.498617 0.722450 0.172555
N1    N     N_R   0.201443 0.482153 0.516355 -0.367587
N2    N     N_R   0.798228 0.510493 0.493839 -0.336905
N3    N     N_R   0.499540 0.498800 0.142780 -0.128711
N4    N     N_R   0.499520 0.498720 0.857170 -0.115266
O1    O     O_R   0.500000 0.316780 0.614690 -0.638633
O2    O     O_2   0.791194 0.289801 0.509071 -0.565523
O3    O     O_2   0.206332 0.700610 0.547834 -0.517296
O4    O     O_2   0.802914 0.731279 0.478685 -0.544588
O5    O     O_R   0.500000 0.316750 0.385360 -0.634686
O6    O     O_R   0.428760 0.500030 0.614650 -0.633652
O7    O     O_R   0.428750 0.500010 0.385320 -0.647272
O8    O     O_R   0.500000 0.683250 0.614640 -0.613564
O9    O     O_R   0.500000 0.683220 0.385310 -0.554918
O10   O     O_R   0.571250 0.499990 0.614680 -0.642798
O11   O     O_R   0.571240 0.499970 0.385350 -0.593487
O12   O     O_2   0.200016 0.266468 0.474657 -0.493727
Zn1   Zn    Zn3+2 0.500000 0.500020 0.653130 0.935031
Zn2   Zn    Zn3+2 0.500000 0.499980 0.346870 0.979500
O13   O     O_3   0.655504 0.119652 0.769042 -0.621764
C59   C     C_3   0.659310 0.252441 0.767359 0.142756
H23   H     H_    0.653703 0.293840 0.666024 0.135464
H24   H     H_    0.697218 0.279451 0.791853 0.182652
C60   C     C_3   0.627100 0.307967 0.876271 -0.878711
H25   H     H_    0.636481 0.268803 0.976392 0.254388
H26   H     H_    0.632802 0.411695 0.878091 0.205649
H27   H     H_    0.588355 0.286194 0.857860 0.264594
C61   C     C_2   0.421765 0.869354 0.377007 0.458589
H28   H     H_    0.415811 0.768763 0.390312 0.070395
O14   O     O_2   0.392115 0.926798 0.312754 -0.544107
C62   C     C_2   0.574937 0.635898 0.128503 0.467357
H29   H     H_    0.610957 0.625641 0.086570 0.009104
O15   O     O_2   0.569168 0.711360 0.217906 -0.524690
C63   C     C_2   0.364047 0.188683 0.153693 0.498728
H30   H     H_    0.363534 0.191608 0.262947 0.065721
O16   O     O_2   0.334827 0.119682 0.097196 -0.506895
C64   C     C_2   0.116621 0.126863 0.523933 0.519257
H31   H     H_    0.102099 0.051498 0.462050 0.020504
O17   O     O_2   0.146390 0.102445 0.609211 -0.497707
O18   O     O_3   0.749612 0.453899 0.259428 -0.606095
C65   C     C_3   0.727301 0.362402 0.176618 0.090419
H32   H     H_    0.699603 0.406553 0.113037 0.134625
H33   H     H_    0.710662 0.282828 0.237001 0.158630
C66   C     C_3   0.765175 0.308947 0.083152 -0.751032
H34   H     H_    0.793722 0.264412 0.143140 0.268734
H35   H     H_    0.748061 0.236984 0.017363 0.215336
H36   H     H_    0.781858 0.385173 0.018907 0.250519

loop_
_geom_bond_atom_site_label_1
_geom_bond_atom_site_label_2
_ccdc_geom_bond_type
C53   C62   S    
C10   C27   A    
C21   C26   A    
C38   H12   S    
C20   N2    A    
C41   C42   A    
C31   H3    S    
C12   O7    A    
C22   H18   S    
C54   N4    A    
O11   Zn2   S    
C66   H34   S    
C15   H19   S    
C53   C54   A    
C56   C57   A    
C40   C46   A    
N4    Zn1   S    
C12   O6    A    
C36   C37   A    
C50   H16   S    
C38   C39   A    
C9    C22   A    
C66   H35   S    
C15   C16   A    
C64   H31   S    
C18   C19   A    
C62   H29   S    
C60   H25   S    
C8    C58   A    
C47   C48   A    
C44   C46   A    
C16   C17   A    
N3    Zn2   S    
C20   O2    S    
C3    N1    S    
C61   H28   S    
C7    C55   A    
C55   N1    A    
C2    H11   S    
O6    Zn1   S    
C65   C66   S    
C8    C12   S    
C26   N2    S    
C23   C46   S    
C21   C22   A    
C27   C30   A    
C61   O14   D    
C57   H22   S    
C36   C41   A    
C4    C7    A    
C4    C28   A    
C65   H33   S    
O8    Zn1   S    
C50   C51   A    
C1    O1    A    
C7    C31   A    
C51   C52   A    
C25   H7    S    
C24   C25   A    
C19   O4    S    
C10   C14   A    
C39   C40   A    
C66   H36   S    
C35   H8    S    
C58   H1    S    
C5    C45   A    
C59   C60   S    
C23   O9    A    
C52   N3    A    
C43   C44   A    
C37   C38   A    
C8    C57   A    
C3    C56   A    
O13   C59   S    
C16   C20   A    
C36   H10   S    
C59   H24   S    
C17   C18   A    
C60   H26   S    
C34   O11   A    
C6    C64   S    
C30   H21   S    
C40   C41   A    
C6    C30   A    
C11   C32   A    
C24   H5    S    
C9    C34   S    
C31   C35   A    
C42   C43   A    
C19   N2    A    
C37   O13   S    
C65   H32   S    
C63   H30   S    
C44   C61   S    
C28   C29   A    
C1    O5    A    
C14   C15   A    
C45   N1    A    
C34   O10   A    
C4    C5    A    
C10   C13   A    
O18   C65   S    
C2    C58   A    
C9    C24   A    
C47   C52   A    
C29   C35   A    
O10   Zn1   S    
C13   C17   A    
O5    Zn2   S    
C53   N3    A    
C32   C33   A    
C2    C3    A    
C25   C26   A    
C32   H4    S    
C21   O18   S    
C11   C13   A    
C5    C6    A    
C33   H6    S    
C48   C49   A    
O9    Zn2   S    
C59   H23   S    
C64   O17   D    
C60   H27   S    
C49   H15   S    
C14   H20   S    
O7    Zn2   S    
C55   O3    S    
C18   C33   A    
C62   O15   D    
C47   H14   S    
O1    Zn1   S    
C54   H17   S    
C56   H2    S    
C1    C42   S    
C11   C29   A    
C43   H9    S    
C49   C50   A    
C27   C28   A    
C39   H13   S    
C23   O8    A    
C45   O12   S    
C51   N4    A    
C48   C63   S    
C63   O16   D    
