data_mof_unit_23546.cif
_audit_creation_date              2012-12-10T16:49:25-0500
_audit_creation_method            fapswitch 2.2
_symmetry_space_group_name_H-M    P1
_symmetry_Int_Tables_number       1
_space_group_crystal_system       triclinic
_cell_length_a                    7.82434
_cell_length_b                    8.600937
_cell_length_c                    12.733865
_cell_angle_alpha                 89.089606
_cell_angle_beta                  86.92978
_cell_angle_gamma                 92.590206
_cell_volume                      854.698222284

loop_
_atom_site_label
_atom_site_type_symbol
_atom_type_description
_atom_site_fract_x
_atom_site_fract_y
_atom_site_fract_z
_atom_type_partial_charge
C1    C     C_R   0.456534 0.206097 0.497500 0.927607
C2    C     C_R   0.617047 0.341949 0.147116 0.273870
C3    C     C_R   0.491578 0.398751 0.872953 0.399800
C4    C     C_R   0.508424 0.601251 0.127047 0.399801
C5    C     C_R   0.525802 0.427887 0.977795 -0.203063
C6    C     C_R   0.474199 0.572113 0.022205 -0.203063
C7    C     C_2   0.442154 0.046075 0.479634 0.147045
C8    C     C_2   0.557847 0.953924 0.520365 0.147042
C9    C     C_R   0.543466 0.793903 0.502499 0.927606
C10   C     C_R   0.464866 0.506549 0.699265 0.985532
C11   C     C_R   0.535134 0.493452 0.300735 0.985533
C12   C     C_R   0.559800 0.480111 0.189561 -0.291797
C13   C     C_R   0.440200 0.519889 0.810439 -0.291794
C14   C     C_R   0.388279 0.679974 0.960496 0.457177
C15   C     C_R   0.611717 0.320023 0.039505 0.457184
C16   C     C_R   0.382946 0.658047 0.852885 0.273864
Cl1   Cl    Cl    0.515062 0.790308 0.181279 -0.361951
Cl2   Cl    Cl    0.706627 0.009953 0.615433 -0.365506
Cl3   Cl    Cl    0.484944 0.209696 0.818720 -0.361959
Cl4   Cl    Cl    0.694240 0.195029 0.229056 -0.398292
Cl5   Cl    Cl    0.305739 0.804965 0.770943 -0.398284
Cl6   Cl    Cl    0.269021 0.833371 0.013820 -0.290408
Cl7   Cl    Cl    0.730974 0.166628 0.986183 -0.290411
Cl8   Cl    Cl    0.980559 0.661498 0.376147 -0.310700
Cl9   Cl    Cl    0.019441 0.338502 0.623854 -0.310699
Cl10  Cl    Cl    0.293376 0.990047 0.384565 -0.365505
N1    N     N_2   0.054030 0.541640 0.471970 0.133880
N2    N     N_2   0.945970 0.458360 0.528030 0.133880
O1    O     O_R   0.609680 0.261530 0.506880 -0.577443
O2    O     O_R   0.390320 0.738470 0.493120 -0.577444
O3    O     O_R   0.323330 0.288220 0.488910 -0.571264
O4    O     O_R   0.676670 0.711780 0.511090 -0.571263
O5    O     O_R   0.619510 0.488830 0.661140 -0.580187
O6    O     O_R   0.380490 0.511170 0.338860 -0.580188
O7    O     O_R   0.333160 0.515520 0.643180 -0.572712
O8    O     O_R   0.666840 0.484480 0.356820 -0.572713
Zn1   Zn    Zn3+2 0.691200 0.482180 0.511990 1.198412
Zn2   Zn    Zn3+2 0.308800 0.517820 0.488010 1.198412

loop_
_geom_bond_atom_site_label_1
_geom_bond_atom_site_label_2
_ccdc_geom_bond_type
C11   C12   S    
O3    Zn2   S    
C3    Cl3   S    
C16   Cl5   S    
C4    C12   A    
C3    C13   A    
Cl8   N1    S    
C2    C12   A    
C14   Cl6   S    
C15   Cl7   S    
C7    C8    D    
C1    C7    S    
O4    Zn1   S    
Cl9   N2    S    
C2    C15   A    
C10   O7    A    
C7    Cl10  S    
N2    Zn1   S    
C4    Cl1   S    
C9    O2    A    
C1    O1    A    
C11   O8    A    
C10   O5    A    
C5    C6    A    
C14   C16   A    
C5    C15   A    
C6    C14   A    
C8    Cl2   S    
N1    Zn2   S    
C2    Cl4   S    
C1    O3    A    
O7    Zn2   S    
O2    Zn2   S    
C4    C6    A    
C13   C16   A    
O1    Zn1   S    
N1    N2    D    
O8    Zn1   S    
C9    O4    A    
O6    Zn2   S    
C11   O6    A    
O5    Zn1   S    
C8    C9    S    
C3    C5    A    
C10   C13   S    
