data_mof_unit_25488.cif
_audit_creation_date              2012-10-26T17:11:03-0400
_audit_creation_method            fapswitch 2.2
_symmetry_space_group_name_H-M    P1
_symmetry_Int_Tables_number       1
_space_group_crystal_system       triclinic
_cell_length_a                    27.892753
_cell_length_b                    18.727821
_cell_length_c                    16.814207
_cell_angle_alpha                 89.876371
_cell_angle_beta                  63.471412
_cell_angle_gamma                 89.655975
_cell_volume                      7858.32875859

loop_
_atom_site_label
_atom_site_type_symbol
_atom_type_description
_atom_site_fract_x
_atom_site_fract_y
_atom_site_fract_z
_atom_type_partial_charge
C1    C     C_R   0.295075 0.728716 0.329404 0.562557
C2    C     C_R   0.466770 0.121512 0.454059 -0.107622
C3    C     C_R   0.926068 0.096884 0.066242 0.570097
C4    C     C_R   0.425852 0.403593 0.066499 0.570053
C5    C     C_R   0.574059 0.596321 0.933443 0.581135
C6    C     C_R   0.573989 0.403462 0.933581 0.581203
C7    C     C_R   0.426068 0.596884 0.066242 0.570096
C8    C     C_R   0.037518 0.500182 0.543480 0.034613
C9    C     C_R   0.945356 0.501551 0.512962 0.033606
C10   C     C_R   0.537518 0.000182 0.543480 0.034613
C11   C     C_R   0.445356 0.001551 0.512962 0.033606
C12   C     C_R   0.018742 0.564643 0.523427 -0.017252
C13   C     C_R   0.419373 0.886074 0.582661 -0.107808
C14   C     C_R   0.958401 0.439793 0.548321 -0.007659
C15   C     C_R   0.976751 0.563438 0.497720 -0.017225
C16   C     C_R   0.007679 0.436964 0.555415 0.007492
C17   C     C_R   0.518742 0.064644 0.523427 -0.017252
C18   C     C_R   0.458401 0.939793 0.548321 -0.007659
C19   C     C_R   0.476751 0.063438 0.497720 -0.017225
C20   C     C_R   0.507679 0.936964 0.555415 0.007492
C21   C     C_R   0.107405 0.434956 0.566401 0.016457
C22   C     C_R   0.886908 0.563958 0.459820 -0.036714
C23   C     C_R   0.865166 0.442559 0.518870 -0.043927
C24   C     C_R   0.538124 0.128923 0.540326 -0.109115
C25   C     C_R   0.109720 0.565791 0.557009 -0.043620
C26   C     C_R   0.607405 0.934956 0.566401 0.016457
C27   C     C_R   0.386908 0.063958 0.459820 -0.036714
C28   C     C_R   0.365166 0.942559 0.518870 -0.043927
C29   C     C_R   0.609720 0.065791 0.557009 -0.043620
C30   C     C_R   0.160959 0.434316 0.557717 0.012514
C31   C     C_R   0.837349 0.565498 0.453870 -0.027838
C32   C     C_R   0.826416 0.438169 0.484505 -0.063778
C33   C     C_R   0.161966 0.565710 0.553910 -0.059801
C34   C     C_R   0.660959 0.934316 0.557717 0.012513
C35   C     C_R   0.026269 0.374643 0.580181 -0.160378
C36   C     C_R   0.337349 0.065498 0.453870 -0.027838
C37   C     C_R   0.326416 0.938169 0.484505 -0.063777
C38   C     C_R   0.661966 0.065710 0.553910 -0.059801
C39   C     C_R   0.184262 0.499899 0.563048 -0.035901
C40   C     C_R   0.814440 0.500498 0.448713 -0.027020
C41   C     C_R   0.684262 0.999899 0.563048 -0.035901
C42   C     C_R   0.314440 0.000498 0.448713 -0.027020
C43   C     C_R   0.085504 0.500095 0.554214 -0.002602
C44   C     C_R   0.899540 0.502376 0.496132 0.009083
C45   C     C_R   0.585504 0.000095 0.554214 -0.002602
C46   C     C_R   0.966770 0.621512 0.454059 -0.107623
C47   C     C_R   0.399540 0.002376 0.496132 0.009083
C48   C     C_R   0.573074 0.874406 0.591886 0.023879
C49   C     C_R   0.424653 0.120482 0.429869 0.033585
C50   C     C_R   0.371208 0.890460 0.575326 0.026804
C51   C     C_R   0.578063 0.128477 0.569326 0.034283
C52   C     C_R   0.073074 0.374406 0.591885 0.023879
C53   C     C_R   0.924653 0.620482 0.429869 0.033585
C54   C     C_R   0.871208 0.390460 0.575326 0.026804
C55   C     C_R   0.078063 0.628477 0.569327 0.034283
C56   C     C_2   0.228795 0.499377 0.588341 0.297412
C57   C     C_R   0.919373 0.386074 0.582661 -0.107809
C58   C     C_2   0.780671 0.499481 0.400887 0.280225
C59   C     C_2   0.728795 0.999377 0.588341 0.297412
C60   C     C_2   0.280671 0.999481 0.400887 0.280226
C61   C     C_2   0.577652 0.815868 0.647879 0.269810
C62   C     C_2   0.425816 0.172741 0.362454 0.260748
C63   C     C_2   0.324422 0.850783 0.641030 0.263622
C64   C     C_2   0.576778 0.186217 0.630986 0.278085
C65   C     C_2   0.077652 0.315868 0.647879 0.269810
C66   C     C_2   0.925816 0.672741 0.362454 0.260748
C67   C     C_2   0.824422 0.350784 0.641030 0.263623
C68   C     C_R   0.038124 0.628923 0.540326 -0.109114
C69   C     C_2   0.076778 0.686217 0.630987 0.278085
C70   C     C_R   0.210747 0.742960 0.958178 0.054771
C71   C     C_R   0.767129 0.217119 0.058033 0.063472
C72   C     C_R   0.767796 0.783305 0.057109 0.064566
C73   C     C_R   0.705498 0.272580 0.670066 0.535124
C74   C     C_R   0.211320 0.254855 0.958110 0.058736
C75   C     C_R   0.710747 0.242960 0.958178 0.054771
C76   C     C_R   0.267129 0.717119 0.058033 0.063472
C77   C     C_R   0.267796 0.283305 0.057109 0.064566
C78   C     C_R   0.711321 0.754855 0.958109 0.058736
C79   C     C_R   0.262997 0.768612 0.928977 -0.107118
C80   C     C_R   0.714883 0.191112 0.087646 -0.108512
C81   C     C_R   0.714696 0.807091 0.087832 -0.112530
C82   C     C_R   0.264464 0.231536 0.927693 -0.114703
C83   C     C_R   0.762997 0.268611 0.928977 -0.107117
C84   C     C_R   0.705993 0.726464 0.669733 0.592214
C85   C     C_R   0.214883 0.691112 0.087646 -0.108512
C86   C     C_R   0.214696 0.307091 0.087832 -0.112530
C87   C     C_R   0.764464 0.731536 0.927693 -0.114703
C88   C     C_R   0.290885 0.755969 0.978560 -0.076014
C89   C     C_R   0.686788 0.203860 0.037743 -0.069477
C90   C     C_R   0.686600 0.793144 0.038343 -0.069462
C91   C     C_R   0.292377 0.245434 0.976852 -0.073210
C92   C     C_R   0.790885 0.255969 0.978560 -0.076014
C93   C     C_R   0.186788 0.703860 0.037742 -0.069477
C94   C     C_R   0.186600 0.293144 0.038344 -0.069462
C95   C     C_R   0.294980 0.271502 0.329499 0.551239
C96   C     C_R   0.792377 0.745433 0.976853 -0.073210
C97   C     C_R   0.136394 0.811843 0.949924 0.064967
C98   C     C_R   0.846075 0.158574 0.062208 0.066054
C99   C     C_R   0.845906 0.842664 0.062343 0.066470
C100  C     C_R   0.137251 0.186037 0.949523 0.069904
C101  C     C_R   0.636394 0.311843 0.949924 0.064966
C102  C     C_R   0.346075 0.658574 0.062208 0.066054
C103  C     C_R   0.345906 0.342664 0.062343 0.066470
C104  C     C_R   0.637251 0.686036 0.949523 0.069904
C105  C     C_R   0.118282 0.851258 0.895962 0.033651
C106  C     C_R   0.795075 0.228716 0.329404 0.562557
C107  C     C_R   0.880018 0.146855 0.104065 0.034880
C108  C     C_R   0.879629 0.854318 0.104510 0.034282
C109  C     C_R   0.118553 0.147904 0.895682 0.036804
C110  C     C_R   0.618282 0.351258 0.895962 0.033651
C111  C     C_R   0.380018 0.646855 0.104065 0.034880
C112  C     C_R   0.379629 0.354318 0.104510 0.034281
C113  C     C_R   0.618553 0.647904 0.895682 0.036804
C114  C     C_R   0.144702 0.843096 0.803112 0.054653
C115  C     C_R   0.866894 0.178797 0.187028 0.057570
C116  C     C_R   0.866416 0.822545 0.187590 0.046742
C117  C     C_R   0.205498 0.772580 0.670066 0.535124
C118  C     C_R   0.144695 0.156517 0.802846 0.063826
C119  C     C_R   0.644702 0.343096 0.803112 0.054653
C120  C     C_R   0.366894 0.678797 0.187028 0.057569
C121  C     C_R   0.366416 0.322545 0.187590 0.046742
C122  C     C_R   0.644695 0.656517 0.802846 0.063826
C123  C     C_R   0.182568 0.787946 0.765517 -0.018247
C124  C     C_R   0.816241 0.211351 0.234333 -0.011936
C125  C     C_R   0.816151 0.789376 0.234403 -0.011645
C126  C     C_R   0.183128 0.210626 0.765184 0.006353
C127  C     C_R   0.682568 0.287946 0.765517 -0.018247
C128  C     C_R   0.205993 0.226464 0.669733 0.592213
C129  C     C_R   0.316241 0.711351 0.234333 -0.011936
C130  C     C_R   0.316151 0.289376 0.234403 -0.011645
C131  C     C_R   0.683128 0.710626 0.765184 0.006352
C132  C     C_R   0.201226 0.750838 0.818740 -0.147039
C133  C     C_R   0.783499 0.223075 0.191768 -0.165895
C134  C     C_R   0.783828 0.777499 0.191299 -0.161538
C135  C     C_R   0.202071 0.246590 0.818410 -0.155385
C136  C     C_R   0.701226 0.250838 0.818740 -0.147039
C137  C     C_R   0.283499 0.723075 0.191768 -0.165894
C138  C     C_R   0.283828 0.277499 0.191299 -0.161538
C139  C     C_R   0.794980 0.771502 0.329499 0.551239
C140  C     C_R   0.702071 0.746590 0.818410 -0.155385
C141  C     C_R   0.180345 0.765381 0.909555 0.019713
C142  C     C_R   0.799350 0.199514 0.105108 0.019582
C143  C     C_R   0.799603 0.801357 0.104689 0.020362
C144  C     C_R   0.181262 0.231912 0.909195 0.024957
C145  C     C_R   0.680345 0.265381 0.909555 0.019713
C146  C     C_R   0.299350 0.699514 0.105108 0.019582
C147  C     C_R   0.299603 0.301357 0.104689 0.020362
C148  C     C_R   0.681262 0.731912 0.909195 0.024957
C149  C     C_R   0.195912 0.631970 0.530918 0.525736
C150  C     C_R   0.526269 0.874643 0.580182 -0.160378
C151  C     C_R   0.800293 0.369489 0.482583 0.523908
C152  C     C_R   0.804166 0.632099 0.469990 0.536918
C153  C     C_R   0.195529 0.367819 0.532198 0.588176
C154  C     C_R   0.695912 0.131970 0.530918 0.525736
C155  C     C_R   0.300293 0.869489 0.482583 0.523908
C156  C     C_R   0.304166 0.132099 0.469990 0.536918
C157  C     C_R   0.695529 0.867819 0.532198 0.588176
C158  C     C_R   0.925852 0.903594 0.066499 0.570053
C159  C     C_R   0.074059 0.096321 0.933443 0.581135
C160  C     C_R   0.073989 0.903462 0.933581 0.581203
Cu1   Cu    Cu3+1 0.209920 0.785290 0.495070 0.969802
Cu2   Cu    Cu3+1 0.504760 0.500000 0.075850 0.951462
Cu3   Cu    Cu3+1 0.995240 1.000000 0.924150 0.954234
Cu4   Cu    Cu3+1 0.004760 1.000000 0.075850 0.951462
Cu5   Cu    Cu3+1 0.790080 0.214710 0.504930 0.984604
Cu6   Cu    Cu3+1 0.790080 0.785290 0.504930 0.997794
Cu7   Cu    Cu3+1 0.209920 0.214710 0.495070 0.947905
Cu8   Cu    Cu3+1 0.709920 0.285290 0.495070 0.969804
Cu9   Cu    Cu3+1 0.290080 0.714710 0.504930 0.984604
Cu10  Cu    Cu3+1 0.290080 0.285290 0.504930 0.997794
Cu11  Cu    Cu3+1 0.709920 0.714710 0.495070 0.947906
Cu12  Cu    Cu3+1 0.495240 0.500000 0.924150 0.954234
H1    H     H_    0.503845 0.825595 0.594035 0.089308
H2    H     H_    0.831240 0.276273 0.954843 0.128051
H3    H     H_    0.833349 0.726693 0.952289 0.128345
H4    H     H_    0.145568 0.311526 0.062861 0.139514
H5    H     H_    0.646323 0.184053 0.061459 0.142122
H6    H     H_    0.331240 0.776273 0.954843 0.128050
H7    H     H_    0.333350 0.226694 0.952288 0.128345
H8    H     H_    0.645568 0.811526 0.062860 0.139513
H9    H     H_    0.281679 0.800158 0.868841 0.152349
H10   H     H_    0.696330 0.160280 0.148380 0.112279
H11   H     H_    0.695414 0.837103 0.149199 0.108652
H12   H     H_    0.494592 0.165636 0.432082 0.159901
H13   H     H_    0.283935 0.200932 0.866791 0.111789
H14   H     H_    0.781679 0.300158 0.868841 0.152350
H15   H     H_    0.196330 0.660280 0.148380 0.112279
H16   H     H_    0.195413 0.337102 0.149200 0.108652
H17   H     H_    0.783935 0.700931 0.866792 0.111789
H18   H     H_    0.233935 0.712831 0.789084 0.176987
H19   H     H_    0.745452 0.250774 0.225690 0.145426
H20   H     H_    0.746179 0.749366 0.224754 0.144939
H21   H     H_    0.234817 0.284082 0.788805 0.152692
H22   H     H_    0.733935 0.212831 0.789084 0.176987
H23   H     H_    0.423081 0.844369 0.623956 0.153896
H24   H     H_    0.245452 0.750774 0.225690 0.145426
H25   H     H_    0.246179 0.249366 0.224754 0.144939
H26   H     H_    0.734817 0.784082 0.788805 0.152692
H27   H     H_    0.269808 0.507027 0.538386 0.124637
H28   H     H_    0.739436 0.481816 0.433426 0.135215
H29   H     H_    0.769808 0.007026 0.538386 0.124637
H30   H     H_    0.239436 0.981816 0.433426 0.135215
H31   H     H_    0.559476 0.764421 0.649606 0.085261
H32   H     H_    0.402005 0.163589 0.327151 0.107688
H33   H     H_    0.284269 0.868542 0.655734 0.088391
H34   H     H_    0.517104 0.178390 0.543279 0.159607
H35   H     H_    0.597383 0.178889 0.672048 0.115522
H36   H     H_    0.059477 0.264421 0.649604 0.085260
H37   H     H_    0.902004 0.663590 0.327151 0.107688
H38   H     H_    0.784269 0.368542 0.655734 0.088391
H39   H     H_    0.097384 0.678889 0.672048 0.115523
H40   H     H_    0.072055 0.810766 0.072309 0.262949
H41   H     H_    0.120651 0.872305 0.059658 0.260839
H42   H     H_    0.856332 0.072605 0.981339 0.251188
H43   H     H_    0.893242 0.147266 0.928688 0.255046
H44   H     H_    0.892930 0.854285 0.928923 0.259618
H45   H     H_    0.003845 0.325595 0.594035 0.089308
H46   H     H_    0.855838 0.929061 0.982138 0.250711
H47   H     H_    0.121878 0.124367 0.058292 0.259591
H48   H     H_    0.073436 0.187472 0.072507 0.255753
H49   H     H_    0.572055 0.310767 0.072309 0.262949
H50   H     H_    0.620651 0.372305 0.059658 0.260840
H51   H     H_    0.356332 0.572605 0.981339 0.251188
H52   H     H_    0.393242 0.647267 0.928688 0.255045
H53   H     H_    0.392930 0.354285 0.928923 0.259617
H54   H     H_    0.355838 0.429062 0.982138 0.250711
H55   H     H_    0.621878 0.624366 0.058291 0.259591
H56   H     H_    0.994592 0.665636 0.432082 0.159901
H57   H     H_    0.573436 0.687472 0.072508 0.255753
H58   H     H_    0.173225 0.915100 0.700374 0.228483
H59   H     H_    0.113922 0.874043 0.718170 0.281810
H60   H     H_    0.895463 0.143040 0.272689 0.263558
H61   H     H_    0.908860 0.231108 0.242126 0.243534
H62   H     H_    0.894129 0.857901 0.274326 0.274250
H63   H     H_    0.909317 0.770319 0.241121 0.261749
H64   H     H_    0.171806 0.084849 0.699589 0.232625
H65   H     H_    0.112832 0.128615 0.718659 0.267081
H66   H     H_    0.673225 0.415100 0.700374 0.228483
H67   H     H_    0.923081 0.344369 0.623956 0.153896
H68   H     H_    0.613922 0.374043 0.718170 0.281810
H69   H     H_    0.395463 0.643040 0.272689 0.263559
H70   H     H_    0.408860 0.731108 0.242126 0.243534
H71   H     H_    0.394129 0.357901 0.274326 0.274250
H72   H     H_    0.409317 0.270319 0.241121 0.261749
H73   H     H_    0.671806 0.584849 0.699589 0.232625
H74   H     H_    0.612831 0.628615 0.718659 0.267081
H75   H     H_    0.017104 0.678390 0.543279 0.159607
H76   H     H_    0.146323 0.684053 0.061459 0.142122
N1    N     N_3   0.113189 0.820694 0.044645 -0.625959
N2    N     N_3   0.906104 0.179616 0.220634 -0.599053
N3    N     N_3   0.905460 0.822045 0.221429 -0.577779
N4    N     N_3   0.135387 0.105303 0.747573 -0.587339
N5    N     N_3   0.636407 0.395753 0.747866 -0.583661
N6    N     N_3   0.406104 0.679616 0.220634 -0.599054
N7    N     N_3   0.405460 0.322045 0.221429 -0.577779
N8    N     N_3   0.635387 0.605303 0.747573 -0.587339
N9    N     N_3   0.856718 0.128315 0.977397 -0.620562
N10   N     N_3   0.856344 0.873377 0.977794 -0.621294
N11   N     N_3   0.114526 0.176471 0.044078 -0.635285
N12   N     N_3   0.613189 0.320694 0.044645 -0.625959
N13   N     N_3   0.356718 0.628315 0.977397 -0.620562
N14   N     N_3   0.356344 0.373377 0.977794 -0.621294
N15   N     N_3   0.614527 0.676471 0.044078 -0.635285
N16   N     N_3   0.136407 0.895753 0.747866 -0.583661
O1    O     O_R   0.255040 0.869590 0.478480 -0.536329
O2    O     O_R   0.817950 0.203450 0.375560 -0.520712
O3    O     O_R   0.817950 0.796550 0.375560 -0.520019
O4    O     O_R   0.182050 0.203450 0.624440 -0.511012
O5    O     O_R   0.682050 0.296550 0.624440 -0.521484
O6    O     O_R   0.317950 0.703450 0.375560 -0.520712
O7    O     O_R   0.317950 0.296550 0.375560 -0.520019
O8    O     O_R   0.682050 0.703450 0.624440 -0.511011
O9    O     O_R   0.250530 0.763330 0.367210 -0.503718
O10   O     O_R   0.749470 0.236670 0.632790 -0.481193
O11   O     O_R   0.749470 0.763330 0.632790 -0.502068
O12   O     O_R   0.744960 0.130410 0.521520 -0.519388
O13   O     O_R   0.250530 0.236670 0.367210 -0.505616
O14   O     O_R   0.750530 0.263330 0.367210 -0.503718
O15   O     O_R   0.249470 0.736670 0.632790 -0.481193
O16   O     O_R   0.249470 0.263330 0.632790 -0.502068
O17   O     O_R   0.750530 0.736670 0.367210 -0.505616
O18   O     O_R   0.177260 0.690030 0.513710 -0.500605
O19   O     O_R   0.822740 0.309970 0.486290 -0.491464
O20   O     O_R   0.822740 0.690030 0.486290 -0.510664
O21   O     O_R   0.177260 0.309970 0.513710 -0.507194
O22   O     O_R   0.677260 0.190030 0.513710 -0.500604
O23   O     O_R   0.744960 0.869590 0.521520 -0.508135
O24   O     O_R   0.322740 0.809970 0.486290 -0.491464
O25   O     O_R   0.322740 0.190030 0.486290 -0.510664
O26   O     O_R   0.677260 0.809970 0.513710 -0.507193
O27   O     O_R   0.051640 0.926880 0.885090 -0.463834
O28   O     O_R   0.948360 0.073120 0.114910 -0.478992
O29   O     O_R   0.948360 0.926880 0.114910 -0.475194
O30   O     O_R   0.051640 0.073120 0.885090 -0.467168
O31   O     O_R   0.551640 0.426880 0.885090 -0.463834
O32   O     O_R   0.448360 0.573120 0.114910 -0.478992
O33   O     O_R   0.448360 0.426880 0.114910 -0.475194
O34   O     O_R   0.255040 0.130410 0.478480 -0.504836
O35   O     O_R   0.551640 0.573120 0.885090 -0.467168
O36   O     O_R   0.940620 0.926560 0.986760 -0.537793
O37   O     O_R   0.059380 0.073440 0.013240 -0.533113
O38   O     O_R   0.059380 0.926560 0.013240 -0.531109
O39   O     O_R   0.940620 0.073440 0.986760 -0.539929
O40   O     O_R   0.440620 0.426560 0.986760 -0.537793
O41   O     O_R   0.559380 0.573440 0.013240 -0.533113
O42   O     O_R   0.559380 0.426560 0.013240 -0.531109
O43   O     O_R   0.440620 0.573440 0.986760 -0.539929
O44   O     O_2   0.219628 0.488481 0.665401 -0.478800
O45   O     O_R   0.755040 0.369590 0.478480 -0.536329
O46   O     O_2   0.798475 0.522154 0.324956 -0.500313
O47   O     O_2   0.719628 0.988481 0.665401 -0.478800
O48   O     O_2   0.298476 0.022154 0.324956 -0.500313
O49   O     O_2   0.599263 0.825612 0.696072 -0.488302
O50   O     O_2   0.453756 0.226009 0.344821 -0.525000
O51   O     O_2   0.330074 0.799294 0.680822 -0.535266
O52   O     O_2   0.552477 0.242052 0.637258 -0.518901
O53   O     O_2   0.099262 0.325612 0.696072 -0.488301
O54   O     O_2   0.953756 0.726009 0.344821 -0.525000
O55   O     O_2   0.830074 0.299294 0.680823 -0.535266
O56   O     O_R   0.244960 0.630410 0.521520 -0.519388
O57   O     O_2   0.052476 0.742052 0.637260 -0.518901
O58   O     O_R   0.244960 0.369590 0.521520 -0.508134
O59   O     O_R   0.755040 0.630410 0.478480 -0.504836
O60   O     O_R   0.182050 0.796550 0.624440 -0.521485

loop_
_geom_bond_atom_site_label_1
_geom_bond_atom_site_label_2
_ccdc_geom_bond_type
H47   N11   S    
H59   N16   S    
C28   C47   A    
C95   O13   A    
C36   C42   A    
Cu8   O14   S    
C115  N2    S    
C6    O42   A    
C13   C18   A    
C99   C143  A    
Cu6   O23   S    
C1    C129  S    
C16   C35   A    
H71   N7    S    
Cu8   O45   S    
C37   C42   A    
Cu10  O58   S    
C114  N16   S    
Cu7   O4    S    
C131  C140  A    
C134  C143  A    
C113  C122  A    
Cu12  O40   S    
C10   C20   A    
C106  O14   A    
C22   C53   A    
Cu10  O16   S    
C77   C147  S    
C78   C148  S    
C97   C105  A    
C24   C51   A    
C70   C79   A    
C76   C146  S    
C100  C109  A    
C8    C16   A    
C102  C111  A    
Cu4   O29   S    
H61   N2    S    
H58   N16   S    
C40   C58   S    
C139  O17   A    
C82   H13   S    
C137  C146  A    
H48   N11   S    
C127  C136  A    
C100  C144  A    
C65   H36   S    
Cu1   O18   S    
C149  O56   A    
C97   N1    S    
C99   N10   S    
C101  C110  A    
C82   C91   A    
C29   C45   A    
C103  C112  A    
Cu4   O38   S    
C39   C56   S    
C62   O50   D    
C155  O1    A    
Cu1   O9    S    
C81   C90   A    
C124  C133  A    
C60   H30   S    
C153  O21   A    
C102  C146  A    
C130  C138  A    
C132  H18   S    
Cu3   O30   S    
C133  H19   S    
C14   C57   A    
C139  O3    A    
C77   C91   A    
C49   C62   S    
C5    C113  S    
C2    C19   A    
C51   C64   S    
C25   C55   A    
C60   O48   D    
C54   C67   S    
C9    C15   A    
C33   C149  S    
Cu8   O5    S    
C46   C53   A    
C63   O51   D    
C72   C96   A    
Cu4   O37   S    
C129  C137  A    
C106  C124  S    
C76   C85   A    
C52   C65   S    
Cu12  O31   S    
C78   C87   A    
C11   C18   A    
C96   H3    S    
C123  C132  A    
Cu9   O24   S    
C121  C130  A    
C58   O46   D    
C5    O41   A    
C25   C43   A    
Cu10  O25   S    
C103  C147  A    
C99   C108  A    
C12   C68   A    
C101  C145  A    
C133  C142  A    
C93   H76   S    
C105  C160  S    
C140  H26   S    
C26   C45   A    
C85   C93   A    
C71   C92   A    
Cu1   O1    S    
C29   C38   A    
C95   C130  S    
H41   N1    S    
C80   H10   S    
Cu7   O13   S    
Cu1   Cu9   S    
C69   O57   D    
Cu12  O35   S    
C7    O43   A    
Cu9   O6    S    
C98   C142  A    
C50   C63   S    
Cu11  O8    S    
C3    O28   A    
H64   N4    S    
C35   H45   S    
C121  N7    S    
C64   H35   S    
C67   O55   D    
C120  C129  A    
C38   C41   A    
Cu4   O28   S    
C6    O31   A    
C152  O59   A    
C92   H2    S    
C136  H22   S    
C73   O10   A    
C8    C12   A    
C158  O36   A    
C10   C45   A    
C83   H14   S    
C55   C69   S    
C154  O12   A    
C62   H32   S    
C57   H67   S    
C69   H39   S    
C114  C123  A    
Cu8   O22   S    
C151  O45   A    
C116  C125  A    
C13   H23   S    
C109  C159  S    
C122  C131  A    
C29   C51   A    
C27   C47   A    
C132  C141  A    
C70   C141  S    
C126  C128  S    
C157  O26   A    
C158  O29   A    
H62   N3    S    
C7    O32   A    
C88   H6    S    
C116  N3    S    
Cu5   O2    S    
H43   N9    S    
C112  C121  A    
H74   N8    S    
C28   C37   A    
C24   H34   S    
C20   C150  A    
C30   C39   A    
C154  O22   A    
Cu3   O27   S    
C75   C89   A    
C104  C113  A    
C34   C157  S    
C150  H1    S    
Cu2   Cu12  S    
Cu10  O7    S    
C81   H11   S    
Cu2   O41   S    
C15   C46   A    
C155  O24   A    
C160  O38   A    
C128  O16   A    
C153  O58   A    
C152  O20   A    
C25   C33   A    
C54   C57   A    
C119  C127  A    
C125  C134  A    
C85   H15   S    
C86   H16   S    
C48   C150  A    
C74   C94   A    
C11   C47   A    
C8    C43   A    
C55   C68   A    
H55   N15   S    
C117  O60   A    
C78   C90   A    
C11   C19   A    
C122  N8    S    
C31   C40   A    
Cu11  O59   S    
C4    O40   A    
C80   C89   A    
C37   C155  S    
Cu1   O60   S    
C109  C118  A    
Cu6   O3    S    
H65   N4    S    
Cu6   O20   S    
Cu5   O10   S    
H49   N12   S    
C72   C81   A    
C26   C48   A    
C61   O49   D    
C137  H24   S    
C34   C41   A    
C74   C82   A    
C79   C88   A    
C65   O53   D    
H57   N15   S    
C106  O2    A    
H66   N5    S    
H46   N10   S    
C90   H8    S    
H63   N3    S    
C73   C127  S    
C75   C145  S    
C23   C44   A    
C79   H9    S    
C110  C119  A    
C9    C14   A    
C12   C15   A    
C70   C93   A    
C128  O4    A    
C102  N13   S    
C2    H12   S    
C97   C141  A    
Cu2   O33   S    
C98   N9    S    
C126  C135  A    
Cu7   O34   S    
C4    O33   A    
H51   N13   S    
C36   C156  S    
C74   C144  S    
C115  C124  A    
C95   O7    A    
C27   C36   A    
C21   C30   A    
C23   C32   A    
C108  C116  A    
C5    O35   A    
C104  C148  A    
Cu7   O21   S    
Cu3   O36   S    
C75   C83   A    
H42   N9    S    
Cu12  O43   S    
C103  N14   S    
C7    C111  S    
Cu5   O12   S    
C120  N6    S    
Cu6   O11   S    
C98   C107  A    
Cu11  O26   S    
C63   H33   S    
C84   O11   A    
C35   C52   A    
C46   H56   S    
C73   O5    A    
H50   N12   S    
C94   H4    S    
C72   C143  S    
Cu5   O19   S    
Cu3   Cu4   S    
C159  O30   A    
H44   N10   S    
C140  C148  A    
C157  O23   A    
C125  C139  S    
C83   C92   A    
C58   H28   S    
H68   N5    S    
C33   C39   A    
C156  O34   A    
C108  C158  S    
C10   C17   A    
C101  N12   S    
C67   H38   S    
C159  O37   A    
C134  H20   S    
C86   C94   A    
Cu9   O56   S    
C21   C43   A    
C28   C50   A    
C26   C34   A    
C30   C153  S    
C22   C44   A    
H72   N7    S    
C91   H7    S    
C149  O18   A    
C104  N15   S    
C89   H5    S    
C76   C88   A    
C1    O9    A    
C136  C145  A    
C87   H17   S    
C56   H27   S    
Cu3   O39   S    
C4    C112  S    
Cu6   Cu11  S    
C6    C110  S    
C64   O52   D    
H53   N14   S    
Cu2   O32   S    
C119  N5    S    
C3    O39   A    
C71   C80   A    
Cu7   Cu10  S    
C68   H75   S    
H73   N8    S    
C17   C24   A    
C22   C31   A    
C84   O8    A    
C105  C114  A    
C41   C59   S    
C56   O44   D    
C42   C60   S    
C1    O6    A    
C3    C107  S    
C13   C50   A    
C111  C120  A    
C138  H25   S    
C2    C49   A    
C151  O19   A    
C135  H21   S    
C59   H29   S    
C138  C147  A    
C87   C96   A    
C66   H37   S    
C53   C66   S    
C107  C115  A    
C71   C142  S    
C66   O54   D    
C135  C144  A    
C77   C86   A    
Cu5   Cu8   S    
H70   N6    S    
C14   C16   A    
Cu2   O42   S    
H60   N2    S    
C38   C154  S    
C160  O27   A    
Cu9   O15   S    
C23   C54   A    
H54   N14   S    
C9    C44   A    
H52   N13   S    
C84   C131  S    
C117  C123  S    
C117  O15   A    
C118  N4    S    
C61   H31   S    
C59   O47   D    
C31   C152  S    
C48   C61   S    
C32   C151  S    
C17   C19   A    
C156  O25   A    
C18   C20   A    
C32   C40   A    
C100  N11   S    
C27   C49   A    
H69   N6    S    
C118  C126  A    
H40   N1    S    
Cu11  O17   S    
C21   C52   A    
