data_mof_unit_57505.cif
_audit_creation_date              2012-12-10T18:10:45-0500
_audit_creation_method            fapswitch 2.2
_symmetry_space_group_name_H-M    P1
_symmetry_Int_Tables_number       1
_space_group_crystal_system       triclinic
_cell_length_a                    12.719085
_cell_length_b                    13.076795
_cell_length_c                    15.724208
_cell_angle_alpha                 92.910823
_cell_angle_beta                  103.239592
_cell_angle_gamma                 81.677514
_cell_volume                      2518.58180069

loop_
_atom_site_label
_atom_site_type_symbol
_atom_type_description
_atom_site_fract_x
_atom_site_fract_y
_atom_site_fract_z
_atom_type_partial_charge
C1    C     C_R   0.438273 0.690714 0.482145 0.888401
C2    C     C_3   0.381640 0.546776 0.027952 -0.424896
C3    C     C_3   0.494895 0.501670 0.082208 0.213177
C4    C     C_3   0.525633 0.389653 0.050471 -0.403266
C5    C     C_3   0.531153 0.388501 0.953029 -0.139804
C6    C     C_1   0.492673 0.501338 0.173314 -0.054254
C7    C     C_1   0.503846 0.502436 0.826127 -0.023374
C8    C     C_1   0.504851 0.502342 0.750939 -0.089661
C9    C     C_R   0.731818 0.050280 0.500190 0.436662
C10   C     C_R   0.598441 0.197772 0.516952 -0.132330
C11   C     C_R   0.286364 0.843147 0.446565 0.408566
C12   C     C_R   0.501602 0.500942 0.661422 0.894097
C13   C     C_R   0.260413 0.950356 0.448314 -0.212456
C14   C     C_R   0.341547 0.013484 0.461434 -0.257541
C15   C     C_R   0.451689 0.971111 0.466586 0.122233
C16   C     C_R   0.475324 0.864919 0.451459 0.037036
C17   C     C_R   0.538733 0.030911 0.484461 0.042125
C18   C     C_R   0.645553 0.987997 0.474565 -0.027204
C19   C     C_R   0.657833 0.887381 0.436964 -0.037073
C20   C     C_R   0.573691 0.827435 0.426861 -0.219134
C21   C     C_R   0.520846 0.133045 0.512412 -0.238829
C22   C     C_R   0.705608 0.155824 0.517239 -0.231019
C23   C     C_R   0.561146 0.308635 0.512995 0.900522
C24   C     C_R   0.397955 0.799447 0.457188 -0.250986
C25   C     C_R   0.079419 0.404753 0.339764 -0.247276
C26   C     C_R   0.805112 0.621448 0.612419 0.109559
C27   C     C_R   0.911241 0.644022 0.638657 -0.196690
C28   C     C_R   0.989250 0.600036 0.594342 -0.099069
C29   C     C_R   0.961599 0.534504 0.521272 0.001435
C30   C     C_R   0.852125 0.512164 0.495404 0.139468
C31   C     C_R   0.039544 0.490369 0.473115 -0.007649
C32   C     C_R   0.003506 0.447239 0.388695 0.114862
C33   C     C_R   0.893121 0.440945 0.357019 -0.090954
C34   C     C_R   0.497881 0.500326 0.338498 0.883508
C35   C     C_R   0.825120 0.452000 0.416324 -0.078716
C36   C     C_R   0.152593 0.487789 0.505040 0.084581
C37   C     C_R   0.188949 0.403370 0.375320 0.038395
C38   C     C_3   0.382986 0.545165 0.929406 0.307001
C39   C     C_3   0.579730 0.574619 0.971663 -0.229030
C40   C     C_3   0.581139 0.568403 0.069953 -0.425320
C41   C     C_1   0.493591 0.500737 0.248829 -0.152670
C42   C     C_3   0.500666 0.501140 0.917392 0.082210
H1    H     H_    0.359801 0.627825 0.049799 0.156405
H2    H     H_    0.318722 0.502116 0.040395 0.239228
H3    H     H_    0.604608 0.355203 0.092399 0.193073
H4    H     H_    0.768663 0.205630 0.529561 0.203309
H5    H     H_    0.444623 0.165717 0.527902 0.173695
H6    H     H_    0.314128 0.095430 0.461919 0.163686
H7    H     H_    0.176694 0.986146 0.441198 0.218699
H8    H     H_    0.364232 0.626507 0.906805 0.091028
H9    H     H_    0.583687 0.751745 0.395876 0.165728
H10   H     H_    0.248001 0.373519 0.337378 0.141176
H11   H     H_    0.055443 0.370968 0.275161 0.162459
H12   H     H_    0.187373 0.520152 0.567803 0.154168
H13   H     H_    0.069437 0.622727 0.616082 0.184853
H14   H     H_    0.933514 0.697004 0.692970 0.183654
H15   H     H_    0.547905 0.655495 0.950829 0.137861
H16   H     H_    0.563481 0.647880 0.096840 0.172351
H17   H     H_    0.662923 0.534856 0.107919 0.206752
H18   H     H_    0.471613 0.339510 0.915477 0.212675
H19   H     H_    0.463406 0.341223 0.058277 0.201683
N1    N     N_R   0.222200 0.444690 0.455710 -0.113454
N2    N     N_R   0.776960 0.554780 0.543830 -0.148138
O1    O     O_R   0.366740 0.627160 0.478850 -0.522126
O2    O     O_R   0.544830 0.662520 0.507140 -0.626275
O3    O     O_R   0.410920 0.482310 0.608710 -0.592260
O4    O     O_R   0.589010 0.517670 0.637000 -0.621320
O5    O     O_R   0.455170 0.337480 0.492860 -0.627490
O6    O     O_R   0.633260 0.372840 0.521150 -0.617363
O7    O     O_R   0.410990 0.482330 0.363000 -0.605728
O8    O     O_R   0.589080 0.517690 0.391290 -0.635251
Zn1   Zn    Zn3+2 0.381090 0.476390 0.481110 1.021537
Zn2   Zn    Zn3+2 0.618910 0.523610 0.518890 0.955689
S1    S     S_3+6 0.272737 0.480406 0.866429 -0.003225
O9    O     O_2   0.166806 0.546799 0.869610 -0.283671
O10   O     O_2   0.280820 0.465246 0.772663 -0.309275
O11   O     O_3   0.273261 0.365038 0.909343 -0.582018
H20   H     H_    0.208537 0.337494 0.873216 0.398278
C43   C     C_1   0.748332 0.845073 0.398994 0.305653
N3    N     N_1   0.819688 0.809576 0.367739 -0.090713
S2    S     S_3+6 0.872844 0.003048 0.517893 0.033075
O12   O     O_2   0.907184 0.003624 0.432696 -0.278520
O13   O     O_2   0.937325 0.072314 0.582334 -0.285790
O14   O     O_3   0.898760 0.882810 0.557871 -0.558846
H21   H     H_    0.976100 0.859108 0.557024 0.418230
S3    S     S_3+6 0.175116 0.770542 0.425361 0.034136
O15   O     O_2   0.190112 0.685104 0.359696 -0.295497
O16   O     O_2   0.167439 0.725079 0.509175 -0.304875
O17   O     O_3   0.057563 0.846643 0.385655 -0.490272
H22   H     H_    0.062020 0.864574 0.326241 0.358560
C44   C     C_1   0.852278 0.407378 0.267043 0.177935
N4    N     N_1   0.820018 0.380576 0.195739 -0.208246
C45   C     C_1   0.725452 0.673158 0.657469 0.288795
N5    N     N_1   0.662169 0.715767 0.694108 -0.194702
C46   C     C_1   0.753059 0.374350 0.400330 0.306786
N6    N     N_1   0.698525 0.309691 0.379844 -0.224255
C47   C     C_1   0.691708 0.555247 0.956969 0.239655
N7    N     N_1   0.779349 0.540438 0.945438 -0.153838
C48   C     C_1   0.638574 0.337668 0.941209 0.190349
N8    N     N_1   0.722555 0.297507 0.931911 -0.152645

loop_
_geom_bond_atom_site_label_1
_geom_bond_atom_site_label_2
_ccdc_geom_bond_type
C5    C42   S    
C45   N5    T    
C23   O6    A    
C46   N6    T    
C3    C6    S    
C37   N1    A    
C7    C8    T    
O11   H20   S    
C10   C22   A    
C26   C27   A    
S1    O10   D    
C30   C35   A    
C16   C20   A    
C25   H11   S    
C38   C42   S    
C20   H9    S    
C33   C44   S    
S3    O16   D    
C9    C22   A    
C39   C47   S    
C11   S3    S    
C15   C16   A    
C39   H15   S    
C11   C24   A    
O2    Zn2   S    
C18   C19   A    
C7    C42   S    
C25   C37   A    
O3    Zn1   S    
C5    C48   S    
C2    H2    S    
C6    C41   T    
C1    O2    A    
O6    Zn2   S    
O4    Zn2   S    
C34   O7    A    
C31   C36   A    
C8    C12   S    
C25   C32   A    
C16   C24   A    
C40   H17   S    
C30   N2    A    
C34   C41   S    
C36   N1    A    
S2    O13   D    
C28   H13   S    
C47   N7    T    
C39   C42   S    
C4    H3    S    
C10   C21   A    
C12   O4    A    
C40   H16   S    
S1    O9    D    
O14   H21   S    
C44   N4    T    
O8    Zn2   S    
C37   H10   S    
S3    O15   D    
C14   H6    S    
N2    Zn2   S    
C12   O3    A    
C4    H19   S    
S1    O11   S    
S2    O12   D    
C23   O5    A    
C26   N2    A    
C29   C30   A    
C2    C38   S    
C31   C32   A    
C2    H1    S    
O5    Zn1   S    
C17   C18   A    
N1    Zn1   S    
C19   C43   S    
C13   H7    S    
C22   H4    S    
C3    C40   S    
C3    C4    S    
C1    O1    A    
C39   C40   S    
S2    O14   S    
C38   S1    S    
C15   C17   A    
C28   C29   A    
C5    H18   S    
C27   H14   S    
C4    C5    S    
S3    O17   S    
C38   H8    S    
C35   C46   S    
C10   C23   S    
C48   N8    T    
C32   C33   A    
C19   C20   A    
C2    C3    S    
C29   C31   A    
C11   C13   A    
C26   C45   S    
C33   C35   A    
O1    Zn1   S    
C17   C21   A    
C36   H12   S    
C43   N3    T    
C9    C18   A    
C1    C24   S    
C27   C28   A    
C14   C15   A    
O7    Zn1   S    
O17   H22   S    
C13   C14   A    
C34   O8    A    
C9    S2    S    
C21   H5    S    
