data_mof_unit_46263.cif
_audit_creation_date              2012-12-10T19:11:29-0500
_audit_creation_method            fapswitch 2.2
_symmetry_space_group_name_H-M    P1
_symmetry_Int_Tables_number       1
_space_group_crystal_system       triclinic
_cell_length_a                    10.654325
_cell_length_b                    9.705562
_cell_length_c                    10.497614
_cell_angle_alpha                 90.38248
_cell_angle_beta                  90.160071
_cell_angle_gamma                 90.064395
_cell_volume                      1085.48936573

loop_
_atom_site_label
_atom_site_type_symbol
_atom_type_description
_atom_site_fract_x
_atom_site_fract_y
_atom_site_fract_z
_atom_type_partial_charge
C1    C     C_R   0.257671 0.500179 0.498731 0.938036
C2    C     C_3   0.498641 0.498371 0.122245 0.023993
C3    C     C_3   0.072319 0.651699 0.480395 0.138899
C4    C     C_3   0.073123 0.446183 0.629475 0.175121
C5    C     C_3   0.928804 0.653403 0.485732 0.249786
C6    C     C_3   0.928285 0.439316 0.627694 0.239436
C7    C     C_3   0.070663 0.409150 0.389095 -0.367950
C8    C     C_3   0.121188 0.501238 0.499070 0.008220
C9    C     C_3   0.878808 0.502824 0.501200 -0.000442
C10   C     C_3   0.926911 0.414830 0.387182 -0.605084
C11   C     C_3   0.374977 0.080832 0.461922 -0.243896
C12   C     C_3   0.374955 0.918429 0.462103 -0.232741
C13   C     C_3   0.591973 0.080761 0.405177 -0.234927
C14   C     C_3   0.591805 0.918192 0.405004 -0.238890
C15   C     C_3   0.532509 0.082027 0.624372 -0.232553
C16   C     C_3   0.532728 0.919754 0.624300 -0.233825
C17   C     C_R   0.499196 0.499469 0.257123 0.867554
C18   C     C_R   0.742484 0.500562 0.499473 0.891177
C19   C     C_R   0.500259 0.500478 0.742813 0.868686
C20   C     C_3   0.399812 0.572043 0.042190 -0.181329
C21   C     C_3   0.491055 0.368535 0.039349 -0.153371
C22   C     C_3   0.392365 0.442372 0.956445 -0.180930
C23   C     C_3   0.499857 0.501320 0.877776 0.032182
C24   C     C_3   0.507298 0.631155 0.960763 -0.140302
C25   C     C_3   0.598518 0.427531 0.957985 -0.173524
C26   C     C_3   0.606045 0.557256 0.043552 -0.162802
H1    H     H_    0.305596 0.395926 0.915912 0.135273
H2    H     H_    0.894248 0.459960 0.295653 0.196242
H3    H     H_    0.889399 0.307847 0.391654 0.202468
H4    H     H_    0.346841 0.118773 0.366229 0.140345
H5    H     H_    0.346665 0.878885 0.366532 0.168477
H6    H     H_    0.302687 0.118838 0.529782 0.191327
H7    H     H_    0.302854 0.881528 0.530265 0.152082
H8    H     H_    0.570532 0.118375 0.307672 0.145945
H9    H     H_    0.569987 0.879520 0.307460 0.148858
H10   H     H_    0.626239 0.121203 0.654598 0.143642
H11   H     H_    0.626647 0.881493 0.654166 0.178026
H12   H     H_    0.464325 0.119824 0.696619 0.160275
H13   H     H_    0.464895 0.882404 0.696677 0.143575
H14   H     H_    0.687748 0.119001 0.428797 0.144470
H15   H     H_    0.687534 0.880194 0.428146 0.152276
H16   H     H_    0.319039 0.630473 0.081572 0.154152
H17   H     H_    0.484372 0.261531 0.075524 0.131156
H18   H     H_    0.514033 0.738178 0.924655 0.133673
H19   H     H_    0.678930 0.367610 0.919986 0.127770
H20   H     H_    0.692874 0.603694 0.083952 0.132711
H21   H     H_    0.110345 0.717843 0.559153 0.121066
H22   H     H_    0.105444 0.519217 0.705572 0.123498
H23   H     H_    0.890654 0.695440 0.394564 0.108502
H24   H     H_    0.898441 0.328955 0.631762 0.118209
H25   H     H_    0.108157 0.444149 0.295863 0.205941
H26   H     H_    0.101425 0.300524 0.401901 0.207452
N1    N     N_3   0.499750 0.138610 0.497240 -0.033770
N2    N     N_3   0.499750 0.861390 0.497240 -0.035990
O1    O     O_R   0.314910 0.616040 0.499970 -0.624002
O2    O     O_R   0.314910 0.383960 0.499970 -0.594058
O3    O     O_R   0.500080 0.616020 0.313900 -0.629267
O4    O     O_R   0.500080 0.383980 0.313900 -0.639774
O5    O     O_R   0.685320 0.616040 0.499930 -0.584793
O6    O     O_R   0.685320 0.383960 0.499930 -0.658951
O7    O     O_R   0.500150 0.616060 0.686000 -0.631807
O8    O     O_R   0.500150 0.383940 0.686000 -0.631619
Zn1   Zn    Zn3+2 0.500150 0.654960 0.499940 0.930218
Zn2   Zn    Zn3+2 0.500150 0.345040 0.499940 0.910369
O9    O     O_3   0.113157 0.704167 0.362761 -0.790909
H27   H     H_    0.102455 0.805719 0.367053 0.315226
O10   O     O_3   0.122467 0.314655 0.654671 -0.799328
H28   H     H_    0.110374 0.297955 0.747036 0.329938
O11   O     O_3   0.889242 0.738111 0.587421 -0.730417
H29   H     H_    0.899644 0.834954 0.559275 0.303739
O12   O     O_3   0.880972 0.509647 0.734914 -0.739716
H30   H     H_    0.794859 0.474473 0.749774 0.316976

loop_
_geom_bond_atom_site_label_1
_geom_bond_atom_site_label_2
_ccdc_geom_bond_type
C7    C10   S    
C1    C8    S    
C4    C8    S    
C6    C9    S    
C7    C8    S    
C15   N1    S    
C1    O2    A    
C24   C26   S    
C7    H26   S    
N1    Zn2   S    
N2    Zn1   S    
C19   O8    A    
C15   C16   S    
O7    Zn1   S    
C13   H14   S    
O8    Zn2   S    
C21   H17   S    
C20   C24   S    
C11   H4    S    
O1    Zn1   S    
C5    O11   S    
C23   C24   S    
O2    Zn2   S    
C9    C10   S    
C11   N1    S    
C16   H11   S    
C21   C22   S    
C2    C17   S    
C5    H23   S    
C3    O9    S    
O3    Zn1   S    
C13   N1    S    
O4    Zn2   S    
C6    O12   S    
C2    C20   S    
O10   H28   S    
C4    C6    S    
C3    C8    S    
C14   H9    S    
C25   C26   S    
C19   C23   S    
C15   H12   S    
C5    C9    S    
C18   O5    A    
C2    C21   S    
C2    C26   S    
C6    H24   S    
C14   H15   S    
C18   O6    A    
C14   N2    S    
C20   C22   S    
C11   H6    S    
C22   H1    S    
C12   H5    S    
C24   H18   S    
C25   H19   S    
C15   H10   S    
C4    H22   S    
C10   H2    S    
C21   C25   S    
C3    C5    S    
C4    O10   S    
C20   H16   S    
C11   C12   S    
C17   O4    A    
O5    Zn1   S    
O6    Zn2   S    
C1    O1    A    
C7    H25   S    
C13   H8    S    
C10   H3    S    
C19   O7    A    
C3    H21   S    
C23   C25   S    
O11   H29   S    
C16   N2    S    
C26   H20   S    
C16   H13   S    
C9    C18   S    
O12   H30   S    
O9    H27   S    
C22   C23   S    
C12   H7    S    
C13   C14   S    
C12   N2    S    
C17   O3    A    
