data_mof_unit_20514.cif
_audit_creation_date              2012-10-26T20:51:58-0400
_audit_creation_method            fapswitch 2.2
_symmetry_space_group_name_H-M    P1
_symmetry_Int_Tables_number       1
_space_group_crystal_system       triclinic
_cell_length_a                    8.779711
_cell_length_b                    15.986902
_cell_length_c                    14.763859
_cell_angle_alpha                 89.773828
_cell_angle_beta                  97.600501
_cell_angle_gamma                 90.205823
_cell_volume                      2054.02890459

loop_
_atom_site_label
_atom_site_type_symbol
_atom_type_description
_atom_site_fract_x
_atom_site_fract_y
_atom_site_fract_z
_atom_type_partial_charge
C1    C     C_R   0.499836 0.340885 0.500092 0.532225
C2    C     C_R   0.796116 0.502457 0.522685 0.554468
C3    C     C_2   0.039761 0.490065 0.466062 0.219708
C4    C     C_2   0.960185 0.513766 0.534085 0.224476
C5    C     C_R   0.425960 0.955085 0.562351 -0.156210
C6    C     C_R   0.583698 0.045059 0.440807 -0.141031
C7    C     C_R   0.506361 0.912766 0.500943 -0.010351
C8    C     C_R   0.503372 0.087355 0.502239 -0.011059
C9    C     C_R   0.588413 0.957628 0.441090 0.276923
C10   C     C_R   0.426676 0.042457 0.564866 0.269773
C11   C     C_1   0.504214 0.823251 0.500071 -0.029093
C12   C     C_R   0.500472 0.659144 0.499900 0.522386
C13   C     C_1   0.501026 0.176855 0.500850 -0.037880
C14   C     C_1   0.500144 0.251858 0.500359 -0.031358
C15   C     C_1   0.502307 0.748224 0.499772 -0.028645
C16   C     C_R   0.638072 0.492224 0.962998 -0.115101
C17   C     C_R   0.362168 0.507019 0.037053 -0.112536
C18   C     C_3   0.971801 0.368625 0.391462 0.016323
C19   C     C_3   0.869340 0.331444 0.309694 -0.237674
C20   C     C_3   0.862472 0.236215 0.316211 -0.490117
C21   C     C_3   0.994829 0.629048 0.628651 0.009090
C22   C     C_3   0.097109 0.687388 0.580118 -0.272839
C23   C     C_R   0.500088 0.499750 0.902882 0.000649
C24   C     C_3   0.065556 0.778998 0.599095 -0.495089
C25   C     C_3   0.439063 0.109386 0.702517 0.017055
C26   C     C_3   0.444499 0.042831 0.777817 -0.274272
C27   C     C_3   0.535839 0.073475 0.866686 -0.479931
C28   C     C_3   0.824536 0.908482 0.417266 0.009425
C29   C     C_3   0.924327 0.962828 0.362927 -0.267253
C30   C     C_3   0.094269 0.954670 0.400019 -0.472035
C31   C     C_R   0.500150 0.499593 0.097166 0.002889
C32   C     C_R   0.362134 0.507095 0.941250 -0.111955
C33   C     C_R   0.638101 0.492112 0.058815 -0.112895
C34   C     C_1   0.500009 0.499916 0.802722 0.129286
C35   C     C_1   0.500146 0.499792 0.197299 0.127768
C36   C     C_R   0.203809 0.498807 0.477346 0.563811
Cu1   Cu    Cu3+1 0.500040 0.500000 0.589220 0.989964
Cu2   Cu    Cu3+1 0.499960 0.500000 0.410780 0.998669
H1    H     H_    0.362440 0.920368 0.608313 0.119650
H2    H     H_    0.914719 0.349566 0.245567 0.164368
H3    H     H_    0.979242 0.209153 0.317957 0.150696
H4    H     H_    0.787885 0.211128 0.255796 0.147280
H5    H     H_    0.813691 0.216916 0.378798 0.146234
H6    H     H_    0.015123 0.642447 0.703037 0.157473
H7    H     H_    0.871405 0.643006 0.606089 0.129845
H8    H     H_    0.219566 0.673724 0.604312 0.201054
H9    H     H_    0.075617 0.676659 0.505233 0.146277
H10   H     H_    0.942436 0.793548 0.578157 0.140111
H11   H     H_    0.136157 0.819601 0.559839 0.144888
H12   H     H_    0.642409 0.079884 0.392646 0.118493
H13   H     H_    0.095744 0.792667 0.672955 0.150606
H14   H     H_    0.389701 0.167599 0.727221 0.161590
H15   H     H_    0.557985 0.125629 0.689238 0.124379
H16   H     H_    0.325565 0.027147 0.790259 0.174773
H17   H     H_    0.499319 0.985182 0.755809 0.154658
H18   H     H_    0.655900 0.088361 0.856061 0.149698
H19   H     H_    0.538158 0.023850 0.919675 0.152764
H20   H     H_    0.481589 0.130163 0.891469 0.151041
H21   H     H_    0.857883 0.842033 0.410727 0.156546
H22   H     H_    0.849457 0.924204 0.491514 0.113975
H23   H     H_    0.746304 0.486207 0.103056 0.115311
H24   H     H_    0.906536 0.943656 0.290038 0.179464
H25   H     H_    0.890457 0.029400 0.366951 0.158129
H26   H     H_    0.114213 0.974996 0.472424 0.171488
H27   H     H_    0.163770 0.994948 0.359665 0.161216
H28   H     H_    0.132525 0.888875 0.395269 0.153552
H29   H     H_    0.253910 0.512951 0.897032 0.118531
H30   H     H_    0.746279 0.486436 0.935833 0.109282
H31   H     H_    0.253960 0.512823 0.064215 0.111590
H32   H     H_    0.927886 0.346695 0.455111 0.116295
H33   H     H_    0.091461 0.345647 0.391327 0.138383
H34   H     H_    0.751078 0.356845 0.307130 0.198028
N1    N     N_1   0.500050 0.499980 0.276720 -0.190165
N2    N     N_1   0.499950 0.500020 0.723280 -0.186217
O1    O     O_R   0.500070 0.380310 0.575330 -0.492970
O2    O     O_3   0.033729 0.544153 0.616852 -0.573379
O3    O     O_3   0.341500 0.083208 0.623563 -0.570196
O4    O     O_3   0.667913 0.916157 0.380069 -0.557068
O5    O     O_R   0.499930 0.619690 0.424670 -0.482723
O6    O     O_R   0.500000 0.380310 0.424640 -0.508086
O7    O     O_R   0.500000 0.619690 0.575360 -0.515720
O8    O     O_R   0.274870 0.500000 0.557960 -0.468120
O9    O     O_R   0.725130 0.500000 0.442040 -0.471155
O10   O     O_R   0.274790 0.500000 0.407270 -0.483891
O11   O     O_R   0.725210 0.500000 0.592730 -0.492998
O12   O     O_3   0.968227 0.456827 0.384554 -0.572542

loop_
_geom_bond_atom_site_label_1
_geom_bond_atom_site_label_2
_ccdc_geom_bond_type
C18   H32   S    
Cu1   N2    S    
C29   H25   S    
C17   H31   S    
C8    C13   S    
C30   H26   S    
Cu2   O9    S    
C19   C20   S    
C26   H17   S    
C6    C9    A    
C20   H3    S    
C2    O9    A    
C7    C11   S    
C21   O2    S    
C26   C27   S    
C29   C30   S    
C25   O3    S    
Cu1   O11   S    
C28   C29   S    
C25   H15   S    
Cu2   O5    S    
C12   O5    A    
C18   H33   S    
C2    O11   A    
C18   C19   S    
C11   C15   T    
C36   O8    A    
C31   C33   A    
C16   H30   S    
C28   O4    S    
C24   H13   S    
C22   H9    S    
Cu1   O1    S    
C13   C14   T    
C3    O12   S    
Cu1   O7    S    
C19   H34   S    
C26   H16   S    
C10   O3    S    
C21   H7    S    
C28   H22   S    
C24   H10   S    
C27   H19   S    
C5    C7    A    
C27   H18   S    
C6    C8    A    
C25   C26   S    
C1    O1    A    
C2    C4    S    
Cu1   Cu2   S    
C16   C33   A    
C21   H6    S    
C12   C15   S    
C23   C34   S    
C18   O12   S    
C6    H12   S    
C30   H28   S    
C34   N2    T    
C32   H29   S    
C33   H23   S    
C22   H8    S    
C16   C23   A    
C5    H1    S    
C17   C31   A    
C31   C35   S    
Cu1   O8    S    
C3    C4    D    
C20   H5    S    
C28   H21   S    
C24   H11   S    
C7    C9    A    
C29   H24   S    
C35   N1    T    
Cu2   O10   S    
C27   H20   S    
C20   H4    S    
C23   C32   A    
C25   H14   S    
C5    C10   A    
Cu2   O6    S    
C3    C36   S    
C36   O10   A    
C12   O7    A    
C22   C24   S    
C9    O4    S    
C4    O2    S    
C30   H27   S    
C19   H2    S    
C8    C10   A    
C17   C32   A    
C1    O6    A    
C1    C14   S    
C21   C22   S    
Cu2   N1    S    
