data_mof_unit_46026.cif
_audit_creation_date              2013-03-05T15:50:19-0500
_audit_creation_method            fapswitch 2.2
_symmetry_space_group_name_H-M    P1
_symmetry_Int_Tables_number       1
_space_group_crystal_system       triclinic
_cell_length_a                    12.15985
_cell_length_b                    11.524581
_cell_length_c                    12.796408
_cell_angle_alpha                 92.028288
_cell_angle_beta                  94.957631
_cell_angle_gamma                 86.698486
_cell_volume                      1782.74437472

loop_
_atom_site_label
_atom_site_type_symbol
_atom_site_description
_atom_site_fract_x
_atom_site_fract_y
_atom_site_fract_z
_atom_type_partial_charge
O1    O     O_R   0.578300 0.494420 0.341180 -0.568708
O2    O     O_R   0.421700 0.505580 0.658820 -0.568710
O3    O     O_R   0.390690 0.507830 0.353590 -0.654588
O4    O     O_R   0.609310 0.492170 0.646410 -0.654588
C1    C     C_R   0.476829 0.498429 0.300140 0.935022
C2    C     C_R   0.523171 0.501571 0.699860 0.935024
O5    O     O_R   0.593810 0.327740 0.493800 -0.564726
O6    O     O_R   0.406190 0.672260 0.506200 -0.564726
O7    O     O_R   0.406190 0.341150 0.506220 -0.644597
O8    O     O_R   0.593810 0.658850 0.493780 -0.644595
C3    C     C_R   0.499873 0.282421 0.501272 0.934010
C4    C     C_R   0.500127 0.717579 0.498728 0.934011
Zn1   Zn    Zn3+2 0.625270 0.491050 0.491710 1.010837
Zn2   Zn    Zn3+2 0.374730 0.508950 0.508290 1.010836
C5    C     C_1   0.499367 0.161816 0.501367 -0.067662
C6    C     C_1   0.500633 0.838184 0.498633 -0.067662
C7    C     C_1   0.499659 0.059452 0.500625 0.075547
C8    C     C_1   0.500341 0.940548 0.499375 0.075547
C9    C     C_R   0.538845 0.510624 0.811855 -0.238499
C10   C     C_R   0.461155 0.489375 0.188145 -0.238501
C11   C     C_R   0.421936 0.371047 0.031921 0.282304
C12   C     C_R   0.578067 0.628949 0.968080 0.282305
C13   C     C_R   0.417160 0.389638 0.139516 0.195967
C14   C     C_R   0.582842 0.610360 0.860485 0.195963
C15   C     C_R   0.504272 0.574602 0.131221 0.067242
C16   C     C_R   0.495727 0.425397 0.868779 0.067240
C17   C     C_R   0.520751 0.551767 0.025163 -0.043864
C18   C     C_R   0.479250 0.448231 0.974837 -0.043867
N1    N     N_R   0.792200 0.479100 0.480660 -0.191078
N2    N     N_R   0.207800 0.520900 0.519340 -0.191077
C19   C     C_R   0.052377 0.597353 0.610572 -0.049170
C20   C     C_R   0.947622 0.402647 0.389428 -0.049169
C21   C     C_R   0.166753 0.588257 0.598439 0.369384
C22   C     C_R   0.833246 0.411743 0.401561 0.369385
C23   C     C_R   0.137747 0.462855 0.448377 0.137192
C24   C     C_R   0.862253 0.537145 0.551623 0.137192
C25   C     C_R   0.021660 0.465799 0.458823 -0.004119
C26   C     C_R   0.978339 0.534201 0.541176 -0.004119
N3    N     N_3   0.472581 0.314451 0.818994 -0.366959
H1    H     H_    0.408488 0.325201 0.759729 0.229775
H2    H     H_    0.543430 0.280046 0.785638 0.187211
N4    N     N_3   0.527416 0.685549 0.181004 -0.366959
H3    H     H_    0.456565 0.719953 0.214358 0.187212
H4    H     H_    0.591507 0.674801 0.240271 0.229775
N5    N     N_R   0.629469 0.695107 0.800351 0.212108
O9    O     O_R   0.566520 0.753207 0.730922 -0.371024
O10   O     O_R   0.729340 0.727103 0.826104 -0.321709
N6    N     N_R   0.370535 0.304889 0.199650 0.212107
O11   O     O_R   0.433486 0.246790 0.269078 -0.371020
O12   O     O_R   0.270664 0.272892 0.173898 -0.321710
N7    N     N_R   0.368831 0.273102 0.982333 0.252022
O13   O     O_R   0.405967 0.167913 0.004506 -0.255225
O14   O     O_R   0.276206 0.289128 0.924448 -0.323609
N8    N     N_R   0.631177 0.726891 0.017670 0.252022
O15   O     O_R   0.723798 0.710859 0.075558 -0.323613
O16   O     O_R   0.594047 0.832082 0.995496 -0.255224
N9    N     N_3   0.818987 0.596486 0.640175 -0.362032
H5    H     H_    0.752466 0.652514 0.615471 0.266929
H6    H     H_    0.795433 0.534739 0.690286 0.233299
N10   N     N_3   0.181013 0.403512 0.359826 -0.362035
H7    H     H_    0.247532 0.347482 0.384531 0.266926
H8    H     H_    0.204570 0.465257 0.309715 0.233301
N11   N     N_R   0.760395 0.346033 0.331968 0.227377
O17   O     O_R   0.740144 0.376754 0.235021 -0.370255
O18   O     O_R   0.739668 0.241404 0.356416 -0.348165
N12   N     N_R   0.239605 0.653968 0.668032 0.227377
O19   O     O_R   0.259856 0.623246 0.764979 -0.370257
O20   O     O_R   0.260332 0.758597 0.643583 -0.348167
N13   N     N_3   0.012297 0.673479 0.691817 -0.371687
H9    H     H_    0.046847 0.644598 0.764557 0.256287
H10   H     H_    0.036998 0.757402 0.681397 0.245170
N14   N     N_3   0.987703 0.326523 0.308182 -0.371689
H11   H     H_    0.963001 0.242599 0.318601 0.245170
H12   H     H_    0.953153 0.355403 0.235442 0.256287

loop_
_geom_bond_atom_site_label_1
_geom_bond_atom_site_label_2
_geom_bond_distance
_ccdc_geom_bond_type
C15   N4    1.439686 S    
N12   O20   1.300267 A    
O7    Zn2   1.949265 S    
C19   C21   1.410241 A    
C19   C26   1.421380 A    
C25   C26   1.413783 A    
C15   C17   1.402474 A    
N14   H12   1.044949 S    
C16   C18   1.402475 A    
C10   C13   1.399025 A    
C19   N13   1.435914 S    
O6    C4    1.295304 A    
O3    C1    1.296993 A    
N11   O18   1.300266 A    
C9    C14   1.399025 A    
N13   H10   1.045443 S    
N10   H7    1.039838 S    
C20   N14   1.435914 S    
C1    C10   1.430236 S    
N5    O9    1.299654 A    
C24   C26   1.427721 A    
O5    C3    1.295304 A    
C2    C9    1.430237 S    
O7    C3    1.296312 A    
N1    C24   1.373555 A    
N9    H5    1.039839 S    
O2    C2    1.297509 A    
O3    Zn2   2.005235 S    
N4    H4    1.044642 S    
N2    C23   1.373555 A    
Zn2   N2    2.043346 S    
O1    C1    1.297509 A    
C14   N5    1.435231 S    
O8    C4    1.296313 A    
N6    O12   1.301226 A    
C22   N11   1.429854 S    
C23   C25   1.427721 A    
C11   C18   1.419827 A    
C21   N12   1.429855 S    
N12   O19   1.301251 A    
C12   C14   1.391562 A    
C12   C17   1.419827 A    
C11   C13   1.391563 A    
C7    C8    1.369393 S    
N13   H9    1.044949 S    
O2    Zn2   1.962324 S    
N8    O16   1.301202 A    
C16   N3    1.439686 S    
N9    H6    1.042654 S    
O4    C2    1.296993 A    
O1    Zn1   1.962325 S    
C10   C15   1.395057 A    
C12   N8    1.433956 S    
N7    O13   1.301205 A    
C23   N10   1.426621 S    
C4    C6    1.390337 S    
O5    Zn1   1.943590 S    
C11   N7    1.433957 S    
N3    H2    1.045875 S    
N10   H8    1.042648 S    
C24   N9    1.426622 S    
N4    H3    1.045876 S    
N5    O10   1.301226 A    
Zn1   N1    2.043346 S    
N3    H1    1.044642 S    
C5    C7    1.179215 T    
C9    C16   1.395059 A    
N8    O15   1.301100 A    
N6    O11   1.299654 A    
O6    Zn2   1.943591 S    
C13   N6    1.435229 S    
N2    C21   1.365025 A    
N7    O14   1.301102 A    
C20   C25   1.421379 A    
C3    C5    1.390336 S    
N1    C22   1.365024 A    
C6    C8    1.179214 T    
N11   O17   1.301251 A    
O4    Zn1   2.005235 S    
N14   H11   1.045442 S    
C17   C18   1.432454 A    
O8    Zn1   1.949266 S    
C20   C22   1.410241 A    
