data_mof_unit_64883.cif
_audit_creation_date              2012-12-10T16:48:45-0500
_audit_creation_method            fapswitch 2.2
_symmetry_space_group_name_H-M    P1
_symmetry_Int_Tables_number       1
_space_group_crystal_system       triclinic
_cell_length_a                    18.3608
_cell_length_b                    18.532168
_cell_length_c                    18.46148
_cell_angle_alpha                 119.922329
_cell_angle_beta                  119.541588
_cell_angle_gamma                 90.545471
_cell_volume                      4456.52280223

loop_
_atom_site_label
_atom_site_type_symbol
_atom_type_description
_atom_site_fract_x
_atom_site_fract_y
_atom_site_fract_z
_atom_type_partial_charge
C1    C     C_R   0.138983 0.362061 0.000897 0.865211
C2    C     C_2   0.811029 0.698384 0.006889 -0.336959
C3    C     C_2   0.723838 0.280796 0.443997 -0.142882
C4    C     C_R   0.862005 0.638870 0.000805 0.886801
C5    C     C_2   0.691278 0.192204 0.387557 -0.277340
C6    C     C_2   0.777805 0.336908 0.556392 -0.139652
C7    C     C_2   0.808611 0.304456 0.612404 -0.276250
C8    C     C_2   0.334538 0.277338 0.058157 -0.235490
C9    C     C_2   0.304855 0.190819 0.983345 -0.135745
C10   C     C_2   0.282812 0.335969 0.050088 -0.017663
C11   C     C_2   0.195249 0.308060 0.009526 -0.301431
C12   C     C_3   0.752170 0.355222 0.051100 0.640269
C13   C     C_2   0.224051 0.804554 0.975246 0.372475
C14   C     C_2   0.301562 0.795645 0.987182 -0.228341
C15   C     C_2   0.163705 0.739901 0.960462 -0.182727
C16   C     C_R   0.138306 0.638344 0.276862 0.891107
C17   C     C_2   0.196725 0.710312 0.018397 -0.324136
C18   C     C_2   0.217505 0.765810 0.553391 -0.098866
C19   C     C_2   0.307065 0.794122 0.613250 -0.351690
C20   C     C_2   0.170499 0.696526 0.444060 0.327151
C21   C     C_2   0.192002 0.702757 0.386511 -0.246132
C22   C     C_R   0.638157 0.138337 0.276804 0.854804
C23   C     C_3   0.799986 0.301687 0.999627 -0.235603
C24   C     C_R   0.361410 0.860187 0.723024 0.883074
C25   C     C_R   0.639166 0.861950 0.000002 0.883590
C26   C     C_R   0.361201 0.137963 0.997777 0.839108
C27   C     C_R   0.358942 0.859411 0.999374 0.881693
C28   C     C_R   0.861861 0.361473 0.723189 0.848918
C29   C     C_R   0.640251 0.141053 0.998907 0.892702
C30   C     C_R   0.140788 0.643050 0.003110 0.890821
C31   C     C_R   0.858159 0.359028 0.999648 0.922389
C32   C     C_3   0.725758 0.220587 0.886260 -0.350767
C33   C     C_3   0.670494 0.156541 0.886969 0.204572
C34   C     C_3   0.697594 0.198275 0.997945 -0.157728
C35   C     C_3   0.857489 0.260866 0.057198 0.598225
C36   C     C_1   0.671000 0.246729 0.818381 0.385495
C37   C     C_1   0.222365 0.148780 0.882730 0.232133
C38   C     C_1   0.330903 0.423605 0.090023 0.275899
C39   C     C_1   0.324777 0.716846 0.971903 0.152053
C40   C     C_1   0.163909 0.799273 0.591302 0.351948
C41   C     C_1   0.260044 0.779119 0.427214 0.151171
C42   C     C_1   0.814479 0.130813 0.058330 0.316535
C43   C     C_3   0.798365 0.212886 0.069848 -0.383209
C44   C     C_3   0.685804 0.290573 0.038611 -0.440130
C45   C     C_2   0.734505 0.787627 0.950468 0.427885
C46   C     C_2   0.691523 0.803231 0.996074 -0.374792
C47   C     C_2   0.783274 0.724859 0.945084 -0.190588
Cl1   Cl    Cl    0.957998 0.341906 0.180526 -0.448741
Cl2   Cl    Cl    0.736187 0.839203 0.892209 -0.520713
Cl3   Cl    Cl    0.191943 0.896494 0.982808 -0.525820
Cl4   Cl    Cl    0.551521 0.120717 0.796389 -0.576812
Cl5   Cl    Cl    0.085758 0.603560 0.392409 -0.446389
Cl6   Cl    Cl    0.899962 0.187454 0.989863 -0.535956
Cl7   Cl    Cl    0.827870 0.443118 0.184877 -0.424959
Cl8   Cl    Cl    0.693084 0.411492 0.997358 -0.545580
H1    H     H_    0.757548 0.181975 0.849379 0.204587
H2    H     H_    0.796657 0.234544 0.578372 0.158923
H3    H     H_    0.400937 0.307437 0.128234 0.186310
H4    H     H_    0.163213 0.242739 0.984070 0.182895
H5    H     H_    0.092697 0.718956 0.904366 0.213422
H6    H     H_    0.266973 0.737500 0.080297 0.172819
H7    H     H_    0.342881 0.764233 0.579985 0.176335
H8    H     H_    0.687420 0.094829 0.861827 0.180078
H9    H     H_    0.615996 0.282486 0.985496 0.246220
H10   H     H_    0.695157 0.318824 0.112986 0.225923
H11   H     H_    0.817639 0.256839 0.149550 0.201390
H12   H     H_    0.691545 0.769634 0.030073 0.142054
H13   H     H_    0.799550 0.702092 0.889839 0.218902
H14   H     H_    0.800028 0.722696 0.066256 0.171011
H15   H     H_    0.709938 0.314498 0.406948 0.188306
H16   H     H_    0.701722 0.156201 0.421261 0.159639
H17   H     H_    0.793261 0.407864 0.593836 0.188503
N1    N     N_1   0.628306 0.266656 0.764608 -0.127429
N2    N     N_1   0.156767 0.115080 0.802423 -0.156057
N3    N     N_1   0.369522 0.493579 0.121942 -0.152122
N4    N     N_1   0.343399 0.654148 0.959657 -0.147326
N5    N     N_1   0.120886 0.825863 0.621288 -0.126282
N6    N     N_1   0.314196 0.839964 0.459460 -0.122757
N7    N     N_1   0.827125 0.066793 0.049627 -0.079245
O1    O     O_3   0.000000 0.500000 0.000000 -0.532422
O2    O     O_R   0.324760 0.053850 0.939900 -0.614223
O3    O     O_R   0.443270 0.883090 0.060070 -0.640737
O4    O     O_R   0.053940 0.324750 0.939940 -0.610104
O5    O     O_R   0.616890 0.176890 0.060090 -0.651470
O6    O     O_R   0.323100 0.883090 0.939900 -0.595567
O7    O     O_R   0.616910 0.056740 0.939940 -0.610503
O8    O     O_R   0.615250 0.885990 0.939940 -0.582229
O9    O     O_R   0.446110 0.175200 0.060060 -0.643003
O10   O     O_R   0.614030 0.053850 0.229160 -0.635286
O11   O     O_R   0.324790 0.884790 0.770830 -0.645405
O12   O     O_R   0.053880 0.613970 0.229150 -0.582565
O13   O     O_R   0.884790 0.613970 0.060060 -0.618973
O14   O     O_R   0.175250 0.615170 0.229170 -0.642330
O15   O     O_R   0.886020 0.446110 0.770840 -0.640271
O16   O     O_R   0.176940 0.616860 0.060100 -0.640357
O17   O     O_R   0.883150 0.323060 0.939910 -0.625436
O18   O     O_R   0.056770 0.616860 0.939930 -0.641545
O19   O     O_R   0.883130 0.443210 0.060060 -0.550321
O20   O     O_R   0.884840 0.324750 0.770840 -0.641239
O21   O     O_R   0.175280 0.446110 0.060100 -0.636745
O22   O     O_R   0.885990 0.615170 0.939900 -0.644590
O23   O     O_3   0.500040 0.999960 0.000000 -0.525837
O24   O     O_R   0.615200 0.175200 0.229160 -0.641678
O25   O     O_R   0.446160 0.885990 0.770850 -0.610158
O26   O     O_R   0.614060 0.884790 0.060100 -0.644323
Zn1   Zn    Zn3+2 0.956210 0.542060 0.085830 1.100758
Zn2   Zn    Zn3+2 0.129620 0.543770 0.085850 1.011252
Zn3   Zn    Zn3+2 0.957930 0.543770 0.914160 0.982461
Zn4   Zn    Zn3+2 0.956240 0.370390 0.914160 1.034285
Zn5   Zn    Zn3+2 0.543830 0.957900 0.914170 1.057120
Zn6   Zn    Zn3+2 0.542120 0.956180 0.085840 0.998305
Zn7   Zn    Zn3+2 0.370430 0.956180 0.914150 1.042319
Zn8   Zn    Zn3+2 0.543800 0.129560 0.085840 0.991784

loop_
_geom_bond_atom_site_label_1
_geom_bond_atom_site_label_2
_ccdc_geom_bond_type
C37   N2    T    
C16   C21   S    
C5    H16   S    
C35   Cl6   S    
C15   H5    S    
O23   Zn7   S    
C1    C11   S    
O11   Zn7   S    
O6    Zn7   S    
O23   Zn6   S    
C25   O26   A    
O8    Zn5   S    
C45   C46   D    
C44   H9    S    
C6    H17   S    
O1    Zn2   S    
O15   Zn3   S    
C16   O14   A    
O5    Zn8   S    
C32   C36   S    
O7    Zn5   S    
C8    C10   S    
C19   H7    S    
C31   O17   A    
O20   Zn4   S    
O1    Zn1   S    
C25   O8    A    
C28   O15   A    
C18   C19   D    
C31   O19   A    
O9    Zn8   S    
C27   O6    A    
C18   C40   S    
C8    H3    S    
C14   C39   S    
O18   Zn3   S    
C5    C22   S    
C8    C9    D    
O1    Zn4   S    
O4    Zn4   S    
C14   C27   S    
C2    H14   S    
C35   C43   S    
C17   H6    S    
C3    C6    S    
O22   Zn3   S    
O26   Zn6   S    
C42   N7    T    
C13   C14   D    
C17   C30   S    
O12   Zn1   S    
C44   H10   S    
C11   H4    S    
C35   Cl1   S    
C1    O21   A    
C9    C26   S    
C38   N3    T    
C45   C47   S    
C3    H15   S    
C34   C44   S    
C29   O5    A    
C36   N1    T    
C41   N6    T    
C29   C34   S    
C7    C28   S    
C24   O25   A    
C23   C31   S    
C2    C4    S    
C30   O16   A    
C12   C23   S    
O2    Zn7   S    
C45   Cl2   S    
C33   H8    S    
C4    O22   A    
C9    C37   S    
C33   C34   S    
C39   N4    T    
C29   O7    A    
O16   Zn2   S    
C21   C41   S    
C28   O20   A    
O13   Zn1   S    
C26   O2    A    
C23   C35   S    
C13   C15   S    
O23   Zn5   S    
C33   Cl4   S    
C42   C43   S    
C47   H13   S    
C15   C17   D    
O10   Zn6   S    
O21   Zn2   S    
O24   Zn8   S    
C27   O3    A    
C34   C43   S    
C23   C32   S    
C3    C5    D    
C24   O11   A    
C6    C7    D    
C2    C47   D    
C1    O4    A    
O17   Zn4   S    
O1    Zn3   S    
O19   Zn1   S    
C10   C38   S    
O3    Zn6   S    
C19   C24   S    
C46   H12   S    
C20   Cl5   S    
O23   Zn8   S    
C32   C33   S    
O25   Zn5   S    
C43   H11   S    
C22   O10   A    
C7    H2    S    
C18   C20   S    
C12   Cl7   S    
C12   Cl8   S    
C10   C11   D    
C22   O24   A    
C13   Cl3   S    
C20   C21   D    
C16   O12   A    
C26   O9    A    
C40   N5    T    
C12   C44   S    
C30   O18   A    
C25   C46   S    
C32   H1    S    
O14   Zn2   S    
C4    O13   A    
