data_mof_unit_22469.cif
_audit_creation_date              2012-12-10T17:10:16-0500
_audit_creation_method            fapswitch 2.2
_symmetry_space_group_name_H-M    P1
_symmetry_Int_Tables_number       1
_space_group_crystal_system       triclinic
_cell_length_a                    15.727062
_cell_length_b                    10.640692
_cell_length_c                    10.050293
_cell_angle_alpha                 89.275351
_cell_angle_beta                  91.314525
_cell_angle_gamma                 90.345335
_cell_volume                      1681.27980518

loop_
_atom_site_label
_atom_site_type_symbol
_atom_type_description
_atom_site_fract_x
_atom_site_fract_y
_atom_site_fract_z
_atom_type_partial_charge
C1    C     C_R   0.490345 0.263180 0.500548 0.819280
C2    C     C_2   0.512266 0.871858 0.493373 0.384415
C3    C     C_2   0.467958 0.067740 0.391398 -0.164380
C4    C     C_R   0.338028 0.499633 0.498464 0.889030
C5    C     C_2   0.458998 0.135648 0.501657 -0.116811
C6    C     C_2   0.559950 0.550991 0.926769 -0.061528
C7    C     C_2   0.551294 0.568326 0.074808 0.063073
C8    C     C_R   0.503570 0.737748 0.498934 0.782284
C9    C     C_R   0.661955 0.500080 0.501524 0.885279
C10   C     C_3   0.974928 0.400379 0.580603 -0.028493
C11   C     C_3   0.026206 0.380227 0.452965 -0.433194
C12   C     C_3   0.083076 0.492414 0.493150 0.066198
C13   C     C_1   0.249159 0.497033 0.494589 -0.163732
C14   C     C_1   0.750794 0.498479 0.505239 -0.141155
C15   C     C_3   0.032612 0.511377 0.619544 0.452817
C16   C     C_2   0.414264 0.088674 0.622622 0.493236
C17   C     C_3   0.391869 0.367789 0.122365 0.203887
C18   C     C_3   0.356402 0.267811 0.028969 -0.904004
C19   C     C_2   0.948579 0.296586 0.673133 0.399525
C20   C     C_2   0.931908 0.449743 0.239620 0.389219
C21   C     C_3   0.995098 0.764397 0.294419 0.099092
C22   C     C_3   0.033249 0.866622 0.206556 -0.809515
C23   C     C_3   0.974397 0.606775 0.545108 -0.443146
C24   C     C_3   0.018972 0.568780 0.838500 0.092414
C25   C     C_3   0.065963 0.577221 0.971874 -0.784662
C26   C     C_3   0.644121 0.883219 0.599090 0.042961
C27   C     C_3   0.703895 0.976673 0.666891 -0.727339
C28   C     C_3   0.916833 0.493844 0.504201 0.048921
C29   C     C_3   0.024996 0.584705 0.417349 0.456776
C30   C     C_3   0.967330 0.474083 0.376557 -0.035111
C31   C     C_1   0.173901 0.494570 0.492195 0.067012
C32   C     C_1   0.826025 0.496431 0.506765 0.107082
C33   C     C_2   0.466966 0.932459 0.398059 -0.192333
H1    H     H_    0.049117 0.289064 0.415405 0.175487
H2    H     H_    0.385338 0.330877 0.224874 0.185389
H3    H     H_    0.393402 0.179686 0.041578 0.266622
H4    H     H_    0.288898 0.247940 0.052138 0.222047
H5    H     H_    0.359783 0.300467 0.923871 0.255188
H6    H     H_    0.996730 0.238622 0.721986 0.074150
H7    H     H_    0.974078 0.420584 0.162279 0.067726
H8    H     H_    0.969257 0.811040 0.383153 0.148153
H9    H     H_    0.942350 0.717710 0.237918 0.149213
H10   H     H_    0.060133 0.825151 0.116066 0.254830
H11   H     H_    0.983278 0.935092 0.175947 0.209847
H12   H     H_    0.616915 0.586883 0.880391 0.135873
H13   H     H_    0.084611 0.916943 0.262218 0.263764
H14   H     H_    0.964253 0.502866 0.849418 0.155530
H15   H     H_    0.995164 0.664213 0.811577 0.148223
H16   H     H_    0.120322 0.643869 0.964493 0.265428
H17   H     H_    0.022036 0.611281 0.047973 0.214578
H18   H     H_    0.090281 0.483270 0.002797 0.247123
H19   H     H_    0.670700 0.860748 0.500221 0.117797
H20   H     H_    0.641989 0.796476 0.661848 0.158067
H21   H     H_    0.680250 0.999613 0.766976 0.259536
H22   H     H_    0.768448 0.935558 0.678120 0.197486
H23   H     H_    0.442252 0.489397 0.893421 0.210145
H24   H     H_    0.707856 0.064395 0.606135 0.271757
H25   H     H_    0.589925 0.640490 0.122245 0.086261
H26   H     H_    0.951075 0.697290 0.583536 0.143567
H27   H     H_    0.431055 0.882555 0.321333 0.138158
H28   H     H_    0.489861 0.109452 0.298970 0.173921
H29   H     H_    0.422538 0.136947 0.716546 0.075434
H30   H     H_    0.352864 0.454369 0.108512 0.125432
N1    N     N_2   0.500900 0.501330 0.852150 -0.173716
N2    N     N_2   0.500930 0.501360 0.147810 0.053712
O1    O     O_R   0.499990 0.319060 0.613040 -0.612652
O2    O     O_3   0.478040 0.390125 0.093981 -0.531320
O3    O     O_2   0.873564 0.276767 0.694156 -0.570261
O4    O     O_2   0.856017 0.460709 0.214715 -0.566541
O5    O     O_3   0.058879 0.677160 0.331212 -0.606526
O6    O     O_3   0.075789 0.526138 0.742964 -0.605928
O7    O     O_3   0.562296 0.936909 0.586177 -0.606553
O8    O     O_R   0.500010 0.319100 0.386900 -0.596658
O9    O     O_R   0.376760 0.499970 0.613050 -0.606408
O10   O     O_R   0.376790 0.500010 0.386910 -0.651611
O11   O     O_R   0.499990 0.680900 0.613100 -0.589024
O12   O     O_R   0.500010 0.680940 0.386960 -0.660655
O13   O     O_R   0.623210 0.499990 0.613090 -0.613022
O14   O     O_R   0.623240 0.500030 0.386950 -0.584914
O15   O     O_2   0.365368 0.999155 0.617512 -0.566407
Zn1   Zn    Zn3+2 0.499980 0.499970 0.650990 0.973302
Zn2   Zn    Zn3+2 0.500020 0.500030 0.349010 0.981351

loop_
_geom_bond_atom_site_label_1
_geom_bond_atom_site_label_2
_ccdc_geom_bond_type
C6    H12   S    
C12   C29   S    
C26   O7    S    
C27   H21   S    
C20   C30   S    
C23   H26   S    
C26   C27   S    
C1    C5    S    
C23   C29   S    
C18   H4    S    
C10   C15   S    
C20   H7    S    
C27   H22   S    
C3    C33   S    
C8    O11   A    
C9    O14   A    
C6    N1    D    
C4    C13   S    
C25   H17   S    
C5    C16   S    
C22   H11   S    
C11   C30   S    
C4    O10   A    
H23   N1    S    
C7    H25   S    
C4    O9    A    
C15   C23   S    
C21   C22   S    
C16   H29   S    
C2    O7    S    
C1    O1    A    
C3    H28   S    
C17   O2    S    
C24   H15   S    
C28   C32   S    
C24   C25   S    
C27   H24   S    
N2    O2    S    
C16   O15   D    
C9    C14   S    
C25   H18   S    
C29   C30   S    
C26   H19   S    
C7    N2    D    
C22   H10   S    
C12   C15   S    
C10   C19   S    
C17   C18   S    
C19   O3    D    
C23   C28   S    
C19   H6    S    
C21   H8    S    
C2    C33   D    
C22   H13   S    
C33   H27   S    
C12   C31   S    
C8    O12   A    
C20   O4    D    
O9    Zn1   S    
C26   H20   S    
O8    Zn2   S    
C29   O5    S    
C10   C28   S    
C24   H14   S    
C13   C31   T    
C11   H1    S    
C2    C8    S    
C14   C32   T    
C3    C5    D    
O11   Zn1   S    
O14   Zn2   S    
C11   C12   S    
O10   Zn2   S    
C6    C7    S    
C15   O6    S    
C21   O5    S    
C1    O8    A    
C28   C30   S    
C18   H5    S    
C17   H30   S    
O1    Zn1   S    
O13   Zn1   S    
N2    Zn2   S    
O12   Zn2   S    
C9    O13   A    
C25   H16   S    
N1    Zn1   S    
C10   C11   S    
C21   H9    S    
C17   H2    S    
C18   H3    S    
C24   O6    S    
