data_mof_unit_63606.cif
_audit_creation_date              2012-12-10T19:02:15-0500
_audit_creation_method            fapswitch 2.2
_symmetry_space_group_name_H-M    P1
_symmetry_Int_Tables_number       1
_space_group_crystal_system       triclinic
_cell_length_a                    13.358959
_cell_length_b                    14.258679
_cell_length_c                    16.565605
_cell_angle_alpha                 89.999194
_cell_angle_beta                  83.451336
_cell_angle_gamma                 89.999499
_cell_volume                      3134.84668488

loop_
_atom_site_label
_atom_site_type_symbol
_atom_type_description
_atom_site_fract_x
_atom_site_fract_y
_atom_site_fract_z
_atom_type_partial_charge
C1    C     C_R   0.500000 0.673490 0.500000 0.916338
C2    C     C_1   0.169399 0.499956 0.499995 0.086393
C3    C     C_1   0.950474 0.499926 0.499999 -0.040237
C4    C     C_1   0.049526 0.499926 0.500000 -0.040238
C5    C     C_R   0.484669 0.499246 0.656901 0.939496
C6    C     C_R   0.515332 0.499244 0.343098 0.939504
C7    C     C_R   0.471537 0.466282 0.740984 -0.224913
C8    C     C_R   0.528475 0.466285 0.259014 -0.224994
C9    C     C_R   0.541447 0.492866 0.792890 -0.286936
C10   C     C_R   0.458548 0.492832 0.207108 -0.286915
C11   C     C_R   0.536210 0.455194 0.870342 -0.225644
C12   C     C_R   0.500000 0.326537 0.500003 0.909167
C13   C     C_R   0.463811 0.455162 0.129654 -0.225646
C14   C     C_R   0.466367 0.383870 0.895191 -0.089579
C15   C     C_R   0.533705 0.383879 0.104801 -0.089556
C16   C     C_R   0.397437 0.354141 0.841951 0.504376
C17   C     C_R   0.602645 0.354184 0.158042 0.504448
C18   C     C_R   0.396343 0.399231 0.766456 0.412704
C19   C     C_R   0.603707 0.399269 0.233538 0.412700
C20   C     C_2   0.458380 0.348122 0.979683 0.373357
C21   C     C_2   0.541733 0.348149 0.020304 0.373351
C22   C     C_3   0.670349 0.297100 0.320512 -0.205324
C23   C     C_1   0.499999 0.774143 0.500000 -0.223748
C24   C     C_3   0.329681 0.297050 0.679506 -0.205384
C25   C     C_3   0.647873 0.256501 0.932032 -0.253503
C26   C     C_3   0.352351 0.256347 0.067932 -0.253499
C27   C     C_3   0.374482 0.196720 0.856271 -0.331892
C28   C     C_3   0.625635 0.196766 0.143777 -0.332041
C29   C     C_1   0.500000 0.225905 0.500003 -0.275793
C30   C     C_1   0.499999 0.858711 0.500001 -0.008630
C31   C     C_1   0.500000 0.141364 0.500003 -0.023470
C32   C     C_1   0.499999 0.957770 0.500002 0.003009
C33   C     C_1   0.500000 0.042327 0.500003 0.001279
C34   C     C_1   0.830601 0.499956 0.500004 0.086393
H1    H     H_    0.598885 0.544507 0.773969 0.182896
H2    H     H_    0.286567 0.241858 0.715553 0.189814
H3    H     H_    0.601529 0.197063 0.959065 0.109904
H4    H     H_    0.727669 0.233461 0.926001 0.210200
H5    H     H_    0.628420 0.271256 0.869943 0.151550
H6    H     H_    0.398827 0.196972 0.040904 0.109819
H7    H     H_    0.272583 0.233191 0.073907 0.210175
H8    H     H_    0.371725 0.271133 0.130049 0.151614
H9    H     H_    0.316348 0.141450 0.868660 0.201209
H10   H     H_    0.412569 0.185267 0.793803 0.124578
H11   H     H_    0.430452 0.187228 0.900097 0.143390
H12   H     H_    0.401076 0.544442 0.226031 0.182913
H13   H     H_    0.683824 0.141488 0.131648 0.201177
H14   H     H_    0.587294 0.185433 0.206189 0.124436
H15   H     H_    0.569882 0.187159 0.099787 0.143611
H16   H     H_    0.413010 0.482669 0.089065 0.210710
H17   H     H_    0.586992 0.482731 0.910931 0.210732
H18   H     H_    0.590114 0.275586 0.335356 0.096158
H19   H     H_    0.703647 0.302932 0.378621 0.188119
H20   H     H_    0.713433 0.241891 0.284470 0.189775
H21   H     H_    0.409915 0.275514 0.664677 0.096158
H22   H     H_    0.296402 0.302881 0.621388 0.188123
N1    N     N_1   0.738130 0.500000 0.500020 -0.056362
N2    N     N_1   0.261870 0.500000 0.499980 -0.056360
O1    O     O_R   0.423530 0.626280 0.499990 -0.597416
O2    O     O_3   0.317616 0.383888 0.720265 -0.571550
O3    O     O_3   0.638869 0.338714 0.980151 -0.572667
O4    O     O_3   0.361256 0.338583 0.019835 -0.572610
O5    O     O_3   0.326833 0.285295 0.864796 -0.537411
O6    O     O_3   0.673268 0.285349 0.135212 -0.537400
O7    O     O_R   0.576470 0.373720 0.500010 -0.597793
O8    O     O_R   0.576470 0.626280 0.500010 -0.597414
O9    O     O_R   0.423530 0.373720 0.499990 -0.597774
O10   O     O_R   0.414510 0.500000 0.615790 -0.552727
O11   O     O_R   0.585490 0.500000 0.384210 -0.552725
O12   O     O_R   0.567420 0.500000 0.615810 -0.614130
O13   O     O_R   0.432580 0.500000 0.384190 -0.614125
O14   O     O_3   0.682430 0.383933 0.279737 -0.571526
Zn1   Zn    Zn3+2 0.397910 0.500000 0.499990 0.984184
Zn2   Zn    Zn3+2 0.602090 0.500000 0.500010 0.984174

loop_
_geom_bond_atom_site_label_1
_geom_bond_atom_site_label_2
_ccdc_geom_bond_type
N1    Zn2   S    
O12   Zn2   S    
C6    O11   A    
C2    C4    S    
C2    N2    T    
C28   H13   S    
C7    C9    A    
C5    O12   A    
O9    Zn1   S    
C16   O5    S    
C27   H9    S    
C25   H4    S    
C34   N1    T    
C28   H15   S    
O1    Zn1   S    
C21   O3    S    
C13   C15   A    
C24   O2    S    
C7    C18   A    
C25   H3    S    
C32   C33   T    
C27   H11   S    
C31   C33   S    
C1    O8    A    
C26   O4    S    
O11   Zn2   S    
C29   C31   T    
C25   O3    S    
C25   H5    S    
C24   H21   S    
C30   C32   S    
C9    C11   A    
C26   H6    S    
C19   O14   S    
C24   H2    S    
C27   O5    S    
C5    O10   A    
C28   O6    S    
C22   O14   S    
C17   C19   A    
C1    C23   S    
C22   H19   S    
C5    C7    S    
C22   H20   S    
C1    O1    A    
C17   O6    S    
C20   O4    S    
C6    O13   A    
C12   C29   S    
C12   O9    A    
C14   C16   A    
C8    C19   A    
C24   H22   S    
C26   H7    S    
C9    H1    S    
C3    C4    T    
O8    Zn2   S    
C23   C30   T    
C14   C20   S    
C10   H12   S    
C15   C21   S    
C11   H17   S    
C20   C21   D    
C26   H8    S    
C18   O2    S    
C16   C18   A    
C12   O7    A    
O13   Zn1   S    
C11   C14   A    
C15   C17   A    
C28   H14   S    
C6    C8    S    
C3    C34   S    
C22   H18   S    
O10   Zn1   S    
C27   H10   S    
C8    C10   A    
O7    Zn2   S    
C13   H16   S    
N2    Zn1   S    
C10   C13   A    
