data_mof_unit_18955.cif
_audit_creation_date              2012-12-11T14:33:12-0500
_audit_creation_method            fapswitch 2.2
_symmetry_space_group_name_H-M    P1
_symmetry_Int_Tables_number       1
_space_group_crystal_system       triclinic
_cell_length_a                    6.953046
_cell_length_b                    13.813762
_cell_length_c                    17.915934
_cell_angle_alpha                 112.280796
_cell_angle_beta                  95.738644
_cell_angle_gamma                 90.049858
_cell_volume                      1582.91928626

loop_
_atom_site_label
_atom_site_type_symbol
_atom_type_description
_atom_site_fract_x
_atom_site_fract_y
_atom_site_fract_z
_atom_type_partial_charge
O1    O     O_R   0.484560 0.544530 0.414330 -0.536932
O2    O     O_R   0.197040 0.638810 0.585080 -0.541002
O3    O     O_R   0.026800 0.455470 0.585670 -0.540213
C1    C     C_R   0.374153 0.678047 0.610567 0.685167
O4    O     O_R   0.155000 0.556150 0.414940 -0.542569
O5    O     O_R   0.984450 0.372220 0.414320 -0.536059
C2    C     C_R   0.317389 0.564960 0.386465 0.756585
O6    O     O_R   0.526900 0.627780 0.585680 -0.539939
O7    O     O_3   0.339170 0.439750 0.499990 -0.373493
V1    V     V_3+5 0.064350 0.511180 0.500000 1.377865
O8    O     O_R   0.654880 0.361190 0.414920 -0.542847
C3    C     C_R   0.817083 0.324596 0.386468 0.762299
O9    O     O_R   0.696930 0.443850 0.585060 -0.542595
C4    C     C_R   0.873524 0.432391 0.611577 0.692011
V2    V     V_3+5 0.564340 0.488820 0.500000 1.376324
O10   O     O_3   0.839390 0.560250 0.500010 -0.376237
C5    C     C_R   0.038213 0.860542 0.822169 -0.049989
C6    C     C_R   0.908015 0.395096 0.678273 -0.045848
C7    C     C_R   0.921385 0.820724 0.681503 -0.129220
C8    C     C_R   0.973724 0.787776 0.744863 -0.144040
C9    C     C_R   0.042466 0.967835 0.836365 -0.202902
C10   C     C_R   0.990088 0.003740 0.772486 0.096993
C11   C     C_R   0.931028 0.927315 0.694262 0.121195
C12   C     C_R   0.996390 0.112074 0.783058 0.035741
C13   C     C_R   0.945366 0.141804 0.715241 0.069695
C14   C     C_R   0.890412 0.061918 0.638800 -0.169967
C15   C     C_R   0.882447 0.957237 0.628895 -0.219153
C16   C     C_R   0.056473 0.191547 0.858872 -0.132077
C17   C     C_R   0.076281 0.295331 0.867904 -0.084898
C18   C     C_R   0.021633 0.326016 0.803720 0.077602
C19   C     C_R   0.952892 0.250457 0.726269 0.083072
C20   C     C_R   0.034707 0.432663 0.817207 -0.098217
C21   C     C_R   0.979240 0.466752 0.754981 -0.162078
C22   C     C_R   0.896119 0.287574 0.663545 -0.207180
H1    H     H_    0.838044 0.898755 0.569003 0.115629
H2    H     H_    0.843497 0.235596 0.602830 0.091244
H3    H     H_    0.994310 0.549339 0.766504 0.091028
H4    H     H_    0.129272 0.352990 0.927051 0.198688
H5    H     H_    0.872913 0.762489 0.622073 0.138766
H6    H     H_    0.962751 0.705133 0.733564 0.092232
H7    H     H_    0.086166 0.020493 0.897805 0.098371
H8    H     H_    0.852627 0.077637 0.584860 0.118915
H9    H     H_    0.094760 0.176256 0.912920 0.139288
H10   H     H_    0.089225 0.490023 0.876225 0.163705
H11   H     H_    0.113971 0.223670 0.308464 0.154809
H12   H     H_    0.834340 0.034972 0.193755 0.150835
C23   C     C_2   0.135242 0.037344 0.183836 -0.341966
C24   C     C_2   0.972601 0.077957 0.216965 -0.124767
H13   H     H_    0.675163 0.178064 0.294818 0.124734
C25   C     C_2   0.813122 0.221218 0.318472 -0.346569
C26   C     C_2   0.975722 0.180670 0.285270 -0.121466
H14   H     H_    0.273204 0.080494 0.207493 0.126184
C27   C     C_R   0.410585 0.781642 0.678536 -0.052583
C28   C     C_R   0.543785 0.468792 0.834520 -0.158408
C29   C     C_R   0.519554 0.878440 0.820352 -0.119906
C30   C     C_R   0.475666 0.783683 0.755412 -0.146891
C31   C     C_R   0.405976 0.876970 0.666099 -0.207657
C32   C     C_R   0.454227 0.975498 0.732010 0.094604
C33   C     C_R   0.500288 0.973574 0.810096 0.102815
C34   C     C_R   0.455256 0.075885 0.724408 0.060831
C35   C     C_R   0.489488 0.171975 0.795440 0.060814
C36   C     C_R   0.490285 0.161973 0.870456 -0.080047
C37   C     C_R   0.512258 0.066394 0.878348 -0.227220
C38   C     C_R   0.417361 0.083074 0.648486 -0.167494
C39   C     C_R   0.408482 0.179041 0.641379 -0.185604
C40   C     C_R   0.448260 0.272542 0.708638 0.089375
C41   C     C_R   0.501402 0.273448 0.788074 -0.045231
C42   C     C_R   0.434001 0.365126 0.694700 -0.122196
C43   C     C_R   0.477508 0.461070 0.756570 -0.235085
C44   C     C_R   0.562131 0.375673 0.852557 0.361014
H15   H     H_    0.524820 0.064586 0.938607 0.131490
H16   H     H_    0.460773 0.530761 0.742973 0.114367
H17   H     H_    0.372440 0.179938 0.581328 0.110952
H18   H     H_    0.564442 0.877672 0.879644 0.149852
H19   H     H_    0.490022 0.711565 0.765603 0.085915
H20   H     H_    0.363242 0.871519 0.605110 0.090774
H21   H     H_    0.458596 0.226379 0.923723 0.202458
H22   H     H_    0.391042 0.015314 0.592842 0.117090
H23   H     H_    0.387271 0.363446 0.634636 0.145402
H24   H     H_    0.334409 0.666809 0.193872 0.163187
H25   H     H_    0.614437 0.590095 0.308041 0.155037
C45   C     C_2   0.313761 0.602046 0.318545 -0.336793
C46   C     C_2   0.476142 0.610408 0.285098 -0.129032
H26   H     H_    0.773408 0.635923 0.207264 0.132165
C47   C     C_2   0.635327 0.655842 0.183849 -0.321624
C48   C     C_2   0.472814 0.646798 0.216962 -0.130585
H27   H     H_    0.175775 0.622094 0.295141 0.130117
O11   O     O_R   0.421600 0.630430 0.917010 -0.552071
O12   O     O_R   0.793840 0.702190 0.087630 -0.521155
O13   O     O_R   0.964010 0.886170 0.088190 -0.543502
C49   C     C_R   0.631559 0.693358 0.116176 0.833601
O14   O     O_R   0.751460 0.619510 0.917500 -0.519426
O15   O     O_R   0.921330 0.802900 0.916840 -0.547467
C50   C     C_R   0.575515 0.577937 0.896320 0.819063
O16   O     O_R   0.464290 0.713700 0.088350 -0.540754
O17   O     O_3   0.609200 0.818520 0.002630 -0.394530
V3    V     V_3+5 0.884140 0.747190 0.002530 1.467772
O18   O     O_R   0.251150 0.814630 0.917340 -0.549555
C51   C     C_R   0.074072 0.824525 0.889865 0.677980
O19   O     O_R   0.293530 0.897310 0.087470 -0.548553
C52   C     C_R   0.131328 0.933890 0.115931 0.744561
V4    V     V_3+5 0.384070 0.769710 0.002370 1.397236
O20   O     O_3   0.109180 0.698190 0.002460 -0.356392
S1    S     S_3+6 0.664353 0.395952 0.954395 -0.090206
O21   O     O_2   0.766851 0.303747 0.961331 -0.364399
O22   O     O_2   0.809873 0.486254 0.986825 -0.350662
O23   O     O_3   0.483503 0.424296 0.014018 -0.544307
H28   H     H_    0.543619 0.428152 0.067630 0.364112

loop_
_geom_bond_atom_site_label_1
_geom_bond_atom_site_label_2
_ccdc_geom_bond_type
C13   C19   A    
C40   C42   A    
C29   C30   A    
C23   C52   S    
O17   V4    S    
C1    C27   S    
C4    C6    S    
C36   H21   S    
O2    C1    A    
C7    C8    A    
C1    O6    A    
S1    O22   D    
C47   C49   S    
C47   C48   D    
C14   C15   A    
C17   C18   A    
C31   H20   S    
C16   C17   A    
C29   C33   A    
O5    C3    A    
C18   C19   A    
C8    H6    S    
C44   S1    S    
H11   C26   S    
C32   C34   A    
V2    O10   S    
C5    C8    A    
C39   H17   S    
H24   C48   S    
C29   H18   S    
O8    V2    S    
C24   C26   S    
C42   C43   A    
C17   H4    S    
O23   H28   S    
O1    V2    S    
C11   C15   A    
O12   C49   A    
O7    V1    S    
O15   C51   A    
O13   V3    S    
O16   V4    S    
C42   H23   S    
C40   C41   A    
C30   H19   S    
O9    C4    A    
V4    O20   S    
O19   V4    S    
S1    O21   D    
H25   C46   S    
O14   V3    S    
O11   C50   A    
H12   C24   S    
H26   C47   S    
O4    C2    A    
C27   C31   A    
C15   H1    S    
C32   C33   A    
O18   V4    S    
C45   C46   D    
C21   H3    S    
O12   V3    S    
C34   C35   A    
C43   H16   S    
C7    C11   A    
O13   C52   A    
C36   C37   A    
C5    C51   S    
C35   C41   A    
C3    C25   S    
C23   C24   D    
C28   C44   A    
O17   V3    S    
C46   C48   S    
O14   C50   A    
C25   C26   D    
C20   H10   S    
C19   C22   A    
C12   C13   A    
C6    C22   A    
V3    O20   S    
O3    C4    A    
C7    H5    S    
C9    H7    S    
C37   H15   S    
O18   C51   A    
O6    V2    S    
O9    V2    S    
C10   C12   A    
O2    V1    S    
O15   V3    S    
C14   H8    S    
C27   C30   A    
O1    C2    A    
C38   H22   S    
C12   C16   A    
O5    V1    S    
O11   V4    S    
O8    C3    A    
C23   H14   S    
C16   H9    S    
C33   C37   A    
C34   C38   A    
C41   C44   A    
C20   C21   A    
C13   C14   A    
O4    V1    S    
O3    V1    S    
V1    O10   S    
C38   C39   A    
C18   C20   A    
C31   C32   A    
C28   C43   A    
O19   C52   A    
C22   H2    S    
C39   C40   A    
O7    V2    S    
C35   C36   A    
C6    C21   A    
C5    C9    A    
C28   C50   S    
C49   O16   A    
C2    C45   S    
H13   C25   S    
C10   C11   A    
C9    C10   A    
S1    O23   S    
C45   H27   S    
