data_mof_unit_20049.cif
_audit_creation_date              2013-03-05T15:45:39-0500
_audit_creation_method            fapswitch 2.2
_symmetry_space_group_name_H-M    P1
_symmetry_Int_Tables_number       1
_space_group_crystal_system       triclinic
_cell_length_a                    14.963257
_cell_length_b                    11.097691
_cell_length_c                    9.961699
_cell_angle_alpha                 110.396465
_cell_angle_beta                  98.583695
_cell_angle_gamma                 92.038101
_cell_volume                      1526.27425759

loop_
_atom_site_label
_atom_site_type_symbol
_atom_site_description
_atom_site_fract_x
_atom_site_fract_y
_atom_site_fract_z
_atom_type_partial_charge
O1    O     O_R   0.508410 0.332340 0.577400 -0.573506
O2    O     O_R   0.491590 0.667660 0.422600 -0.542929
O3    O     O_R   0.481780 0.295500 0.332650 -0.578109
O4    O     O_R   0.518220 0.704500 0.667350 -0.570776
C1    C     C_R   0.489621 0.255879 0.442432 0.872996
C2    C     C_R   0.502006 0.744509 0.557456 0.790961
O5    O     O_R   0.383570 0.518390 0.622380 -0.526292
O6    O     O_R   0.616430 0.481610 0.377620 -0.576717
O7    O     O_R   0.356940 0.481550 0.377630 -0.586374
O8    O     O_R   0.643060 0.518450 0.622370 -0.579845
C3    C     C_R   0.329436 0.500259 0.500531 0.829663
C4    C     C_R   0.670705 0.500855 0.499587 0.838125
Cu1   Cu    Cu3+1 0.515770 0.521810 0.644910 1.038388
Cu2   Cu    Cu3+1 0.484230 0.478190 0.355090 1.037451
C5    C     C_R   0.818331 0.615726 0.523297 -0.206740
C6    C     C_R   0.182012 0.386785 0.477390 -0.153712
C7    C     C_R   0.767008 0.500644 0.498094 -0.037614
C8    C     C_R   0.233309 0.501426 0.501429 -0.020698
C9    C     C_R   0.806982 0.384998 0.471414 -0.220166
C10   C     C_R   0.193278 0.616716 0.523463 -0.193863
C11   C     C_R   0.900995 0.382681 0.475000 0.016721
C12   C     C_R   0.099209 0.619290 0.520601 0.024203
C13   C     C_R   0.953206 0.500211 0.498627 0.072823
C14   C     C_R   0.047035 0.502029 0.498403 0.068256
C15   C     C_R   0.911349 0.616227 0.522255 0.069690
C16   C     C_R   0.088904 0.386134 0.476027 0.051349
C17   C     C_R   0.944185 0.267034 0.453726 -0.034833
C18   C     C_R   0.055881 0.734778 0.541219 -0.044546
C19   C     C_R   0.037827 0.270857 0.453577 -0.121510
C20   C     C_R   0.962382 0.731315 0.543523 -0.144499
H1    H     H_    0.785427 0.704360 0.542461 0.151219
H2    H     H_    0.214967 0.298387 0.460212 0.197287
H3    H     H_    0.763182 0.298136 0.446209 0.168767
H4    H     H_    0.237206 0.702851 0.544202 0.141952
H5    H     H_    0.071845 0.183520 0.438348 0.217541
H6    H     H_    0.928398 0.818715 0.559247 0.199887
C21   C     C_2   0.457587 0.124378 0.419331 0.165725
C22   C     C_2   0.501929 0.882621 0.583431 0.155020
C23   C     C_2   0.511093 0.049356 0.473222 -0.164181
C24   C     C_2   0.472362 0.923979 0.471816 -0.155787
N1    N     N_2   0.460520 0.445420 0.137370 -0.297356
N2    N     N_2   0.539480 0.554580 0.862630 -0.304898
C25   C     C_2   0.515492 0.498054 0.076687 0.048871
C26   C     C_2   0.498722 0.479508 0.916929 0.030356
C27   C     C_2   0.894856 0.141931 0.436060 0.421886
H7    H     H_    0.829794 0.137977 0.470008 0.093733
O9    O     O_2   0.927658 0.040042 0.384756 -0.505360
C28   C     C_2   0.105028 0.859467 0.556971 0.459963
H8    H     H_    0.170020 0.862995 0.522614 0.112912
O10   O     O_2   0.072166 0.961501 0.607116 -0.495028
C29   C     C_2   0.408384 0.841762 0.337792 0.572595
H9    H     H_    0.413998 0.849870 0.233911 0.138322
O11   O     O_2   0.345881 0.771291 0.344417 -0.526424
C30   C     C_2   0.611954 0.078995 0.520051 0.388164
H10   H     H_    0.652550 0.005283 0.538421 0.122794
O12   O     O_2   0.651125 0.183097 0.538038 -0.594349
N3    N     N_R   0.543000 0.971959 0.724326 0.112908
O13   O     O_R   0.492739 0.050179 0.803441 -0.349886
O14   O     O_R   0.621517 0.953220 0.786143 -0.371460
N4    N     N_R   0.361007 0.092721 0.374308 0.083834
O15   O     O_R   0.312310 0.071330 0.463047 -0.325350
O16   O     O_R   0.320257 0.113611 0.260730 -0.357292
C31   C     C_2   0.450798 0.354734 0.819233 0.474697
H11   H     H_    0.483144 0.267710 0.810374 0.107191
O17   O     O_2   0.374457 0.347874 0.752101 -0.476114
C32   C     C_2   0.606922 0.557514 0.155570 0.464691
H12   H     H_    0.666222 0.512941 0.117382 0.026350
O18   O     O_2   0.617003 0.660981 0.256433 -0.529262
C33   C     C_2   0.567583 0.686693 0.949084 0.633298
H13   H     H_    0.625349 0.734485 0.927616 0.077288
O19   O     O_2   0.523811 0.749680 0.039145 -0.546450
C34   C     C_2   0.366254 0.417442 0.076760 0.657703
H14   H     H_    0.328756 0.335523 0.084840 0.073724
O20   O     O_2   0.325508 0.489708 0.026083 -0.497386

loop_
_geom_bond_atom_site_label_1
_geom_bond_atom_site_label_2
_geom_bond_distance
_ccdc_geom_bond_type
C4    C7    1.443377 S    
C32   O18   1.220261 D    
O7    Cu2   1.951016 S    
C31   O17   1.219920 D    
C3    C8    1.440221 S    
C5    H1    1.085352 S    
C1    C21   1.447646 S    
C17   C19   1.400562 A    
C24   C29   1.496240 S    
N1    C25   1.320452 D    
C19   H5    1.084984 S    
O6    C4    1.301396 A    
C25   C26   1.512244 S    
C10   H4    1.079628 S    
C17   C27   1.490418 S    
C18   C20   1.402037 A    
C32   H12   1.085160 S    
C11   C17   1.421270 A    
C33   O19   1.222032 D    
C21   C23   1.361258 D    
C12   C18   1.421457 A    
C27   H7    1.081507 S    
C22   C24   1.366008 D    
C28   O10   1.221550 D    
O7    C3    1.300275 A    
C25   C32   1.475817 S    
N3    O13   1.298757 A    
O2    C2    1.298383 A    
O3    Cu2   1.959129 S    
N2    C26   1.317226 D    
N4    O15   1.301915 A    
N1    C34   1.426350 S    
O1    C1    1.296825 A    
C15   C20   1.397495 A    
O8    C4    1.302151 A    
C12   C14   1.423880 A    
N4    O16   1.301003 A    
C28   H8    1.081858 S    
C9    C11   1.403248 A    
C14   C16   1.412651 A    
O5    C3    1.301786 A    
C29   O11   1.221905 D    
C8    C10   1.393550 A    
C13   C15   1.412616 A    
C11   C13   1.423240 A    
C6    C16   1.390977 A    
C33   H13   1.084337 S    
O2    Cu2   1.965051 S    
Cu2   N1    2.042898 S    
C30   O12   1.219232 D    
N3    O14   1.301330 A    
C23   C30   1.500372 S    
C5    C15   1.393264 A    
C23   C24   1.482796 S    
O4    C2    1.312112 A    
C31   H11   1.077649 S    
C21   N4    1.440010 S    
O5    Cu1   1.954752 S    
O1    Cu1   1.965051 S    
C34   O20   1.222647 D    
C16   C19   1.396698 A    
C6    C8    1.388685 A    
C26   C31   1.469867 S    
C9    H3    1.076587 S    
C27   O9    1.221561 D    
O4    Cu1   1.959127 S    
C5    C7    1.390346 A    
C6    H2    1.085091 S    
Cu1   N2    2.042898 S    
O6    Cu2   1.954752 S    
C13   C14   1.403768 A    
Cu1   Cu2   2.719424 S    
C7    C9    1.392777 A    
C2    C22   1.462855 S    
C30   H10   1.085430 S    
C22   N3    1.435208 S    
N2    C33   1.426900 S    
C18   C28   1.490648 S    
C29   H9    1.084598 S    
C10   C12   1.405121 A    
C34   H14   1.084435 S    
O3    C1    1.305236 A    
O8    Cu1   1.951016 S    
C20   H6    1.084838 S    
