data_mof_unit_44803.cif
_audit_creation_date              2012-12-10T19:07:36-0500
_audit_creation_method            fapswitch 2.2
_symmetry_space_group_name_H-M    P1
_symmetry_Int_Tables_number       1
_space_group_crystal_system       triclinic
_cell_length_a                    10.77634
_cell_length_b                    10.824113
_cell_length_c                    9.547002
_cell_angle_alpha                 90.19483
_cell_angle_beta                  89.951838
_cell_angle_gamma                 90.4235
_cell_volume                      1113.56634595

loop_
_atom_site_label
_atom_site_type_symbol
_atom_type_description
_atom_site_fract_x
_atom_site_fract_y
_atom_site_fract_z
_atom_type_partial_charge
C1    C     C_R   0.497462 0.262361 0.499738 0.778674
C2    C     C_R   0.935950 0.558128 0.598069 0.096387
C3    C     C_3   0.927873 0.693775 0.625645 -0.482698
C4    C     C_3   0.068760 0.695967 0.626756 -0.467297
C5    C     C_R   0.484646 0.064252 0.625108 0.122363
C6    C     C_R   0.485047 0.129269 0.499232 -0.095431
C7    C     C_R   0.468708 0.063845 0.373045 -0.226289
C8    C     C_R   0.469216 0.935012 0.373288 -0.224113
C9    C     C_R   0.486182 0.870865 0.499697 -0.100899
C10   C     C_R   0.485534 0.937061 0.625344 0.131334
C11   C     C_3   0.573891 0.932928 0.745611 -0.484787
C12   C     C_R   0.262539 0.498918 0.500180 0.807645
C13   C     C_3   0.572027 0.073016 0.746041 -0.461151
C14   C     C_R   0.549694 0.597372 0.074050 0.256200
C15   C     C_R   0.439395 0.410655 0.074140 -0.077514
C16   C     C_R   0.439143 0.410806 0.925274 -0.081670
C17   C     C_R   0.551250 0.596421 0.926740 0.264520
C18   C     C_3   0.683348 0.638557 0.923266 -0.520469
C19   C     C_3   0.679886 0.643805 0.082018 -0.501739
C20   C     C_R   0.498115 0.737729 0.500053 0.797472
C21   C     C_R   0.737412 0.495543 0.500030 0.796292
C22   C     C_R   0.063349 0.560194 0.599019 0.128129
C23   C     C_R   0.129492 0.490807 0.502260 -0.127082
C24   C     C_R   0.066834 0.403721 0.418766 -0.229465
C25   C     C_R   0.936367 0.397900 0.419453 0.133362
C26   C     C_R   0.870725 0.484987 0.502375 -0.138606
Cu1   Cu    Cu3+1 0.499990 0.499980 0.640670 0.938688
Cu2   Cu    Cu3+1 0.500010 0.500020 0.359330 0.934532
H1    H     H_    0.119423 0.340466 0.353947 0.150702
H2    H     H_    0.665589 0.894654 0.715268 0.189997
H3    H     H_    0.527076 0.112638 0.840763 0.192215
H4    H     H_    0.662722 0.115707 0.717373 0.197283
H5    H     H_    0.392211 0.337075 0.129596 0.131638
H6    H     H_    0.391633 0.337413 0.869382 0.138282
H7    H     H_    0.746960 0.566550 0.882214 0.221181
H8    H     H_    0.694800 0.730814 0.875070 0.187127
H9    H     H_    0.743912 0.577983 0.132369 0.221086
H10   H     H_    0.684842 0.739534 0.124327 0.191493
H11   H     H_    0.886888 0.745339 0.536568 0.191586
H12   H     H_    0.886884 0.714551 0.729728 0.196736
H13   H     H_    0.110063 0.748874 0.538339 0.191675
H14   H     H_    0.108561 0.717511 0.731488 0.199790
H15   H     H_    0.461560 0.111542 0.273856 0.158730
H16   H     H_    0.462253 0.886427 0.274195 0.162745
H17   H     H_    0.530831 0.891766 0.840638 0.195785
N1    N     N_R   0.500790 0.500930 0.147930 -0.181853
N2    N     N_R   0.500790 0.500890 0.852020 -0.184065
O1    O     O_R   0.500000 0.319640 0.618810 -0.583472
O2    O     O_R   0.500010 0.319680 0.381230 -0.594631
O3    O     O_R   0.319650 0.499970 0.618810 -0.578303
O4    O     O_R   0.319660 0.500010 0.381230 -0.579879
O5    O     O_R   0.499990 0.680320 0.618770 -0.576731
O6    O     O_R   0.500000 0.680360 0.381190 -0.585204
O7    O     O_R   0.680340 0.499990 0.618770 -0.577430
O8    O     O_R   0.680350 0.500030 0.381190 -0.575363
C27   C     C_3   0.872639 0.294903 0.338282 -0.392171
C28   C     C_3   0.888777 0.309872 0.180371 -0.798555
H18   H     H_    0.853502 0.400630 0.146141 0.252663
H19   H     H_    0.988027 0.302327 0.150497 0.237298
H20   H     H_    0.835846 0.236098 0.125022 0.235130
H21   H     H_    0.913089 0.205171 0.370337 0.189396
H22   H     H_    0.772212 0.288523 0.362730 0.208733

loop_
_geom_bond_atom_site_label_1
_geom_bond_atom_site_label_2
_ccdc_geom_bond_type
Cu1   O1    S    
C2    C22   A    
C12   O3    A    
C23   C24   A    
C25   C27   S    
C1    O1    A    
C6    C7    A    
C19   H10   S    
C7    H15   S    
C4    C22   S    
C18   H7    S    
C9    C20   S    
C5    C13   S    
C14   C17   A    
Cu1   O3    S    
C21   C26   S    
C17   C18   S    
Cu1   O7    S    
C3    H11   S    
C5    C10   A    
C2    C26   A    
C4    H13   S    
C27   C28   S    
Cu2   O6    S    
C11   C13   S    
C12   C23   S    
Cu2   N1    S    
C28   H18   S    
C5    C6    A    
C4    H14   S    
C11   H2    S    
C16   N2    A    
Cu2   O8    S    
C15   H5    S    
C3    H12   S    
C2    C3    S    
C22   C23   A    
C21   O7    A    
Cu2   O4    S    
C27   H22   S    
C28   H19   S    
C11   H17   S    
C10   C11   S    
C1    C6    S    
C8    H16   S    
C7    C8    A    
C12   O4    A    
C24   C25   A    
Cu1   O5    S    
C20   O5    A    
C18   C19   S    
C9    C10   A    
Cu1   N2    S    
Cu1   Cu2   S    
C21   O8    A    
C27   H21   S    
C20   O6    A    
C28   H20   S    
C19   H9    S    
C15   N1    A    
C16   H6    S    
C25   C26   A    
C24   H1    S    
C13   H4    S    
C18   H8    S    
C14   C19   S    
C13   H3    S    
C3    C4    S    
C15   C16   A    
C17   N2    A    
C8    C9    A    
C14   N1    A    
Cu2   O2    S    
C1    O2    A    
