data_mof_unit_64849.cif
_audit_creation_date              2012-12-10T20:08:37-0500
_audit_creation_method            fapswitch 2.2
_symmetry_space_group_name_H-M    P1
_symmetry_Int_Tables_number       1
_space_group_crystal_system       triclinic
_cell_length_a                    19.390274
_cell_length_b                    18.617769
_cell_length_c                    14.798746
_cell_angle_alpha                 89.210624
_cell_angle_beta                  89.567716
_cell_angle_gamma                 90.409932
_cell_volume                      5341.60139428

loop_
_atom_site_label
_atom_site_type_symbol
_atom_type_description
_atom_site_fract_x
_atom_site_fract_y
_atom_site_fract_z
_atom_type_partial_charge
C1    C     C_R   0.365953 0.499723 0.499084 1.029080
C2    C     C_R   0.634142 0.500330 0.501213 1.043996
C3    C     C_R   0.379368 0.565844 0.046318 0.404457
C4    C     C_R   0.628061 0.555226 0.948777 0.428730
C5    C     C_R   0.748783 0.455348 0.452633 0.256660
C6    C     C_R   0.252948 0.543576 0.443455 0.249755
C7    C     C_R   0.256305 0.454808 0.566016 0.277636
C8    C     C_R   0.742600 0.546742 0.568610 0.269697
C9    C     C_R   0.820106 0.463842 0.449190 0.387003
C10   C     C_R   0.181081 0.539914 0.445507 0.379399
C11   C     C_R   0.185960 0.463640 0.580655 0.376601
C12   C     C_R   0.813742 0.542039 0.579731 0.358647
C13   C     C_R   0.853070 0.504174 0.516308 -0.085498
C14   C     C_R   0.147490 0.503069 0.517280 -0.082824
C15   C     C_R   0.709344 0.501598 0.506335 -0.387100
C16   C     C_R   0.290870 0.499041 0.502216 -0.368473
C17   C     C_R   0.965519 0.569612 0.517588 0.379889
C18   C     C_R   0.034970 0.437935 0.521339 0.374358
C19   C     C_R   0.036801 0.568977 0.528504 0.372190
C20   C     C_R   0.963568 0.438682 0.531350 0.365719
C21   C     C_R   0.072062 0.503276 0.523617 -0.130469
C22   C     C_R   0.928423 0.504285 0.522282 -0.133269
C23   C     C_R   0.534058 0.726594 0.565345 0.359716
C24   C     C_R   0.531039 0.273092 0.431036 0.399902
C25   C     C_R   0.465193 0.726561 0.434571 0.360666
C26   C     C_R   0.468664 0.271211 0.568841 0.390139
C27   C     C_R   0.542240 0.802264 0.557417 0.290179
C28   C     C_R   0.542432 0.197556 0.441980 0.209172
C29   C     C_R   0.455652 0.801607 0.441437 0.290658
C30   C     C_R   0.454705 0.196328 0.555972 0.198671
C31   C     C_R   0.498758 0.841885 0.498741 -0.152030
C32   C     C_R   0.498141 0.158019 0.498761 -0.021709
C33   C     C_R   0.501119 0.501140 0.325911 0.992864
C34   C     C_R   0.498609 0.500037 0.674089 1.016852
C35   C     C_R   0.495742 0.964170 0.415814 0.328277
C36   C     C_R   0.507251 0.037518 0.578960 0.330207
C37   C     C_R   0.499823 0.962106 0.579754 0.330883
C38   C     C_R   0.487738 0.039572 0.417708 0.323957
C39   C     C_R   0.497638 0.077272 0.498516 -0.089582
C40   C     C_R   0.498213 0.923504 0.497834 -0.177853
C41   C     C_R   0.564075 0.513659 0.814015 0.410021
C42   C     C_R   0.438294 0.518924 0.183673 0.400745
C43   C     C_R   0.499576 0.503668 0.771795 -0.345555
C44   C     C_R   0.501829 0.507368 0.228102 -0.339174
C45   C     C_R   0.437090 0.517166 0.817928 0.384146
C46   C     C_R   0.565856 0.520776 0.183847 0.388489
C47   C     C_R   0.440375 0.544389 0.906010 -0.147393
C48   C     C_R   0.565448 0.542148 0.091847 -0.145618
C49   C     C_R   0.503166 0.541757 0.951822 -0.152626
C50   C     C_R   0.502611 0.542254 0.045789 -0.143590
C51   C     C_R   0.566088 0.535513 0.904660 -0.102425
C52   C     C_R   0.439035 0.541337 0.092636 -0.101849
C53   C     C_R   0.383219 0.574280 0.951371 0.331337
C54   C     C_R   0.624326 0.567774 0.043475 0.312194
N1    N     N_R   0.500000 0.689440 0.500000 -0.215316
N2    N     N_R   0.500000 0.310560 0.500000 -0.184093
O1    O     O_R   0.398180 0.560840 0.499980 -0.570402
O2    O     O_R   0.601820 0.439160 0.500020 -0.577395
O3    O     O_R   0.601820 0.560840 0.500020 -0.567817
O4    O     O_R   0.398180 0.439160 0.499980 -0.585187
O5    O     O_R   0.499980 0.560820 0.367840 -0.584028
O6    O     O_R   0.500020 0.439180 0.632160 -0.587023
O7    O     O_R   0.500020 0.560820 0.632160 -0.590067
O8    O     O_R   0.499980 0.439180 0.367840 -0.597739
Zn1   Zn    Zn3+2 0.500000 0.581210 0.500000 1.060365
Zn2   Zn    Zn3+2 0.500000 0.418790 0.500000 1.054905
O9    O     O_3   0.624805 0.502400 0.766261 -0.546620
C55   C     C_3   0.639093 0.428138 0.768455 0.065686
H1    H     H_    0.599201 0.399333 0.730211 0.139825
H2    H     H_    0.640895 0.407435 0.839523 0.130024
C56   C     C_3   0.707502 0.412801 0.720728 -0.300104
H3    H     H_    0.699769 0.416735 0.646981 0.226229
H4    H     H_    0.747378 0.452785 0.739634 0.266745
C57   C     C_3   0.732847 0.337014 0.742044 -0.920433
H5    H     H_    0.694431 0.296541 0.719697 0.256497
H6    H     H_    0.741639 0.329900 0.815665 0.257283
H7    H     H_    0.782210 0.327719 0.705665 0.309182
O10   O     O_3   0.376573 0.518767 0.231790 -0.558651
C58   C     C_3   0.352875 0.447863 0.250220 0.162608
H8    H     H_    0.312374 0.451247 0.303323 0.187204
H9    H     H_    0.393508 0.413723 0.279518 0.100935
C59   C     C_3   0.320621 0.412632 0.167058 -0.374337
H10   H     H_    0.281632 0.448913 0.137105 0.280995
H11   H     H_    0.361201 0.402378 0.115541 0.205881
C60   C     C_3   0.284204 0.341994 0.191925 -0.931508
H12   H     H_    0.320214 0.303639 0.224154 0.259084
H13   H     H_    0.263416 0.317207 0.129882 0.271406
H14   H     H_    0.240647 0.351946 0.239203 0.288157
O11   O     O_3   0.496397 0.930798 0.332906 -0.550258
C61   C     C_3   0.565135 0.922568 0.301943 0.150882
H15   H     H_    0.569094 0.869107 0.270479 0.138471
H16   H     H_    0.604327 0.923227 0.356508 0.048672
C62   C     C_3   0.584197 0.979844 0.230560 -0.347506
H17   H     H_    0.583359 0.033945 0.261075 0.267450
H18   H     H_    0.637706 0.970091 0.206478 0.168817
C63   C     C_3   0.535774 0.978097 0.149671 -0.767153
H19   H     H_    0.552255 0.019468 0.099084 0.226062
H20   H     H_    0.537298 0.924597 0.117428 0.233237
H21   H     H_    0.482049 0.989738 0.171086 0.290183
O12   O     O_3   0.522311 0.072425 0.658316 -0.595793
C64   C     C_3   0.594433 0.069566 0.670817 0.090288
H22   H     H_    0.622030 0.095779 0.612664 0.124283
H23   H     H_    0.611785 0.012812 0.678027 0.175224
C65   C     C_3   0.613500 0.109565 0.756517 -0.359588
H24   H     H_    0.599778 0.166954 0.748326 0.215508
H25   H     H_    0.584190 0.086419 0.814974 0.235535
C66   C     C_3   0.690590 0.104826 0.775339 -0.934786
H26   H     H_    0.705913 0.047930 0.785564 0.269381
H27   H     H_    0.702761 0.135026 0.837479 0.271412
H28   H     H_    0.720714 0.128645 0.718068 0.270570
O13   O     O_3   0.494672 0.926883 0.662287 -0.550295
C67   C     C_3   0.424247 0.918450 0.686732 0.162886
H29   H     H_    0.412346 0.860144 0.691218 0.125424
H30   H     H_    0.387039 0.942165 0.637423 0.051023
C68   C     C_3   0.410636 0.952948 0.778341 -0.331840
H31   H     H_    0.424981 0.010819 0.774630 0.254883
H32   H     H_    0.354623 0.948995 0.794329 0.165172
C69   C     C_3   0.450797 0.916365 0.854159 -0.825499
H33   H     H_    0.439469 0.943137 0.919137 0.236769
H34   H     H_    0.435192 0.859003 0.860523 0.231452
H35   H     H_    0.507144 0.920248 0.840706 0.293570
O14   O     O_3   0.471909 0.076964 0.339325 -0.596683
C70   C     C_3   0.399848 0.072884 0.326622 0.095143
H36   H     H_    0.371152 0.088636 0.388883 0.116549
H37   H     H_    0.384582 0.017214 0.308173 0.177805
C71   C     C_3   0.379634 0.124254 0.250108 -0.366362
H38   H     H_    0.392241 0.180187 0.269517 0.213424
H39   H     H_    0.409269 0.111143 0.187982 0.229540
C72   C     C_3   0.302670 0.119443 0.230289 -0.936333
H40   H     H_    0.288585 0.064266 0.209143 0.266921
H41   H     H_    0.289799 0.157672 0.174776 0.273295
H42   H     H_    0.272106 0.133596 0.291217 0.269791
O15   O     O_3   0.374651 0.505816 0.773804 -0.623583
C73   C     C_3   0.329015 0.458610 0.822910 0.220866
H43   H     H_    0.281268 0.453630 0.782832 0.231843
H44   H     H_    0.310596 0.479217 0.888016 0.164018
C74   C     C_3   0.358903 0.384009 0.839784 -0.441818
H45   H     H_    0.378927 0.364272 0.775084 0.310543
H46   H     H_    0.401594 0.387380 0.889213 0.203735
C75   C     C_3   0.304375 0.331717 0.876945 -0.886805
H47   H     H_    0.283406 0.351263 0.942140 0.260779
H48   H     H_    0.327876 0.278249 0.888741 0.251791
H49   H     H_    0.261644 0.325712 0.827977 0.313832
O16   O     O_3   0.626131 0.517925 0.234884 -0.636535
C76   C     C_3   0.677260 0.471153 0.199435 0.174404
H50   H     H_    0.719693 0.469536 0.249043 0.221614
H51   H     H_    0.702643 0.491815 0.137976 0.173031
C77   C     C_3   0.651354 0.394546 0.183835 -0.437025
H52   H     H_    0.625601 0.376142 0.246450 0.315915
H53   H     H_    0.614001 0.393986 0.127327 0.198899
C78   C     C_3   0.709994 0.343243 0.161451 -0.868105
H54   H     H_    0.689498 0.287615 0.157068 0.248593
H55   H     H_    0.750315 0.344411 0.214233 0.325936
H56   H     H_    0.733642 0.357805 0.095385 0.255772
O17   O     O_3   0.327452 0.601682 0.904392 -0.651405
C79   C     C_3   0.347991 0.663044 0.853386 0.079489
H57   H     H_    0.385897 0.649052 0.799913 0.163715
H58   H     H_    0.371233 0.704460 0.897782 0.108936
C80   C     C_3   0.284484 0.694438 0.807450 -0.263620
H59   H     H_    0.260640 0.653025 0.763903 0.255202
H60   H     H_    0.246133 0.709968 0.859703 0.212806
C81   C     C_3   0.303035 0.760221 0.749536 -1.004878
H61   H     H_    0.325352 0.802875 0.792337 0.258709
H62   H     H_    0.255828 0.781400 0.717000 0.283521
H63   H     H_    0.340655 0.745765 0.695876 0.254380
O18   O     O_3   0.676264 0.605550 0.086389 -0.663691
C82   C     C_3   0.649981 0.669008 0.124401 0.107807
H64   H     H_    0.615282 0.656205 0.182450 0.166116
H65   H     H_    0.621445 0.701129 0.073205 0.130675
C83   C     C_3   0.710001 0.714206 0.158930 -0.280032
H66   H     H_    0.740538 0.681763 0.207720 0.247299
H67   H     H_    0.744134 0.730064 0.101243 0.223503
C84   C     C_3   0.684366 0.781589 0.205745 -1.013454
H68   H     H_    0.653790 0.815009 0.158136 0.262838
H69   H     H_    0.729056 0.813768 0.229157 0.278666
H70   H     H_    0.651904 0.766624 0.265370 0.250955
O19   O     O_3   0.316597 0.571377 0.091783 -0.590475
C85   C     C_3   0.287537 0.640854 0.084602 0.202474
H71   H     H_    0.318339 0.679810 0.043047 0.077546
H72   H     H_    0.284461 0.664047 0.153218 0.176560
C86   C     C_3   0.214186 0.635817 0.047221 -0.410762
H73   H     H_    0.195669 0.690779 0.030721 0.176163
H74   H     H_    0.213785 0.604217 0.984200 0.268487
C87   C     C_3   0.164401 0.600852 0.115227 -0.649919
H75   H     H_    0.182321 0.546366 0.135003 0.287877
H76   H     H_    0.112492 0.596012 0.084646 0.237905
H77   H     H_    0.160257 0.634635 0.176187 0.289658
O20   O     O_3   0.685309 0.572557 0.894442 -0.590453
C88   C     C_3   0.750589 0.555567 0.931306 0.206242
H78   H     H_    0.764664 0.590489 0.988098 0.181822
H79   H     H_    0.789583 0.569700 0.878513 0.203476
C89   C     C_3   0.759733 0.475340 0.953509 -0.468493
H80   H     H_    0.715671 0.453892 0.993676 0.202294
H81   H     H_    0.761999 0.444782 0.890231 0.245619
C90   C     C_3   0.826632 0.462530 0.004798 -0.859944
H82   H     H_    0.871303 0.484415 0.965567 0.281641
H83   H     H_    0.834372 0.404009 0.015312 0.271181
H84   H     H_    0.824483 0.488719 0.071738 0.273612
Cl1   Cl    Cl    0.711391 0.382086 0.396494 -0.610092
Cl2   Cl    Cl    0.294005 0.601843 0.364344 -0.528335
Cl3   Cl    Cl    0.298792 0.385295 0.624548 -0.603411
Cl4   Cl    Cl    0.696260 0.604547 0.639579 -0.491856
Cl5   Cl    Cl    0.867162 0.424154 0.359979 -0.511942
Cl6   Cl    Cl    0.133771 0.579239 0.356001 -0.534511
Cl7   Cl    Cl    0.146988 0.426104 0.679377 -0.529926
Cl8   Cl    Cl    0.852531 0.580363 0.676095 -0.520074
Cl9   Cl    Cl    0.924067 0.652092 0.493572 -0.483690
Cl10  Cl    Cl    0.076446 0.355203 0.500612 -0.463693
Cl11  Cl    Cl    0.081372 0.650603 0.547986 -0.500700
Cl12  Cl    Cl    0.918863 0.357277 0.555832 -0.473387
O21   O     O_3   0.566033 0.689287 0.634387 -0.539721
C91   C     C_3   0.537589 0.708269 0.719496 0.161400
H85   H     H_    0.504537 0.663325 0.744604 0.129790
H86   H     H_    0.504558 0.757188 0.718399 0.119342
C92   C     C_3   0.595977 0.719668 0.786581 -0.227646
H87   H     H_    0.627126 0.670112 0.791602 0.299089
H88   H     H_    0.630062 0.764112 0.762072 0.247423
C93   C     C_3   0.568502 0.737849 0.880236 -1.022936
H89   H     H_    0.538245 0.788068 0.877416 0.274273
H90   H     H_    0.612594 0.746097 0.926293 0.278048
H91   H     H_    0.535386 0.693602 0.907463 0.263418
O22   O     O_3   0.550643 0.309294 0.352320 -0.589674
C94   C     C_3   0.535687 0.269016 0.273218 0.097936
H92   H     H_    0.508102 0.217175 0.284921 0.183904
H93   H     H_    0.585091 0.256322 0.238919 0.178560
C95   C     C_3   0.489449 0.311779 0.209992 -0.404504
H94   H     H_    0.436729 0.310565 0.238643 0.212270
H95   H     H_    0.507279 0.368034 0.204245 0.239265
C96   C     C_3   0.487672 0.279632 0.116034 -0.978986
H96   H     H_    0.540539 0.278708 0.086874 0.270315
H97   H     H_    0.454403 0.312978 0.071737 0.271898
H98   H     H_    0.466524 0.224077 0.119028 0.272946
O23   O     O_3   0.437870 0.690523 0.362160 -0.541413
C97   C     C_3   0.475380 0.709999 0.282462 0.190987
H99   H     H_    0.511678 0.666368 0.265919 0.136100
H100  H     H_    0.506876 0.760148 0.287506 0.100391
C98   C     C_3   0.425488 0.719588 0.204408 -0.294296
H101  H     H_    0.397006 0.668527 0.196106 0.256998
H102  H     H_    0.388091 0.762601 0.220500 0.247392
C99   C     C_3   0.463262 0.738809 0.116339 -1.047337
H103  H     H_    0.494888 0.788255 0.124392 0.279865
H104  H     H_    0.425346 0.748475 0.061809 0.261296
H105  H     H_    0.497103 0.694010 0.095940 0.263155
O24   O     O_3   0.451658 0.304828 0.649274 -0.583094
C100  C     C_3   0.463385 0.259907 0.726806 0.121295
H106  H     H_    0.487751 0.207345 0.713228 0.187329
H107  H     H_    0.412998 0.248095 0.760114 0.183744
C101  C     C_3   0.512290 0.296350 0.792185 -0.431517
H108  H     H_    0.565422 0.291512 0.764941 0.205220
H109  H     H_    0.499347 0.353822 0.799092 0.237447
C102  C     C_3   0.510398 0.260313 0.885158 -0.980722
H110  H     H_    0.458428 0.265383 0.916174 0.278539
H111  H     H_    0.548912 0.286913 0.928760 0.269218
H112  H     H_    0.523428 0.202524 0.880331 0.271043
O25   O     O_3   0.590004 0.836081 0.611792 -0.577463
C103  C     C_3   0.649406 0.854984 0.560406 0.051444
H113  H     H_    0.675649 0.899834 0.595398 0.161278
H114  H     H_    0.637002 0.875513 0.491594 0.112540
C104  C     C_3   0.699360 0.791698 0.554538 -0.314201
H115  H     H_    0.712854 0.773093 0.623803 0.270344
H116  H     H_    0.674505 0.746481 0.518634 0.245847
C105  C     C_3   0.765193 0.813004 0.503543 -0.858696
H117  H     H_    0.752872 0.830515 0.433451 0.245110
H118  H     H_    0.800167 0.766126 0.500424 0.320679
H119  H     H_    0.792121 0.857355 0.538635 0.264711
O26   O     O_3   0.589177 0.160941 0.388842 -0.610835
C106  C     C_3   0.656955 0.182113 0.410920 0.128978
H120  H     H_    0.664001 0.189326 0.485121 0.131624
H121  H     H_    0.669863 0.233440 0.375398 0.193297
C107  C     C_3   0.707345 0.124966 0.378568 -0.322648
H122  H     H_    0.698584 0.114609 0.305721 0.215194
H123  H     H_    0.761004 0.145253 0.386201 0.210763
C108  C     C_3   0.699166 0.054724 0.432407 -0.870782
H124  H     H_    0.713511 0.062918 0.504040 0.243208
H125  H     H_    0.733565 0.013355 0.403542 0.246749
H126  H     H_    0.645191 0.034715 0.429624 0.261734
O27   O     O_3   0.407651 0.834474 0.386240 -0.568398
C109  C     C_3   0.347423 0.849605 0.436845 0.058030
H127  H     H_    0.321659 0.895819 0.403306 0.159464
H128  H     H_    0.358361 0.866465 0.507353 0.102746
C110  C     C_3   0.297992 0.785012 0.437425 -0.315931
H129  H     H_    0.288524 0.768129 0.366811 0.269400
H130  H     H_    0.321533 0.739463 0.475071 0.248907
C111  C     C_3   0.229331 0.803059 0.482244 -0.847706
H131  H     H_    0.237586 0.819830 0.553086 0.246883
H132  H     H_    0.195275 0.754879 0.482574 0.328363
H133  H     H_    0.203433 0.847014 0.444357 0.259637
O28   O     O_3   0.406138 0.158953 0.607585 -0.620705
C112  C     C_3   0.339744 0.182900 0.584130 0.096727
H134  H     H_    0.330894 0.177133 0.510175 0.127322
H135  H     H_    0.332992 0.239933 0.603080 0.225113
C113  C     C_3   0.286150 0.137583 0.635601 -0.394357
H136  H     H_    0.291464 0.080334 0.616443 0.218897
H137  H     H_    0.295297 0.141850 0.709423 0.232985
C114  C     C_3   0.213092 0.162564 0.614860 -0.811332
H138  H     H_    0.202489 0.157852 0.541504 0.265031
H139  H     H_    0.206359 0.219327 0.635243 0.308022
H140  H     H_    0.175351 0.128572 0.653046 0.262175

loop_
_geom_bond_atom_site_label_1
_geom_bond_atom_site_label_2
_ccdc_geom_bond_type
C6    Cl2   S    
O7    Zn1   S    
C105  H118  S    
C62   H17   S    
C90   H83   S    
C18   C21   A    
C66   H27   S    
O13   C67   S    
C77   C78   S    
C110  H130  S    
C104  C105  S    
C108  H126  S    
C105  H119  S    
C67   H30   S    
C85   H71   S    
C61   H15   S    
C94   C95   S    
C102  H110  S    
C5    Cl1   S    
C86   H73   S    
O24   C100  S    
C110  C111  S    
C48   C54   A    
C12   C13   A    
C74   H46   S    
C64   H22   S    
C36   C39   A    
C42   C44   A    
C71   H38   S    
C49   C50   A    
C14   C21   S    
C36   C37   A    
C19   C21   A    
C77   H53   S    
C81   H61   S    
C37   C40   A    
C92   H88   S    
C60   H12   S    
C38   C39   A    
C106  C107  S    
C26   O24   S    
C70   H37   S    
C62   H18   S    
C83   H66   S    
C29   O27   S    
C68   H31   S    
C63   H21   S    
O25   C103  S    
C34   O6    A    
C112  C113  S    
C28   O26   S    
C87   H75   S    
C18   Cl10  S    
C78   H56   S    
C88   H79   S    
C9    C13   A    
C69   H33   S    
C65   H24   S    
C9    Cl5   S    
N1    Zn1   S    
C31   C40   S    
C61   H16   S    
C79   H58   S    
O2    Zn2   S    
C94   H92   S    
C44   C46   A    
C55   H1    S    
C49   C51   A    
C109  C110  S    
C63   H20   S    
C50   C52   A    
C66   H26   S    
C75   H49   S    
C2    O2    A    
C23   C27   A    
C82   C83   S    
O23   C97   S    
C100  C101  S    
C105  H117  S    
C18   C20   A    
C53   O17   S    
C113  C114  S    
C101  C102  S    
C47   C53   A    
C72   H42   S    
C96   H98   S    
C48   C50   A    
C78   H54   S    
C25   O23   S    
C64   H23   S    
C19   Cl11  S    
O27   C109  S    
C103  H113  S    
C30   O28   S    
C41   C43   A    
C107  C108  S    
C88   H78   S    
C97   H100  S    
C54   O18   S    
C69   H35   S    
C65   H25   S    
C67   H29   S    
C76   H51   S    
C101  H109  S    
C76   H50   S    
C114  H140  S    
C81   H62   S    
C45   C47   A    
C25   C29   A    
C98   H102  S    
C74   C75   S    
C46   C48   A    
C5    C15   A    
C57   H5    S    
O6    Zn2   S    
C4    C51   A    
C27   C31   A    
O9    C55   S    
C89   C90   S    
C25   N1    A    
C17   Cl9   S    
C35   C38   A    
C12   Cl8   S    
C75   H47   S    
C41   O9    S    
C82   H65   S    
C10   C14   A    
C92   C93   S    
O1    Zn1   S    
C114  H138  S    
C111  H133  S    
C17   C22   A    
O10   C58   S    
C17   C19   A    
C70   C71   S    
C46   O16   S    
C23   O21   S    
C71   C72   S    
C68   H32   S    
C110  H129  S    
C84   H68   S    
C6    C16   A    
C57   H7    S    
C99   H105  S    
C58   H8    S    
C103  H114  S    
O20   C88   S    
C97   C98   S    
C79   H57   S    
C7    Cl3   S    
C88   C89   S    
C7    C11   A    
C92   H87   S    
O21   C91   S    
C5    C9    A    
C96   H96   S    
C1    O1    A    
C56   C57   S    
C81   H63   S    
C93   H90   S    
C80   H59   S    
C91   C92   S    
C28   C32   A    
C8    C12   A    
C68   C69   S    
C63   H19   S    
C99   H104  S    
C112  H134  S    
C80   C81   S    
C109  H127  S    
C36   O12   S    
C1    C16   S    
C91   H85   S    
C73   C74   S    
C2    C15   S    
C43   C45   A    
C27   O25   S    
C65   C66   S    
C38   O14   S    
C84   H69   S    
C57   H6    S    
C35   O11   S    
C33   O5    A    
C114  H139  S    
C91   H86   S    
O19   C85   S    
C8    C15   A    
C59   H11   S    
C111  H132  S    
C100  H107  S    
O18   C82   S    
C96   H97   S    
C66   H28   S    
C107  H123  S    
C1    O4    A    
C24   N2    A    
C97   H99   S    
C20   Cl12  S    
C95   C96   S    
C33   O8    A    
C82   H64   S    
C76   C77   S    
C106  H121  S    
C101  H108  S    
C93   H91   S    
C56   H4    S    
C72   H40   S    
C3    O19   S    
C60   H14   S    
O11   C61   S    
C111  H131  S    
C71   H39   S    
C86   C87   S    
C99   H103  S    
C4    C54   A    
C2    O3    A    
C33   C44   S    
C45   O15   S    
C79   C80   S    
C7    C16   A    
C34   C43   S    
C24   C28   A    
C20   C22   A    
O16   C76   S    
C104  H116  S    
C113  H136  S    
C6    C10   A    
C58   C59   S    
C85   H72   S    
C3    C52   A    
C94   H93   S    
C84   H70   S    
C23   N1    A    
C73   H43   S    
C75   H48   S    
C24   O22   S    
C62   C63   S    
C59   C60   S    
C74   H45   S    
C95   H95   S    
C42   O10   S    
C87   H76   S    
C87   H77   S    
C106  H120  S    
C89   H80   S    
C4    O20   S    
C8    Cl4   S    
C80   H60   S    
C61   C62   S    
C11   C14   A    
C29   C31   A    
C70   H36   S    
C47   C49   A    
O28   C112  S    
C30   C32   A    
C3    C53   A    
C93   H89   S    
O15   C73   S    
C83   H67   S    
C55   C56   S    
N2    Zn2   S    
C98   H101  S    
C83   C84   S    
C113  H137  S    
C34   O7    A    
C108  H125  S    
C89   H81   S    
C73   H44   S    
C13   C22   S    
C35   C40   A    
C109  H128  S    
C77   H52   S    
C78   H55   S    
C58   H9    S    
O22   C94   S    
C102  H112  S    
C69   H34   S    
C37   O13   S    
C85   C86   S    
C102  H111  S    
O26   C106  S    
C26   N2    A    
O4    Zn2   S    
C90   H82   S    
C90   H84   S    
O5    Zn1   S    
C60   H13   S    
C86   H74   S    
C56   H3    S    
C103  C104  S    
C55   H2    S    
C95   H94   S    
C98   C99   S    
C42   C52   A    
O17   C79   S    
C32   C39   S    
C107  H122  S    
C112  H135  S    
O12   C64   S    
C64   C65   S    
C11   Cl7   S    
C59   H10   S    
O14   C70   S    
C100  H106  S    
C10   Cl6   S    
C41   C51   A    
C67   C68   S    
O3    Zn1   S    
C104  H115  S    
O8    Zn2   S    
C72   H41   S    
C26   C30   A    
C108  H124  S    
