data_mof_unit_26001.cif
_audit_creation_date              2012-12-10T19:29:26-0500
_audit_creation_method            fapswitch 2.2
_symmetry_space_group_name_H-M    P1
_symmetry_Int_Tables_number       1
_space_group_crystal_system       triclinic
_cell_length_a                    22.29299
_cell_length_b                    22.291611
_cell_length_c                    14.993698
_cell_angle_alpha                 89.999924
_cell_angle_beta                  90.136721
_cell_angle_gamma                 90.012321
_cell_volume                      7451.0467729

loop_
_atom_site_label
_atom_site_type_symbol
_atom_type_description
_atom_site_fract_x
_atom_site_fract_y
_atom_site_fract_z
_atom_type_partial_charge
C1    C     C_R   0.418856 0.918844 0.499925 0.893591
C2    C     C_R   0.581153 0.081148 0.500076 0.893570
C3    C     C_R   0.581139 0.918850 0.500077 0.893946
C4    C     C_R   0.418859 0.081148 0.499923 0.894779
C5    C     C_R   0.918845 0.418853 0.499925 0.893571
C6    C     C_R   0.081144 0.581155 0.500075 0.893592
C7    C     C_R   0.081141 0.418852 0.500078 0.894778
C8    C     C_R   0.918861 0.581150 0.499922 0.893943
C9    C     C_1   0.337047 0.162927 0.500013 0.033855
C10   C     C_1   0.662940 0.837060 0.499996 0.033679
C11   C     C_1   0.662969 0.162975 0.499969 0.042107
C12   C     C_1   0.337025 0.837040 0.500043 0.041819
C13   C     C_1   0.837057 0.662939 0.499984 0.033620
C14   C     C_1   0.162956 0.337074 0.500007 0.033825
C15   C     C_1   0.162983 0.662951 0.499941 0.041800
C16   C     C_1   0.837008 0.337049 0.500057 0.042074
C17   C     C_1   0.499982 0.000005 0.190193 0.102186
C18   C     C_1   0.500014 0.999996 0.809807 0.102186
C19   C     C_1   0.999983 0.500002 0.190192 0.102307
C20   C     C_1   0.000019 0.499994 0.809807 0.102321
C21   C     C_3   0.472030 0.950771 0.970150 0.163139
C22   C     C_3   0.527962 0.049230 0.029850 0.162924
C23   C     C_3   0.528615 0.951167 0.029869 0.167205
C24   C     C_3   0.471376 0.048834 0.970131 0.167227
C25   C     C_3   0.968354 0.453050 0.970127 0.162620
C26   C     C_3   0.031653 0.546941 0.029869 0.162685
C27   C     C_3   0.024801 0.449112 0.029850 0.167915
C28   C     C_3   0.975204 0.550879 0.970147 0.167912
C29   C     C_3   0.703316 0.730817 0.547336 0.139804
C30   C     C_3   0.296701 0.269181 0.452704 0.139416
C31   C     C_3   0.299140 0.728388 0.461099 0.120804
C32   C     C_3   0.702312 0.270054 0.544667 0.128027
C33   C     C_3   0.203303 0.230823 0.547329 0.139452
C34   C     C_3   0.796680 0.769181 0.452631 0.139859
C35   C     C_3   0.797658 0.229978 0.455378 0.128020
C36   C     C_3   0.200871 0.771600 0.538873 0.120798
C37   C     C_3   0.227817 0.200240 0.463277 0.125975
C38   C     C_3   0.772182 0.799772 0.536690 0.125727
C39   C     C_3   0.771522 0.200980 0.539574 0.122054
C40   C     C_3   0.230078 0.797553 0.454725 0.128684
C41   C     C_3   0.727814 0.700225 0.463277 0.125718
C42   C     C_3   0.272186 0.299762 0.536759 0.125970
C43   C     C_3   0.269933 0.702435 0.545247 0.128612
C44   C     C_3   0.728448 0.299054 0.460471 0.121990
C45   C     C_1   0.374563 0.125427 0.499829 -0.157349
C46   C     C_1   0.625428 0.874564 0.500174 -0.157804
C47   C     C_1   0.625456 0.125450 0.500167 -0.155796
C48   C     C_1   0.374553 0.874547 0.499839 -0.155808
C49   C     C_1   0.874570 0.625435 0.499819 -0.157784
C50   C     C_1   0.125439 0.374574 0.500178 -0.157321
C51   C     C_1   0.125452 0.625448 0.500156 -0.155842
C52   C     C_1   0.874531 0.374564 0.499841 -0.155830
C53   C     C_3   0.267137 0.239014 0.585652 0.240061
C54   C     C_3   0.732835 0.760965 0.414354 0.240041
C55   C     C_3   0.734538 0.237500 0.414086 0.253782
C56   C     C_3   0.262299 0.765663 0.585886 0.254287
C57   C     C_3   0.767160 0.739034 0.585612 0.239977
C58   C     C_3   0.232866 0.260987 0.414382 0.240033
C59   C     C_3   0.237711 0.734324 0.414086 0.254390
C60   C     C_3   0.765432 0.262533 0.585959 0.253875
C61   C     C_3   0.291752 0.208219 0.500503 -0.111047
C62   C     C_3   0.708237 0.791771 0.499507 -0.111026
C63   C     C_3   0.708256 0.208315 0.499444 -0.112178
C64   C     C_3   0.291691 0.791755 0.500570 -0.112405
C65   C     C_3   0.791759 0.708227 0.500460 -0.111102
C66   C     C_3   0.208251 0.291784 0.499530 -0.111133
C67   C     C_3   0.208320 0.708233 0.499403 -0.112423
C68   C     C_3   0.791715 0.291718 0.500599 -0.112191
C69   C     C_3   0.443365 0.999612 0.029460 0.169851
C70   C     C_3   0.556626 0.000389 0.970540 0.169878
C71   C     C_3   0.943506 0.503940 0.029452 0.169590
C72   C     C_3   0.056499 0.496050 0.970544 0.169562
C73   C     C_3   0.499951 0.000008 0.090602 -0.189357
C74   C     C_3   0.500041 0.999993 0.909398 -0.189394
C75   C     C_3   0.999954 0.500002 0.090599 -0.189389
C76   C     C_3   0.000051 0.499989 0.909398 -0.189394
N1    N     N_1   0.500020 0.000000 0.268010 -0.086542
N2    N     N_1   0.499980 1.000000 0.731990 -0.086544
N3    N     N_1   0.000020 0.500000 0.268010 -0.086553
N4    N     N_1   0.999980 0.500000 0.731990 -0.086551
O1    O     O_R   0.438390 0.938390 0.574460 -0.602032
O2    O     O_R   0.561610 0.061610 0.425540 -0.601995
O3    O     O_R   0.561610 0.938390 0.425540 -0.598693
O4    O     O_R   0.438390 0.061610 0.574460 -0.598433
O5    O     O_R   0.938390 0.438390 0.574460 -0.601956
O6    O     O_R   0.061610 0.561610 0.425540 -0.601996
O7    O     O_R   0.061610 0.438390 0.425540 -0.598343
O8    O     O_R   0.938390 0.561610 0.574460 -0.598600
O9    O     O_R   0.438400 0.938390 0.425520 -0.610872
O10   O     O_R   0.561600 0.061610 0.574480 -0.610879
O11   O     O_R   0.561600 0.938390 0.574480 -0.616031
O12   O     O_R   0.438400 0.061610 0.425520 -0.615753
O13   O     O_R   0.938400 0.438390 0.425520 -0.610946
O14   O     O_R   0.061600 0.561610 0.574480 -0.610940
O15   O     O_R   0.061600 0.438390 0.574480 -0.615819
O16   O     O_R   0.938400 0.561610 0.425520 -0.616094
Zn1   Zn    Zn3+2 0.500000 1.000000 0.599450 0.997155
Zn2   Zn    Zn3+2 0.500000 1.000000 0.400550 0.997176
Zn3   Zn    Zn3+2 1.000000 0.500000 0.599450 0.997186
Zn4   Zn    Zn3+2 0.000000 0.500000 0.400550 0.997161
N5    N     N_2   0.617447 0.001554 0.936693 -0.302655
H1    H     H_    0.623739 0.974849 0.881407 0.229192
C77   C     C_3   0.664717 0.995870 0.002412 -0.726702
H2    H     H_    0.708249 0.007870 0.971391 0.240158
H3    H     H_    0.667591 0.949044 0.027022 0.263446
H4    H     H_    0.657026 0.026402 0.059627 0.248165
N6    N     N_2   0.382544 0.998446 0.063309 -0.303167
H5    H     H_    0.376252 0.025152 0.118595 0.229124
C78   C     C_3   0.335274 0.004129 0.997591 -0.724914
H6    H     H_    0.291741 0.992129 0.028613 0.239998
H7    H     H_    0.342964 0.973596 0.940377 0.248995
H8    H     H_    0.332399 0.050955 0.972979 0.263337
N7    N     N_2   0.117232 0.492555 0.936697 -0.303666
H9    H     H_    0.121459 0.465451 0.881397 0.229354
C79   C     C_3   0.163929 0.483260 0.002410 -0.724310
H10   H     H_    0.208255 0.491871 0.971384 0.239399
H11   H     H_    0.163198 0.436355 0.027027 0.264860
H12   H     H_    0.158615 0.514306 0.059620 0.247923
N8    N     N_2   0.882771 0.507433 0.063293 -0.303199
H13   H     H_    0.878540 0.534546 0.118584 0.229400
C80   C     C_3   0.836076 0.516714 0.997573 -0.725908
H14   H     H_    0.791750 0.508103 0.028596 0.239531
H15   H     H_    0.841397 0.485662 0.940371 0.247138
H16   H     H_    0.836803 0.563615 0.972940 0.264964
N9    N     N_2   0.207051 0.144092 0.425455 -0.291557
H17   H     H_    0.238008 0.124027 0.384124 0.243541
C81   C     C_3   0.147078 0.144151 0.388488 -0.736127
H18   H     H_    0.131396 0.097159 0.381014 0.227897
H19   H     H_    0.146902 0.165521 0.321712 0.275532
H20   H     H_    0.115298 0.168120 0.432708 0.241813
N10   N     N_2   0.792939 0.855930 0.574498 -0.291801
H21   H     H_    0.762002 0.875965 0.615898 0.243582
C82   C     C_3   0.852945 0.855917 0.611348 -0.734538
H22   H     H_    0.868610 0.902920 0.618751 0.228442
H23   H     H_    0.884699 0.831950 0.567085 0.241749
H24   H     H_    0.853194 0.834568 0.678140 0.275465
N11   N     N_2   0.790932 0.145812 0.581978 -0.270876
H25   H     H_    0.778225 0.107707 0.547880 0.226623
C83   C     C_3   0.852413 0.143970 0.612892 -0.720213
H26   H     H_    0.858358 0.104873 0.657889 0.238358
H27   H     H_    0.864173 0.185104 0.650508 0.280243
H28   H     H_    0.883615 0.138913 0.555952 0.217209
N12   N     N_2   0.212298 0.851714 0.408125 -0.274843
H29   H     H_    0.218594 0.889962 0.445631 0.228849
C84   C     C_3   0.154862 0.849926 0.363156 -0.715746
H30   H     H_    0.144584 0.894884 0.335125 0.225238
H31   H     H_    0.118567 0.837247 0.409950 0.223993
H32   H     H_    0.155969 0.817683 0.307089 0.288097
N13   N     N_2   0.707060 0.644066 0.425470 -0.291818
H33   H     H_    0.738000 0.624032 0.384075 0.243645
C85   C     C_3   0.647060 0.644082 0.388601 -0.734575
H34   H     H_    0.631431 0.597077 0.381053 0.228473
H35   H     H_    0.646802 0.665517 0.321871 0.275527
H36   H     H_    0.615283 0.667963 0.432930 0.241715
N14   N     N_2   0.292940 0.355909 0.574600 -0.291529
H37   H     H_    0.261990 0.375935 0.615987 0.243627
C86   C     C_3   0.352928 0.355870 0.611511 -0.736201
H38   H     H_    0.368552 0.402871 0.619142 0.227943
H39   H     H_    0.384719 0.332018 0.567171 0.241755
H40   H     H_    0.353165 0.334390 0.678207 0.275577
N15   N     N_2   0.287715 0.648274 0.591844 -0.274816
H41   H     H_    0.281423 0.610027 0.554334 0.228871
C87   C     C_3   0.345148 0.650063 0.636821 -0.715785
H42   H     H_    0.355435 0.605101 0.664828 0.225281
H43   H     H_    0.344029 0.682291 0.692907 0.288039
H44   H     H_    0.381442 0.662763 0.590038 0.223981
N16   N     N_2   0.709040 0.354222 0.418069 -0.270840
H45   H     H_    0.721754 0.392327 0.452161 0.226637
C88   C     C_3   0.647556 0.356070 0.387169 -0.720253
H46   H     H_    0.641613 0.395160 0.342157 0.238410
H47   H     H_    0.616361 0.361145 0.444115 0.217202
H48   H     H_    0.635784 0.314932 0.349574 0.280158
N17   N     N_2   0.651027 0.713270 0.598365 -0.279099
H49   H     H_    0.610980 0.724926 0.568586 0.221361
C89   C     C_3   0.651320 0.652764 0.633157 -0.686539
H50   H     H_    0.613539 0.647290 0.680553 0.228157
H51   H     H_    0.693672 0.643232 0.669307 0.279947
H52   H     H_    0.645708 0.619771 0.578403 0.239606
N18   N     N_2   0.349010 0.286721 0.401717 -0.279185
H53   H     H_    0.389044 0.275046 0.431516 0.221665
C90   C     C_3   0.348747 0.347235 0.366957 -0.684560
H54   H     H_    0.386536 0.352702 0.319574 0.228680
H55   H     H_    0.354366 0.380212 0.421729 0.239475
H56   H     H_    0.306404 0.356794 0.330799 0.279951
N19   N     N_2   0.354338 0.708808 0.419237 -0.271051
H57   H     H_    0.392459 0.721998 0.452970 0.225012
C91   C     C_3   0.356368 0.647047 0.389827 -0.716339
H58   H     H_    0.394629 0.641137 0.343424 0.240148
H59   H     H_    0.314639 0.634347 0.354259 0.279294
H60   H     H_    0.362998 0.616535 0.447381 0.217045
N20   N     N_2   0.648050 0.287856 0.590736 -0.275006
H61   H     H_    0.609818 0.281009 0.553299 0.227327
C92   C     C_3   0.649437 0.345638 0.634551 -0.712954
H62   H     H_    0.604687 0.355317 0.663553 0.226787
H63   H     H_    0.660801 0.381802 0.586725 0.224170
H64   H     H_    0.682454 0.345565 0.689751 0.287991
N21   N     N_2   0.150994 0.213280 0.598314 -0.279259
H65   H     H_    0.110960 0.224972 0.568532 0.221640
C93   C     C_3   0.151246 0.152755 0.633034 -0.684383
H66   H     H_    0.113500 0.147303 0.680495 0.228689
H67   H     H_    0.193618 0.143151 0.669090 0.279979
H68   H     H_    0.145545 0.119801 0.578249 0.239453
N22   N     N_2   0.848965 0.786727 0.401593 -0.279181
H69   H     H_    0.889015 0.775047 0.431343 0.221331
C94   C     C_3   0.848686 0.847244 0.366842 -0.686378
H70   H     H_    0.886420 0.852699 0.319358 0.228172
H71   H     H_    0.854388 0.880214 0.421606 0.239565
H72   H     H_    0.806303 0.856827 0.330803 0.279987
N23   N     N_2   0.851919 0.212176 0.409306 -0.275125
H73   H     H_    0.890152 0.219029 0.446737 0.227326
C95   C     C_3   0.850533 0.154390 0.365501 -0.712958
H74   H     H_    0.895277 0.144722 0.336471 0.226797
H75   H     H_    0.817499 0.154450 0.310324 0.288025
H76   H     H_    0.839194 0.118227 0.413341 0.224201
N24   N     N_2   0.145673 0.791180 0.580734 -0.271162
H77   H     H_    0.107552 0.777995 0.546994 0.225012
C96   C     C_3   0.143646 0.852939 0.610152 -0.716327
H78   H     H_    0.105375 0.858854 0.656535 0.240123
H79   H     H_    0.137035 0.883457 0.552599 0.217066
H80   H     H_    0.185367 0.865630 0.645745 0.279363
Br1   Br    Br    0.706805 0.778651 0.293513 -0.531818
Br2   Br    Br    0.293126 0.221290 0.706498 -0.531463
Br3   Br    Br    0.281021 0.791095 0.706714 -0.526468
Br4   Br    Br    0.709519 0.218264 0.293216 -0.527554
Br5   Br    Br    0.206865 0.278699 0.293538 -0.530339
Br6   Br    Br    0.793206 0.721371 0.706451 -0.530675
Br7   Br    Br    0.790450 0.281781 0.706827 -0.527503
Br8   Br    Br    0.218992 0.708888 0.293258 -0.526462
N25   N     N_2   0.559998 0.899111 0.064239 -0.295155
H81   H     H_    0.539965 0.880358 0.119476 0.236513
C97   C     C_3   0.578801 0.855260 0.998924 -0.717266
H82   H     H_    0.610897 0.823587 0.030408 0.254092
H83   H     H_    0.601492 0.877132 0.941794 0.242075
H84   H     H_    0.539720 0.829335 0.974106 0.254804
N26   N     N_2   0.439994 0.100890 0.935761 -0.295205
H85   H     H_    0.460029 0.119645 0.880525 0.236465
C98   C     C_3   0.421188 0.144740 0.001075 -0.716646
H86   H     H_    0.389095 0.176415 0.969589 0.254036
H87   H     H_    0.460268 0.170664 0.025901 0.255109
H88   H     H_    0.398493 0.122867 0.058200 0.242079
N27   N     N_2   0.442655 0.897533 0.935818 -0.302618
H89   H     H_    0.416460 0.905464 0.880343 0.241437
C99   C     C_3   0.413991 0.859388 0.001107 -0.709153
H90   H     H_    0.402555 0.815749 0.969734 0.248878
H91   H     H_    0.372021 0.880332 0.025564 0.262093
H92   H     H_    0.444236 0.850664 0.058465 0.239845
N28   N     N_2   0.557335 0.102468 0.064185 -0.301901
H93   H     H_    0.583530 0.094537 0.119660 0.241377
C100  C     C_3   0.585998 0.140616 0.998899 -0.708783
H94   H     H_    0.597440 0.184251 0.030278 0.250334
H95   H     H_    0.555751 0.149347 0.941546 0.239483
H96   H     H_    0.627966 0.119670 0.974433 0.261717
N29   N     N_2   0.052109 0.394803 0.064199 -0.294820
H97   H     H_    0.030699 0.377634 0.119429 0.235511
C101  C     C_3   0.067503 0.349645 0.998866 -0.718467
H98   H     H_    0.097102 0.315618 0.030323 0.252437
H99   H     H_    0.091780 0.369723 0.941728 0.242814
H100  H     H_    0.026556 0.326768 0.974065 0.255350
N30   N     N_2   0.947901 0.605188 0.935790 -0.294694
H101  H     H_    0.969330 0.622363 0.880582 0.235576
C102  C     C_3   0.932489 0.650343 0.001117 -0.719311
H102  H     H_    0.902986 0.684429 0.969603 0.252533
H103  H     H_    0.973437 0.673143 0.026068 0.255007
H104  H     H_    0.908102 0.630277 0.058159 0.242814
N31   N     N_2   0.935001 0.402214 0.935758 -0.301272
H105  H     H_    0.909505 0.412125 0.880269 0.241116
C103  C     C_3   0.903493 0.366358 0.001010 -0.707598
H106  H     H_    0.888773 0.323719 0.969609 0.252334
H107  H     H_    0.863233 0.390439 0.025450 0.260379
H108  H     H_    0.932967 0.355350 0.058383 0.239522
N32   N     N_2   0.065014 0.597770 0.064239 -0.302056
H109  H     H_    0.090519 0.587849 0.119715 0.241408
C104  C     C_3   0.096513 0.633631 0.998984 -0.707696
H110  H     H_    0.111260 0.676256 0.030398 0.251047
H111  H     H_    0.067024 0.644666 0.941641 0.239766
H112  H     H_    0.136756 0.609543 0.974498 0.260768

loop_
_geom_bond_atom_site_label_1
_geom_bond_atom_site_label_2
_ccdc_geom_bond_type
C4    O12   A    
N22   H69   S    
C101  H99   S    
C9    C45   T    
C86   H38   S    
N14   C86   S    
C26   C72   S    
C88   H46   S    
C11   C47   T    
C87   H42   S    
C8    O16   A    
C12   C48   T    
C24   C74   S    
C39   N11   S    
N15   H41   S    
C69   N6    S    
C70   N5    S    
O12   Zn2   S    
C89   H51   S    
C13   C65   S    
C90   H54   S    
C96   H80   S    
N11   C83   S    
C100  H94   S    
N5    H1    S    
C31   C43   S    
C9    C61   S    
O4    Zn1   S    
O14   Zn3   S    
C87   H43   S    
C104  H110  S    
N12   H29   S    
O7    Zn4   S    
C11   C63   S    
N24   C96   S    
C42   C53   S    
N29   H97   S    
C12   C64   S    
C103  H108  S    
O15   Zn3   S    
N19   C91   S    
C41   N13   S    
C39   C60   S    
C1    O1    A    
C99   H90   S    
C98   H87   S    
N12   C84   S    
C104  H112  S    
C20   C76   S    
C3    O11   A    
N27   H89   S    
C85   H36   S    
C31   C59   S    
N21   C93   S    
C91   H60   S    
C77   H2    S    
N10   C82   S    
C59   C67   S    
C53   C61   S    
C58   C66   S    
C94   H72   S    
C7    O7    A    
C95   H74   S    
C85   H34   S    
C79   H11   S    
O3    Zn2   S    
C55   C63   S    
C22   N28   S    
C70   C74   S    
C93   H68   S    
C30   N18   S    
C56   C64   S    
C5    C52   S    
C69   C73   S    
C16   C68   S    
C15   C51   T    
C6    C51   S    
C97   H84   S    
O6    Zn4   S    
N31   H105  S    
O10   Zn1   S    
C37   C58   S    
C72   C76   S    
N30   H101  S    
C5    O5    A    
C5    O13   A    
C99   H92   S    
N28   C100  S    
N9    H17   S    
C101  H100  S    
C93   H66   S    
N5    C77   S    
C40   C59   S    
C98   H86   S    
C17   C73   S    
N26   C98   S    
N13   C85   S    
C10   C62   S    
C23   C73   S    
C14   C50   T    
C27   C75   S    
C34   C65   S    
N15   C87   S    
C24   C69   S    
C84   H30   S    
C89   H52   S    
C37   N9    S    
C4    C45   S    
N8    C80   S    
C33   C53   S    
N23   H73   S    
C36   C67   S    
C100  H95   S    
C84   H31   S    
C35   C55   S    
N20   H61   S    
O8    Zn3   S    
N3    Zn4   S    
C36   C40   S    
C87   H44   S    
C42   C66   S    
C7    C50   S    
C56   Br3   S    
N16   C88   S    
C98   H88   S    
C78   H8    S    
C29   N17   S    
N16   H45   S    
C102  H103  S    
C20   N4    T    
C54   Br1   S    
C41   C65   S    
C54   C62   S    
C92   H63   S    
C96   H78   S    
N17   H49   S    
C38   C62   S    
C72   N7    S    
N21   H65   S    
C33   C37   S    
C26   N32   S    
C32   N20   S    
C21   C69   S    
N27   C99   S    
C44   N16   S    
C35   C39   S    
N24   H77   S    
C81   H19   S    
C43   C67   S    
C10   C46   T    
N25   H81   S    
O5    Zn3   S    
N9    C81   S    
C82   H24   S    
C38   C57   S    
N22   C94   S    
C18   C74   S    
N29   C101  S    
C89   H50   S    
C4    O4    A    
C33   N21   S    
C34   N22   S    
C18   N2    T    
C79   H12   S    
C15   C67   S    
C33   C66   S    
C31   N19   S    
N2    Zn1   S    
C17   N1    T    
C26   C75   S    
C14   C66   S    
N1    Zn2   S    
C77   H3    S    
O11   Zn1   S    
N8    H13   S    
C19   N3    T    
C59   Br8   S    
N31   C103  S    
O13   Zn4   S    
C60   C68   S    
C80   H14   S    
C23   N25   S    
N17   C89   S    
C80   H16   S    
C25   C71   S    
C57   Br6   S    
C43   N15   S    
C104  H111  S    
C95   H75   S    
C29   C57   S    
C34   C54   S    
C86   H40   S    
C21   C23   S    
N4    Zn3   S    
C3    O3    A    
C82   H22   S    
N25   C97   S    
O2    Zn2   S    
C13   C49   T    
C44   C68   S    
C28   C71   S    
C25   C27   S    
C32   C60   S    
N6    H5    S    
C101  H98   S    
C21   C74   S    
N14   H37   S    
C84   H32   S    
C7    O15   A    
C37   C61   S    
C21   N27   S    
N7    H9    S    
C88   H47   S    
C90   H56   S    
N32   C104  S    
C94   H70   S    
C29   C62   S    
N23   C95   S    
C100  H96   S    
C1    O9    A    
C2    O10   A    
C29   C41   S    
C34   C38   S    
C40   N12   S    
C31   C64   S    
C16   C52   T    
C32   C63   S    
C57   C65   S    
N30   C102  S    
C23   C70   S    
C102  H104  S    
C25   N31   S    
C83   H26   S    
C1    C48   S    
C81   H18   S    
C58   Br5   S    
C2    C47   S    
C96   H79   S    
C39   C63   S    
N11   H25   S    
O16   Zn4   S    
C3    C46   S    
C26   C28   S    
C6    O6    A    
C79   H10   S    
C71   N8    S    
O9    Zn2   S    
C60   Br7   S    
C38   N10   S    
C25   C76   S    
C78   H7    S    
C42   N14   S    
C53   Br2   S    
C81   H20   S    
C91   H58   S    
C36   N24   S    
C24   N26   S    
C78   H6    S    
N20   C92   S    
C92   H64   S    
C71   C75   S    
C103  H107  S    
C44   C55   S    
C6    O14   A    
N19   H57   S    
N6    C78   S    
N7    C79   S    
O1    Zn1   S    
C35   C68   S    
C40   C64   S    
C30   C58   S    
C19   C75   S    
C36   C56   S    
C83   H28   S    
C91   H59   S    
C77   H4    S    
C22   C24   S    
C85   H35   S    
C35   N23   S    
N10   H21   S    
C93   H67   S    
C41   C54   S    
C80   H15   S    
C27   N29   S    
C2    O2    A    
N26   H85   S    
C97   H83   S    
N18   H53   S    
C43   C56   S    
C90   H55   S    
C28   N30   S    
C32   C44   S    
C86   H39   S    
C92   H62   S    
C30   C61   S    
C103  H106  S    
C97   H82   S    
C82   H23   S    
C102  H102  S    
C30   C42   S    
N18   C90   S    
C88   H48   S    
C99   H91   S    
C22   C73   S    
C8    O8    A    
C95   H76   S    
N13   H33   S    
C94   H71   S    
C8    C49   S    
C22   C70   S    
C27   C72   S    
N32   H109  S    
N28   H93   S    
C55   Br4   S    
C83   H27   S    
C28   C76   S    
