data_mof_unit_22840.cif
_audit_creation_date              2013-03-05T15:49:57-0500
_audit_creation_method            fapswitch 2.2
_symmetry_space_group_name_H-M    P1
_symmetry_Int_Tables_number       1
_space_group_crystal_system       triclinic
_cell_length_a                    27.831349
_cell_length_b                    12.964916
_cell_length_c                    11.799777
_cell_angle_alpha                 100.657372
_cell_angle_beta                  95.482395
_cell_angle_gamma                 92.639958
_cell_volume                      4156.29543964

loop_
_atom_site_label
_atom_site_type_symbol
_atom_site_description
_atom_site_fract_x
_atom_site_fract_y
_atom_site_fract_z
_atom_type_partial_charge
O1    O     O_R   0.502540 0.354460 0.582000 -0.586133
O2    O     O_R   0.497460 0.645540 0.418000 -0.574466
O3    O     O_R   0.496500 0.341410 0.386200 -0.595403
O4    O     O_R   0.503500 0.658590 0.613800 -0.617473
C1    C     C_R   0.502304 0.299508 0.478598 0.845218
C2    C     C_R   0.502475 0.701116 0.522255 0.836367
O5    O     O_R   0.433290 0.506540 0.597890 -0.578568
O6    O     O_R   0.566710 0.493460 0.402110 -0.554853
O7    O     O_R   0.427240 0.493490 0.402090 -0.607903
O8    O     O_R   0.572760 0.506510 0.597910 -0.612131
C3    C     C_R   0.407578 0.502048 0.499314 0.868637
C4    C     C_R   0.592290 0.498697 0.501214 0.860656
Cu1   Cu    Cu3+1 0.503580 0.507730 0.615930 0.927634
Cu2   Cu    Cu3+1 0.496420 0.492270 0.384070 0.952319
C5    C     C_R   0.174721 0.400326 0.486132 0.520623
C6    C     C_R   0.826491 0.582081 0.562003 0.531890
O9    O     O_2   0.199305 0.319521 0.513209 -0.571252
O10   O     O_2   0.804339 0.668848 0.604786 -0.580463
N1    N     N_R   0.199852 0.491946 0.478013 -0.445795
N2    N     N_R   0.798787 0.489508 0.523834 -0.443184
C7    C     C_R   0.175761 0.579560 0.465141 0.543231
C8    C     C_R   0.819953 0.396698 0.493039 0.544096
C9    C     C_R   0.280559 0.578914 0.555191 -0.128022
C10   C     C_R   0.719406 0.419361 0.565322 -0.113678
C11   C     C_R   0.331226 0.584268 0.559601 0.012737
C12   C     C_R   0.668534 0.415676 0.553321 0.013666
C13   C     C_R   0.325569 0.411611 0.432602 -0.049671
C14   C     C_R   0.672656 0.568957 0.458068 -0.060245
C15   C     C_R   0.275283 0.414351 0.418866 -0.196158
C16   C     C_R   0.722638 0.561863 0.459627 -0.197951
C17   C     C_R   0.252163 0.495807 0.482935 0.313173
C18   C     C_R   0.746575 0.490254 0.516501 0.310903
C19   C     C_R   0.099276 0.485682 0.475283 -0.066401
C20   C     C_R   0.899059 0.489493 0.523851 -0.062683
C21   C     C_R   0.123473 0.391843 0.471373 -0.053916
C22   C     C_R   0.877514 0.586129 0.557343 -0.060121
C23   C     C_R   0.095579 0.293982 0.448293 0.096294
C24   C     C_R   0.907987 0.681147 0.587577 0.092544
C25   C     C_R   0.125643 0.579772 0.470688 -0.009627
C26   C     C_R   0.870302 0.394574 0.500324 -0.057517
C27   C     C_R   0.354319 0.499656 0.497246 -0.070914
C28   C     C_R   0.645132 0.494991 0.504567 -0.097644
H1    H     H_    0.253791 0.349094 0.363516 0.152926
H2    H     H_    0.743609 0.615538 0.420231 0.154237
C29   C     C_R   0.971619 0.389116 0.496157 -0.038715
C30   C     C_R   0.025421 0.581228 0.493153 0.037509
C31   C     C_R   0.977124 0.582129 0.522715 0.038752
C32   C     C_R   0.021799 0.389267 0.478760 0.007478
C33   C     C_R   0.949356 0.486786 0.513391 0.057094
C34   C     C_R   0.048758 0.485507 0.483479 0.060879
C35   C     C_R   0.942625 0.296657 0.502208 -0.007489
C36   C     C_R   0.051347 0.671394 0.469713 -0.024490
C37   C     C_R   0.892263 0.299093 0.490678 -0.124920
C38   C     C_R   0.101240 0.670791 0.464790 -0.240162
O11   O     O_2   0.792384 0.306398 0.453808 -0.560930
O12   O     O_2   0.200129 0.666377 0.446750 -0.561908
C39   C     C_R   0.044992 0.295882 0.444922 -0.224696
C40   C     C_R   0.957308 0.675804 0.571420 -0.120111
H3    H     H_    0.738594 0.365979 0.610582 0.153364
H4    H     H_    0.262978 0.641206 0.606733 0.161064
H5    H     H_    0.870175 0.227067 0.486287 0.215602
H6    H     H_    0.120755 0.741106 0.451203 0.178380
H7    H     H_    0.023332 0.224237 0.411883 0.154187
H8    H     H_    0.981443 0.744884 0.599898 0.128736
C41   C     C_R   0.506829 0.815414 0.536288 -0.020619
C42   C     C_R   0.508854 0.186925 0.468716 -0.053845
C43   C     C_R   0.522631 0.017193 0.355449 -0.220353
C44   C     C_R   0.504295 0.987662 0.655716 -0.229556
C45   C     C_R   0.520922 0.125708 0.365778 -0.217262
C46   C     C_R   0.504187 0.879093 0.645086 -0.210947
C47   C     C_R   0.504839 0.140768 0.566056 -0.240229
C48   C     C_R   0.513693 0.861446 0.439944 -0.227129
C49   C     C_R   0.508258 0.033249 0.558140 0.168392
C50   C     C_R   0.515023 0.970217 0.450541 0.161451
H9    H     H_    0.517334 0.812786 0.356390 0.148459
H10   H     H_    0.498726 0.188190 0.648103 0.147220
H11   H     H_    0.500153 0.844891 0.721011 0.150322
H12   H     H_    0.528635 0.161452 0.293391 0.156050
H13   H     H_    0.529690 0.970248 0.273483 0.138316
H14   H     H_    0.500433 0.035645 0.739470 0.136338
N3    N     N_R   0.508960 0.519350 0.790140 -0.207810
N4    N     N_R   0.491040 0.480650 0.209860 -0.205782
C51   C     C_R   0.452172 0.398685 0.012582 0.004755
C52   C     C_R   0.538604 0.616215 0.986214 0.000883
C53   C     C_R   0.458238 0.405023 0.136947 0.243955
C54   C     C_R   0.540791 0.595010 0.863091 0.251931
C55   C     C_R   0.517342 0.548017 0.159879 -0.024994
C56   C     C_R   0.477704 0.462414 0.839458 -0.032002
C57   C     C_R   0.512932 0.543253 0.036828 -0.034467
C58   C     C_R   0.481187 0.466486 0.962522 -0.016009
H15   H     H_    0.450381 0.414206 0.780234 0.161027
H16   H     H_    0.542447 0.605066 0.216871 0.172813
C59   C     C_2   0.345930 0.310659 0.389220 0.321557
H17   H     H_    0.327593 0.257507 0.314092 0.066785
O13   O     O_2   0.381248 0.282617 0.442212 -0.574205
C60   C     C_2   0.651728 0.657285 0.410183 0.332110
H18   H     H_    0.672069 0.696369 0.354484 0.075629
O14   O     O_2   0.613181 0.690829 0.435962 -0.572449
C61   C     C_3   0.582010 0.651170 0.817786 -0.353591
C62   C     C_3   0.629016 0.594775 0.832308 -0.381179
C63   C     C_3   0.671595 0.654111 0.795051 -0.786401
H19   H     H_    0.663505 0.665614 0.704454 0.271553
H20   H     H_    0.679282 0.732137 0.853041 0.246171
H21   H     H_    0.704261 0.608433 0.800155 0.251400
H22   H     H_    0.637685 0.586095 0.923632 0.206356
H23   H     H_    0.624615 0.514147 0.780402 0.237962
H24   H     H_    0.574193 0.659625 0.727819 0.251601
H25   H     H_    0.588319 0.734101 0.862595 0.161998
C64   C     C_3   0.426340 0.327334 0.185264 -0.338775
C65   C     C_3   0.438890 0.211732 0.149893 -0.411771
C66   C     C_3   0.415232 0.138192 0.218442 -0.791620
H26   H     H_    0.426516 0.162447 0.312186 0.302512
H27   H     H_    0.375263 0.137093 0.202222 0.243995
H28   H     H_    0.426338 0.057044 0.190148 0.234548
H29   H     H_    0.425387 0.179399 0.059501 0.236499
H30   H     H_    0.478606 0.206845 0.158585 0.220573
H31   H     H_    0.427849 0.344384 0.278007 0.283265
H32   H     H_    0.387567 0.336289 0.160088 0.134415
C67   C     C_3   0.413422 0.323691 0.932037 -0.409245
C68   C     C_3   0.435134 0.229320 0.858171 -0.364561
C69   C     C_3   0.395960 0.144435 0.801008 -0.835735
H33   H     H_    0.377919 0.111498 0.867662 0.246047
H34   H     H_    0.368551 0.177575 0.745521 0.277670
H35   H     H_    0.412544 0.079891 0.745782 0.246916
H36   H     H_    0.453878 0.253658 0.788512 0.216082
H37   H     H_    0.462960 0.194729 0.910859 0.205180
H38   H     H_    0.384675 0.294320 0.978171 0.203371
H39   H     H_    0.392323 0.367927 0.874534 0.189981
C70   C     C_3   0.554975 0.724581 0.059562 -0.425532
C71   C     C_3   0.607857 0.733526 0.113187 -0.358239
C72   C     C_3   0.618410 0.832601 0.206609 -0.821653
H40   H     H_    0.609645 0.903486 0.170282 0.247124
H41   H     H_    0.596822 0.828397 0.280135 0.272707
H42   H     H_    0.657365 0.840133 0.239650 0.244529
H43   H     H_    0.616067 0.663558 0.151730 0.218089
H44   H     H_    0.632464 0.738885 0.045874 0.228887
H45   H     H_    0.548682 0.787254 0.008278 0.180579
H46   H     H_    0.530939 0.744231 0.129446 0.193327
C73   C     C_3   0.119414 0.189360 0.420509 -0.341268
C74   C     C_3   0.085584 0.090922 0.370060 -0.408028
C75   C     C_3   0.114295 0.993721 0.340346 -0.811029
H47   H     H_    0.139621 0.005186 0.275793 0.258546
H48   H     H_    0.135124 0.977752 0.419678 0.254327
H49   H     H_    0.089070 0.924406 0.302630 0.249251
H50   H     H_    0.060709 0.075992 0.434450 0.231131
H51   H     H_    0.064081 0.102629 0.289574 0.236252
H52   H     H_    0.145495 0.196792 0.356226 0.219853
H53   H     H_    0.139462 0.175015 0.501581 0.241942
C76   C     C_3   0.888216 0.787291 0.634340 -0.330219
C77   C     C_3   0.924628 0.883892 0.664551 -0.411797
C78   C     C_3   0.899669 0.983564 0.709345 -0.735667
H54   H     H_    0.871799 0.999282 0.641838 0.271703
H55   H     H_    0.882298 0.975390 0.788435 0.241299
H56   H     H_    0.926811 0.051619 0.731621 0.254833
H57   H     H_    0.952994 0.872456 0.733298 0.214910
H58   H     H_    0.941795 0.895368 0.586077 0.266757
H59   H     H_    0.860125 0.803999 0.567805 0.244427
H60   H     H_    0.871593 0.780590 0.714889 0.233216
C79   C     C_3   0.638497 0.325191 0.584682 -0.394617
C80   C     C_3   0.667023 0.234634 0.618420 -0.363250
C81   C     C_3   0.633088 0.143693 0.634298 -0.804405
H61   H     H_    0.608424 0.171198 0.700707 0.249071
H62   H     H_    0.611397 0.109251 0.550839 0.267908
H63   H     H_    0.654600 0.081457 0.663161 0.248133
H64   H     H_    0.690168 0.204544 0.549392 0.248548
H65   H     H_    0.690233 0.263250 0.701367 0.216799
H66   H     H_    0.617310 0.355880 0.657053 0.205489
H67   H     H_    0.612417 0.291582 0.507897 0.190426
C82   C     C_3   0.358574 0.683828 0.626819 -0.423980
C83   C     C_3   0.368674 0.760206 0.545647 -0.324356
C84   C     C_3   0.380932 0.871851 0.613507 -0.834581
H68   H     H_    0.348181 0.904987 0.649090 0.257232
H69   H     H_    0.409156 0.872231 0.686620 0.252845
H70   H     H_    0.394267 0.922507 0.555312 0.258350
H71   H     H_    0.399229 0.733706 0.495870 0.204203
H72   H     H_    0.336400 0.761512 0.482666 0.242718
H73   H     H_    0.336755 0.722181 0.695151 0.204362
H74   H     H_    0.392878 0.666743 0.673629 0.210240
C85   C     C_2   0.962746 0.202801 0.540112 0.299120
H75   H     H_    0.997380 0.210090 0.592606 0.082509
O15   O     O_2   0.940674 0.116686 0.514364 -0.551413
C86   C     C_2   0.027943 0.762039 0.432476 0.324138
H76   H     H_    0.047213 0.838964 0.450111 0.069199
O16   O     O_2   0.988234 0.750571 0.376300 -0.515097

loop_
_geom_bond_atom_site_label_1
_geom_bond_atom_site_label_2
_geom_bond_distance
_ccdc_geom_bond_type
C44   H14   1.083653 S    
C84   H68   1.110938 S    
C63   H19   1.109869 S    
C30   C36   1.429611 A    
C13   C15   1.396280 A    
C49   C50   1.411161 A    
C66   H26   1.103157 S    
C76   C77   1.539973 S    
C72   H42   1.110118 S    
N1    C17   1.449668 S    
C81   H61   1.111011 S    
C64   H31   1.071968 S    
C32   C39   1.408687 A    
C31   C33   1.408110 A    
C83   H72   1.112592 S    
O5    C3    1.296341 A    
C61   H25   1.104998 S    
C84   H69   1.109017 S    
C73   H52   1.112353 S    
C62   H22   1.108951 S    
C59   H17   1.084616 S    
O1    C1    1.293375 A    
N1    C7    1.370196 A    
C36   C86   1.485020 S    
C53   C64   1.534418 S    
C75   H48   1.110969 S    
C47   H10   1.079430 S    
C68   H37   1.109276 S    
C25   C38   1.397795 A    
C83   C84   1.525237 S    
C29   C35   1.430646 A    
C51   C67   1.541906 S    
C41   C46   1.402407 A    
Cu1   N3    2.023691 S    
C52   C70   1.531827 S    
C79   H67   1.112121 S    
C82   C83   1.534144 S    
C78   H56   1.110447 S    
C82   H73   1.113212 S    
O4    Cu1   1.960792 S    
C65   C66   1.525144 S    
C69   H35   1.108728 S    
C4    C28   1.470643 S    
C24   C40   1.406864 A    
C37   H5    1.084312 S    
C2    C41   1.458382 S    
C70   H46   1.111670 S    
C71   H43   1.110756 S    
C60   O14   1.220230 D    
C78   H54   1.110953 S    
C80   H65   1.111616 S    
C76   H60   1.111686 S    
C24   C76   1.532296 S    
N3    C54   1.396401 A    
C6    N2    1.373423 A    
C67   H39   1.110373 S    
C32   C34   1.415265 A    
C63   H20   1.110588 S    
C77   H58   1.112099 S    
Cu1   Cu2   2.693387 S    
C15   H1    1.083742 S    
C46   H11   1.083242 S    
C16   H2    1.084013 S    
C45   H12   1.078275 S    
O2    C2    1.296955 A    
C48   H9    1.084077 S    
C35   C85   1.486789 S    
C5    C21   1.416933 A    
C81   H62   1.110214 S    
C36   C38   1.395644 A    
C64   H32   1.108711 S    
C39   H7    1.071334 S    
C83   H71   1.110826 S    
C40   H8    1.075359 S    
C9    H4    1.083124 S    
C84   H70   1.110696 S    
C73   H53   1.111054 S    
C43   H13   1.083542 S    
C74   C75   1.527214 S    
C48   C50   1.390954 A    
C75   H49   1.110297 S    
C74   H51   1.111870 S    
C47   C49   1.388067 A    
C68   H36   1.100008 S    
C38   H6    1.084822 S    
O3    C1    1.305154 A    
C19   C34   1.418441 A    
C43   C45   1.392944 A    
C9    C17   1.401954 A    
C5    N1    1.373957 A    
O7    Cu2   1.957629 S    
C10   C18   1.401245 A    
C42   C47   1.400868 A    
C13   C27   1.415025 A    
C79   C80   1.538032 S    
C7    C25   1.402704 A    
C56   H15   1.072550 S    
C29   C33   1.424730 A    
O6    C4    1.298491 A    
C8    C26   1.397539 A    
C60   H18   1.084936 S    
C12   C79   1.530149 S    
C66   H27   1.109543 S    
C43   C50   1.400388 A    
C19   C25   1.406819 A    
C80   H64   1.111954 S    
C67   C68   1.547951 S    
C54   C61   1.521899 S    
O7    C3    1.306276 A    
C69   H33   1.110396 S    
O3    Cu2   1.960792 S    
O8    C4    1.299384 A    
O4    C2    1.299035 A    
C51   C53   1.447593 A    
N2    C8    1.367998 A    
C63   H21   1.110483 S    
C77   H57   1.111820 S    
C55   C57   1.434990 A    
C86   H76   1.085459 S    
C20   C26   1.404455 A    
C13   C59   1.473821 S    
O1    Cu1   1.951423 S    
C52   C57   1.410762 A    
Cu2   N4    2.023694 S    
C11   C27   1.419377 A    
C72   H40   1.110951 S    
N4    C53   1.410837 A    
C65   H30   1.106121 S    
C82   H74   1.108887 S    
C81   H63   1.110271 S    
C68   C69   1.526166 S    
C12   C28   1.421785 A    
C70   C71   1.535935 S    
N2    C18   1.447992 S    
C29   C32   1.430824 A    
C11   C82   1.513277 S    
C5    O9    1.347529 S    
C51   C58   1.411205 A    
C30   C31   1.420610 A    
C20   C33   1.418427 A    
O6    Cu2   1.946522 S    
C14   C28   1.419406 A    
C21   C23   1.423976 A    
C71   H44   1.106656 S    
C10   C12   1.407072 A    
C56   C58   1.437058 A    
C1    C42   1.463895 S    
C72   H41   1.109383 S    
O8    Cu1   1.957629 S    
C74   H50   1.112024 S    
C7    O12   1.349867 S    
C73   C74   1.539756 S    
C8    O11   1.350020 S    
C41   C48   1.402508 A    
C61   H24   1.089694 S    
C30   C34   1.418105 A    
C62   H23   1.104508 S    
C61   C62   1.538522 S    
C14   C60   1.485866 S    
C80   C81   1.526498 S    
C22   C24   1.430915 A    
C71   C72   1.526785 S    
C44   C49   1.398956 A    
C15   C17   1.400390 A    
C75   H47   1.110827 S    
C6    C22   1.425270 A    
C31   C40   1.404820 A    
C16   C18   1.399331 A    
C59   O13   1.220215 D    
C10   H3    1.079673 S    
C14   C16   1.396946 A    
C62   C63   1.526437 S    
C19   C21   1.412953 A    
C79   H66   1.107895 S    
C3    C27   1.478923 S    
C66   H28   1.110686 S    
C20   C22   1.420145 A    
C78   H55   1.110851 S    
O2    Cu2   1.951422 S    
C86   O16   1.221186 D    
C69   H34   1.110851 S    
N3    C56   1.355267 A    
C85   H75   1.085159 S    
C42   C45   1.401441 A    
O5    Cu1   1.946528 S    
C9    C11   1.404130 A    
C70   H45   1.109878 S    
C6    O10   1.346745 S    
C26   C37   1.396363 A    
C23   C73   1.532108 S    
C64   C65   1.545060 S    
C44   C46   1.389714 A    
C77   C78   1.527097 S    
C52   C54   1.435510 A    
C35   C37   1.397614 A    
C57   C58   1.410018 A    
C55   H16   1.079877 S    
C76   H59   1.111659 S    
C65   H29   1.094590 S    
C23   C39   1.406133 A    
N4    C55   1.364056 A    
C85   O15   1.221421 D    
C67   H38   1.101488 S    
