data_mof_unit_47517.cif
_audit_creation_date              2012-10-26T20:25:36-0400
_audit_creation_method            fapswitch 2.2
_symmetry_space_group_name_H-M    P1
_symmetry_Int_Tables_number       1
_space_group_crystal_system       triclinic
_cell_length_a                    23.500428
_cell_length_b                    10.635589
_cell_length_c                    9.513334
_cell_angle_alpha                 88.20605
_cell_angle_beta                  91.625228
_cell_angle_gamma                 90.89093
_cell_volume                      2375.3939428

loop_
_atom_site_label
_atom_site_type_symbol
_atom_type_description
_atom_site_fract_x
_atom_site_fract_y
_atom_site_fract_z
_atom_type_partial_charge
C1    C     C_R   0.498949 0.259787 0.501895 0.559812
C2    C     C_R   0.703153 0.551515 0.612175 -0.121027
C3    C     C_R   0.238663 0.491106 0.616753 0.181533
C4    C     C_R   0.762814 0.550747 0.612962 0.184906
C5    C     C_R   0.209517 0.534042 0.493352 0.261958
C6    C     C_R   0.790635 0.502019 0.497181 0.260273
C7    C     C_3   0.499249 0.033419 0.636623 -0.096850
C8    C     C_3   0.500802 0.966432 0.363216 -0.100769
C9    C     C_3   0.547377 0.958078 0.570425 -0.130384
C10   C     C_3   0.452676 0.041799 0.429407 -0.132704
C11   C     C_3   0.501630 0.877191 0.494506 0.019554
C12   C     C_R   0.501093 0.740185 0.498081 0.546334
C13   C     C_3   0.498435 0.122726 0.505339 0.021674
C14   C     C_3   0.454645 0.951724 0.558947 0.127024
C15   C     C_3   0.545411 0.048119 0.440859 0.132294
C16   C     C_R   0.391200 0.504413 0.498667 0.552747
C17   C     C_R   0.608756 0.499866 0.501168 0.551737
C18   C     C_3   0.527976 0.595219 0.048322 0.117815
C19   C     C_3   0.472534 0.404544 0.951928 0.130041
C20   C     C_3   0.476769 0.601088 0.943033 -0.049434
C21   C     C_3   0.523262 0.399086 0.057106 -0.040582
C22   C     C_3   0.551072 0.494933 0.955503 0.109830
C23   C     C_R   0.240366 0.574723 0.376203 -0.089751
C24   C     C_3   0.449112 0.504390 0.044254 0.115872
C25   C     C_R   0.878610 0.622501 0.477580 0.438462
C26   C     C_R   0.121174 0.414801 0.484509 0.440705
C27   C     C_R   0.881233 0.398159 0.490789 0.384363
C28   C     C_R   0.118893 0.639226 0.474760 0.388817
C29   C     C_R   0.940667 0.400781 0.483916 0.004916
C30   C     C_R   0.059239 0.636718 0.470718 0.007742
C31   C     C_R   0.969761 0.517393 0.475790 -0.051423
C32   C     C_R   0.030015 0.520069 0.474309 -0.050554
C33   C     C_R   0.938714 0.630934 0.470709 0.003642
C34   C     C_R   0.758455 0.451457 0.385719 -0.083098
C35   C     C_R   0.060983 0.406424 0.477979 0.006029
C36   C     C_R   0.971197 0.288753 0.485144 -0.110465
C37   C     C_R   0.028588 0.748709 0.464392 -0.107466
C38   C     C_R   0.030524 0.289759 0.479473 0.048564
C39   C     C_R   0.969110 0.747523 0.462327 0.051431
C40   C     C_2   0.561132 0.705870 0.101863 0.629484
C41   C     C_2   0.440641 0.291505 0.900325 0.625752
C42   C     C_2   0.611352 0.476902 0.914444 0.585924
C43   C     C_2   0.388153 0.501807 0.084407 0.595122
C44   C     C_2   0.058084 0.166251 0.471872 0.637652
C45   C     C_R   0.299552 0.567854 0.379248 -0.167512
C46   C     C_2   0.941162 0.870920 0.450663 0.638581
C47   C     C_3   0.190048 0.556095 0.821427 -0.273052
C48   C     C_3   0.820593 0.510442 0.823154 -0.271815
C49   C     C_3   0.369331 0.969697 0.697248 -0.280092
C50   C     C_3   0.631258 0.028312 0.305078 -0.282538
C51   C     C_R   0.699287 0.449288 0.388199 -0.133227
C52   C     C_R   0.328755 0.516582 0.497345 -0.021082
C53   C     C_R   0.671223 0.499136 0.501664 -0.001678
C54   C     C_R   0.298017 0.482208 0.617385 -0.123478
Cu1   Cu    Cu3+1 0.500010 0.499990 0.643150 1.034603
Cu2   Cu    Cu3+1 0.499990 0.500010 0.356850 1.030504
H1    H     H_    0.948717 0.198976 0.487945 0.203742
H2    H     H_    0.681642 0.595219 0.696200 0.152899
H3    H     H_    0.586558 0.921872 0.624502 0.137934
H4    H     H_    0.413488 0.077974 0.375342 0.148570
H5    H     H_    0.498370 0.061295 0.747627 0.192666
H6    H     H_    0.501710 0.938458 0.252214 0.190434
H7    H     H_    0.628681 0.767965 0.216967 0.319488
H8    H     H_    0.373169 0.224624 0.789009 0.314701
H9    H     H_    0.693018 0.536080 0.934183 0.322901
H10   H     H_    0.322596 0.398648 0.161087 0.333861
H11   H     H_    0.104765 0.050095 0.359410 0.355811
H12   H     H_    0.050986 0.838583 0.459648 0.191779
H13   H     H_    0.893895 0.992368 0.331798 0.352971
H14   H     H_    0.228326 0.384367 0.799937 0.267059
H15   H     H_    0.164872 0.518478 0.910808 0.158841
H16   H     H_    0.162710 0.621113 0.757016 0.189391
H17   H     H_    0.227639 0.608743 0.863947 0.164036
H18   H     H_    0.772893 0.669602 0.780339 0.264153
H19   H     H_    0.844986 0.559306 0.907482 0.161852
H20   H     H_    0.850575 0.451353 0.767317 0.188605
H21   H     H_    0.787435 0.449235 0.872237 0.143032
H22   H     H_    0.383095 0.834613 0.549265 0.254865
H23   H     H_    0.456990 0.685735 0.892190 0.174269
H24   H     H_    0.332571 0.913749 0.737173 0.169052
H25   H     H_    0.353093 0.048163 0.628191 0.143742
H26   H     H_    0.393458 0.007130 0.789089 0.192323
H27   H     H_    0.616663 0.166168 0.449244 0.258702
H28   H     H_    0.667914 0.083948 0.264083 0.163750
H29   H     H_    0.607499 0.988214 0.214185 0.196053
H30   H     H_    0.647617 0.951618 0.376502 0.145340
H31   H     H_    0.542993 0.314464 0.108205 0.163951
H32   H     H_    0.218333 0.610056 0.281898 0.147118
H33   H     H_    0.779480 0.414701 0.296199 0.140425
H34   H     H_    0.322498 0.603827 0.289982 0.186737
H35   H     H_    0.675458 0.409083 0.300929 0.158564
H36   H     H_    0.319814 0.448814 0.712320 0.189743
N1    N     N_R   0.851643 0.507745 0.489015 -0.393451
N2    N     N_R   0.148383 0.529547 0.483735 -0.389746
N3    N     N_3   0.500040 0.499970 0.858290 -0.304222
N4    N     N_3   0.499960 0.500030 0.141710 -0.304731
N5    N     N_2   0.208292 0.453123 0.738641 -0.482128
N6    N     N_2   0.794499 0.602605 0.727666 -0.478246
N7    N     N_2   0.405367 0.889962 0.619605 -0.497959
N8    N     N_2   0.594737 0.109326 0.379801 -0.503911
O1    O     O_R   0.500030 0.316850 0.620870 -0.483403
O2    O     O_2   0.152712 0.309907 0.493697 -0.429576
O3    O     O_2   0.853099 0.286760 0.501451 -0.488812
O4    O     O_2   0.147350 0.750477 0.472549 -0.496426
O5    O     O_2   0.547709 0.812101 0.062941 -0.562042
O6    O     O_R   0.608578 0.686764 0.191113 -0.639323
O7    O     O_2   0.455361 0.186433 0.940425 -0.548691
O8    O     O_R   0.392770 0.306997 0.812254 -0.695624
O9    O     O_2   0.624397 0.380565 0.857239 -0.510229
O10   O     O_R   0.653152 0.565025 0.952923 -0.692131
O11   O     O_2   0.357794 0.590526 0.050337 -0.564126
O12   O     O_R   0.499970 0.683150 0.379130 -0.502378
O13   O     O_R   0.365181 0.393342 0.148899 -0.668505
O14   O     O_2   0.053092 0.088388 0.568158 -0.463469
O15   O     O_R   0.088330 0.137731 0.352798 -0.643462
O16   O     O_2   0.945686 0.943224 0.547823 -0.463434
O17   O     O_R   0.910667 0.905351 0.327534 -0.645003
O18   O     O_R   0.500000 0.316860 0.379090 -0.482397
O19   O     O_R   0.500000 0.683140 0.620910 -0.494651
O20   O     O_R   0.417890 0.499960 0.620920 -0.469304
O21   O     O_R   0.582110 0.500040 0.379080 -0.467893
O22   O     O_R   0.417870 0.499970 0.379140 -0.476043
O23   O     O_R   0.582130 0.500030 0.620860 -0.478688
O24   O     O_2   0.846987 0.727275 0.473655 -0.426070

loop_
_geom_bond_atom_site_label_1
_geom_bond_atom_site_label_2
_ccdc_geom_bond_type
C26   N2    A    
C51   C53   A    
Cu1   Cu2   S    
C21   H31   S    
C25   N1    A    
C23   C45   A    
C41   O8    S    
C4    N6    S    
C27   C29   A    
C18   N4    S    
C22   N3    S    
C48   H20   S    
C10   H4    S    
C15   N8    S    
C5    N2    S    
C50   H28   S    
C14   N7    S    
H18   N6    S    
Cu1   O19   S    
C54   H36   S    
C29   C36   A    
C34   C51   A    
C33   C39   A    
C19   C21   S    
C42   O9    D    
C16   O20   A    
C3    C54   A    
C37   H12   S    
C28   N2    A    
C49   H25   S    
C16   O22   A    
C7    H5    S    
H11   O15   S    
C50   H29   S    
C51   H35   S    
C17   O23   A    
C7    C14   S    
C20   C24   S    
C44   O15   S    
C31   C33   A    
H14   N5    S    
C44   O14   D    
C21   C22   S    
C48   H19   S    
C43   O11   D    
C52   C54   A    
H8    O8    S    
Cu1   O20   S    
C47   H16   S    
Cu1   O23   S    
C32   C35   A    
C35   C38   A    
C47   H17   S    
Cu1   N3    S    
C36   H1    S    
C10   C14   S    
C45   C52   A    
C2    C53   A    
C6    C34   A    
C30   C37   A    
C9    H3    S    
Cu2   O22   S    
C49   H26   S    
C2    C4    A    
C38   C44   S    
C49   N7    S    
C12   O19   A    
C28   O4    S    
H10   O13   S    
C31   C32   A    
C5    C23   A    
C6    N1    S    
C48   H21   S    
H7    O6    S    
C45   H34   S    
C9    C11   S    
C47   H15   S    
C39   C46   S    
C4    C6    A    
C20   N3    S    
C8    C15   S    
C23   H32   S    
C13   C15   S    
C27   N1    A    
C1    C13   S    
C17   C53   S    
C12   O12   A    
C19   N3    S    
C40   O6    S    
C17   O21   A    
C7    C9    S    
C3    N5    S    
C41   O7    D    
C20   H23   S    
C18   C22   S    
Cu2   O18   S    
C8    C10   S    
C16   C52   S    
C3    C5    A    
C10   C13   S    
C11   C12   S    
C2    H2    S    
C21   N4    S    
C48   N6    S    
Cu1   O1    S    
C50   N8    S    
C47   N5    S    
C49   H24   S    
C46   O16   D    
H27   N8    S    
Cu2   O21   S    
C36   C38   A    
C19   C24   S    
C42   O10   S    
C34   H33   S    
C28   C30   A    
C29   C31   A    
C43   O13   S    
C30   C32   A    
H13   O17   S    
C22   C42   S    
C1    O1    A    
C8    C11   S    
C27   O3    S    
C11   C14   S    
C18   C20   S    
C1    O18   A    
Cu2   N4    S    
C25   O24   S    
H9    O10   S    
C50   H30   S    
C26   C35   A    
C7    C13   S    
C18   C40   S    
C46   O17   S    
C37   C39   A    
C8    H6    S    
H22   N7    S    
C24   C43   S    
C24   N4    S    
Cu2   O12   S    
C26   O2    S    
C19   C41   S    
C9    C15   S    
C25   C33   A    
C40   O5    D    
