data_mof_unit_63880.cif
_audit_creation_date              2012-12-10T18:02:17-0500
_audit_creation_method            fapswitch 2.2
_symmetry_space_group_name_H-M    P1
_symmetry_Int_Tables_number       1
_space_group_crystal_system       triclinic
_cell_length_a                    21.667479
_cell_length_b                    21.66727
_cell_length_c                    38.663207
_cell_angle_alpha                 90.01679
_cell_angle_beta                  90.002839
_cell_angle_gamma                 89.946393
_cell_volume                      18151.4049114

loop_
_atom_site_label
_atom_site_type_symbol
_atom_type_description
_atom_site_fract_x
_atom_site_fract_y
_atom_site_fract_z
_atom_type_partial_charge
C1    C     C_R   0.500019 0.880003 0.999992 0.866124
C2    C     C_R   0.686681 0.500004 0.000008 -0.043720
C3    C     C_R   0.217061 0.543733 0.019563 -0.263349
C4    C     C_R   0.456266 0.782929 0.980448 -0.264857
C5    C     C_R   0.217147 0.456201 0.980482 -0.263754
C6    C     C_R   0.543718 0.217048 0.980430 -0.263420
C7    C     C_R   0.782848 0.543808 0.980504 -0.272147
C8    C     C_R   0.043780 0.282864 0.519529 -0.263861
C9    C     C_R   0.282941 0.956263 0.519548 -0.265171
C10   C     C_R   0.956194 0.717161 0.519500 -0.272035
C11   C     C_R   0.717062 0.043742 0.519557 -0.264905
C12   C     C_R   0.956275 0.282930 0.480442 -0.263672
C13   C     C_R   0.499990 0.313318 0.999982 -0.043319
C14   C     C_R   0.717148 0.956188 0.480492 -0.272187
C15   C     C_R   0.043722 0.717048 0.480433 -0.265605
C16   C     C_R   0.282847 0.043812 0.480508 -0.271606
C17   C     C_R   0.544946 0.718990 0.019771 -0.024025
C18   C     C_R   0.719073 0.455074 0.019777 -0.025682
C19   C     C_R   0.455044 0.281031 0.019749 -0.023435
C20   C     C_R   0.280929 0.544928 0.019789 -0.021923
C21   C     C_R   0.455068 0.719061 0.980226 -0.025743
C22   C     C_R   0.281018 0.455048 0.980233 -0.023495
C23   C     C_R   0.544909 0.280916 0.980200 -0.021679
C24   C     C_R   0.313318 0.500001 0.000003 -0.043230
C25   C     C_R   0.718977 0.544963 0.980257 -0.024034
C26   C     C_R   0.044931 0.218992 0.519782 -0.023722
C27   C     C_R   0.219073 0.955069 0.519775 -0.022213
C28   C     C_R   0.955035 0.781032 0.519744 -0.024421
C29   C     C_R   0.780930 0.044936 0.519783 -0.025861
C30   C     C_R   0.955076 0.219062 0.480221 -0.021673
C31   C     C_R   0.781019 0.955035 0.480242 -0.023984
C32   C     C_R   0.044912 0.780917 0.480202 -0.022364
C33   C     C_R   0.218976 0.044967 0.480261 -0.024304
C34   C     C_2   0.457556 0.891536 0.821150 0.473607
C35   C     C_R   0.999991 0.186682 0.500009 -0.043690
C36   C     C_2   0.892146 0.453752 0.822605 0.445396
C37   C     C_2   0.542429 0.108520 0.821204 0.473534
C38   C     C_2   0.110028 0.540035 0.821366 0.473188
C39   C     C_2   0.455641 0.891296 0.177313 0.454985
C40   C     C_2   0.108412 0.542663 0.178834 0.473598
C41   C     C_2   0.538961 0.110334 0.178686 0.470303
C42   C     C_2   0.891570 0.457434 0.178816 0.473430
C43   C     C_2   0.957407 0.391589 0.321150 0.472367
C44   C     C_2   0.391124 0.954870 0.322754 0.445053
C45   C     C_2   0.042572 0.608458 0.321201 0.472503
C46   C     C_R   0.186680 0.000003 0.500009 -0.044056
C47   C     C_2   0.608596 0.045734 0.322739 0.430941
C48   C     C_2   0.961416 0.389445 0.678605 0.473269
C49   C     C_2   0.608332 0.042871 0.678836 0.473520
C50   C     C_2   0.044763 0.608479 0.677387 0.445474
C51   C     C_2   0.391652 0.957232 0.678821 0.473569
C52   C     C_2   0.594916 0.689733 0.040592 0.429498
C53   C     C_2   0.689905 0.405085 0.040575 0.438500
C54   C     C_2   0.405078 0.310313 0.040568 0.437369
C55   C     C_2   0.310101 0.594914 0.040605 0.435049
C56   C     C_2   0.405081 0.689879 0.959418 0.438585
C57   C     C_R   0.999988 0.813319 0.499981 -0.044331
C58   C     C_2   0.310286 0.405076 0.959407 0.437416
C59   C     C_2   0.594885 0.310074 0.959386 0.434663
C60   C     C_2   0.689705 0.594942 0.959453 0.429076
C61   C     C_2   0.094888 0.189735 0.540612 0.437774
C62   C     C_2   0.189906 0.905078 0.540571 0.433906
C63   C     C_2   0.905062 0.810313 0.540558 0.429252
C64   C     C_2   0.810102 0.094931 0.540593 0.438489
C65   C     C_2   0.905099 0.189880 0.459406 0.433738
C66   C     C_2   0.810286 0.905052 0.459423 0.428836
C67   C     C_2   0.094892 0.810074 0.459391 0.433316
C68   C     C_R   0.813319 0.000000 0.500004 -0.043872
C69   C     C_2   0.189704 0.094951 0.459461 0.429300
C70   C     C_R   0.500043 0.814120 0.999979 -0.002090
C71   C     C_R   0.814119 0.500045 0.000029 -0.002162
C72   C     C_R   0.499954 0.185879 0.999968 -0.002792
C73   C     C_R   0.880003 0.500019 0.000009 0.866245
C74   C     C_R   0.185880 0.499957 0.000026 -0.002852
C75   C     C_R   0.000041 0.314121 0.499979 -0.002882
C76   C     C_R   0.314119 0.000045 0.500029 -0.002308
C77   C     C_R   0.999953 0.685880 0.499968 -0.002381
C78   C     C_R   0.685881 0.999956 0.500027 -0.002026
C79   C     C_R   0.379603 0.500012 1.000000 1.059534
C80   C     C_R   0.499988 0.620397 0.000004 1.059649
C81   C     C_R   0.620397 0.499989 0.000001 1.059657
C82   C     C_R   0.500010 0.379603 0.999995 1.059562
C83   C     C_R   0.879603 0.000012 0.500000 1.060476
C84   C     C_R   0.499981 0.119996 0.999989 0.864002
C85   C     C_R   0.999988 0.120397 0.500004 1.060501
C86   C     C_R   0.120396 0.999988 0.500001 1.060867
C87   C     C_R   0.000010 0.879603 0.499995 1.061102
C88   C     C_R   0.499999 0.000000 0.932713 0.854358
C89   C     C_R   0.999966 0.499978 0.932712 0.855433
C90   C     C_R   0.499988 0.999996 0.067283 0.854735
C91   C     C_R   0.999999 0.500008 0.067287 0.854434
C92   C     C_R   0.999999 0.500000 0.432713 0.854567
C93   C     C_R   0.500033 0.999992 0.432711 0.860210
C94   C     C_R   0.000016 0.500036 0.567284 0.855362
C95   C     C_R   0.119997 0.499981 0.000010 0.864160
C96   C     C_R   0.499999 0.000008 0.567288 0.854664
C97   C     C_R   0.480194 0.947010 0.877106 0.080849
C98   C     C_R   0.947545 0.479894 0.877007 -0.020319
C99   C     C_R   0.519794 0.053019 0.877132 0.081134
C100  C     C_R   0.053811 0.518524 0.877208 0.078016
C101  C     C_R   0.480721 0.947218 0.122941 -0.019225
C102  C     C_R   0.052967 0.519917 0.122886 0.081065
C103  C     C_R   0.517931 0.053989 0.122809 0.079316
C104  C     C_R   0.947021 0.480150 0.122879 0.080813
C105  C     C_R   0.980126 0.447033 0.377105 0.080928
C106  C     C_R   0.000019 0.380004 0.499991 0.864054
C107  C     C_R   0.447085 0.980213 0.377093 -0.017215
C108  C     C_R   0.019861 0.552991 0.377130 0.080905
C109  C     C_R   0.552887 0.019877 0.377078 -0.017071
C110  C     C_R   0.982158 0.445958 0.622770 0.078130
C111  C     C_R   0.552931 0.020015 0.622889 0.080870
C112  C     C_R   0.019383 0.552722 0.622982 -0.020316
C113  C     C_R   0.447057 0.980055 0.622882 0.081087
C114  C     C_R   0.480166 0.946631 0.840699 0.010387
C115  C     C_R   0.947995 0.477875 0.840732 0.030369
C116  C     C_R   0.519820 0.053416 0.840725 0.010902
C117  C     C_R   0.380003 0.000019 0.500009 0.865961
C118  C     C_R   0.054663 0.517767 0.840786 -0.037842
C119  C     C_R   0.478919 0.947520 0.159217 0.023125
C120  C     C_R   0.053353 0.519955 0.159294 0.010644
C121  C     C_R   0.517374 0.054720 0.159234 -0.037188
C122  C     C_R   0.946632 0.480130 0.159286 0.010378
C123  C     C_R   0.980094 0.446653 0.340698 0.011153
C124  C     C_R   0.446953 0.979292 0.340787 -0.018601
C125  C     C_R   0.019889 0.553386 0.340723 0.010957
C126  C     C_R   0.552834 0.021181 0.340772 -0.010108
C127  C     C_R   0.982930 0.445110 0.659191 -0.037836
C128  C     C_R   0.999980 0.619996 0.499991 0.866327
C129  C     C_R   0.553316 0.020058 0.659296 0.010391
C130  C     C_R   0.021400 0.552305 0.659257 0.030401
C131  C     C_R   0.446670 0.980033 0.659289 0.010882
C132  C     C_R   0.499993 0.000028 0.822710 -0.166545
C133  C     C_R   0.001496 0.497495 0.822676 -0.117250
C134  C     C_R   0.497980 0.001203 0.177309 -0.119457
C135  C     C_R   0.999993 0.500043 0.177292 -0.166622
C136  C     C_R   0.999992 0.500023 0.322709 -0.166807
C137  C     C_R   0.499821 0.000390 0.322625 -0.071137
C138  C     C_R   0.002495 0.498543 0.677307 -0.117310
C139  C     C_R   0.619997 0.999981 0.500009 0.865690
C140  C     C_R   0.499993 0.000048 0.677294 -0.166534
C141  C     C_R   0.499995 0.000010 0.895021 -0.176927
C142  C     C_R   0.000347 0.499758 0.895023 -0.126446
C143  C     C_R   0.499810 0.000323 0.104965 -0.125432
C144  C     C_R   0.999995 0.500027 0.104981 -0.176987
C145  C     C_R   0.999995 0.500008 0.395020 -0.177135
C146  C     C_R   0.500015 0.999993 0.395025 -0.074884
C147  C     C_R   0.000221 0.499663 0.604966 -0.126104
C148  C     C_R   0.499996 0.000027 0.604982 -0.177049
C149  C     C_R   0.499996 0.000047 0.715155 0.219445
C150  C     C_R   0.499993 0.686681 0.000008 -0.043666
C151  C     C_R   0.002230 0.498299 0.715143 0.343668
C152  C     C_R   0.499582 0.000814 0.284829 0.463943
C153  C     C_R   0.999993 0.500030 0.284848 0.219709
C154  C     C_R   0.999995 0.500041 0.215152 0.219575
C155  C     C_R   0.498675 0.001204 0.215142 0.345930
C156  C     C_R   0.001729 0.497773 0.784839 0.343643
C157  C     C_R   0.499994 0.000035 0.784850 0.219459
C158  C     C_R   0.543795 0.782862 0.019519 -0.271950
C159  C     C_R   0.782941 0.456268 0.019551 -0.264971
C160  C     C_R   0.456203 0.217160 0.019506 -0.263700
H1    H     H_    0.577335 0.808656 0.034538 0.140996
H2    H     H_    0.308794 0.922722 0.534561 0.141868
H3    H     H_    0.922656 0.691385 0.534520 0.141025
H4    H     H_    0.691212 0.077285 0.534580 0.142126
H5    H     H_    0.922750 0.308773 0.465411 0.141836
H6    H     H_    0.691362 0.922639 0.465474 0.141425
H7    H     H_    0.077256 0.691187 0.465412 0.141917
H8    H     H_    0.308629 0.077359 0.465498 0.141620
H9    H     H_    0.495203 0.879042 0.912355 0.183452
H10   H     H_    0.421293 0.905282 0.910670 0.195797
H11   H     H_    0.903728 0.423307 0.910968 0.221454
H12   H     H_    0.808794 0.422730 0.034566 0.142086
H13   H     H_    0.878781 0.497684 0.911336 0.181392
H14   H     H_    0.504784 0.120969 0.912413 0.183992
H15   H     H_    0.578695 0.094734 0.910717 0.195206
H16   H     H_    0.095558 0.577660 0.910630 0.203875
H17   H     H_    0.121195 0.503579 0.912812 0.178087
H18   H     H_    0.424570 0.902865 0.088957 0.221214
H19   H     H_    0.499209 0.878749 0.088536 0.181418
H20   H     H_    0.120948 0.505005 0.087622 0.183854
H21   H     H_    0.094605 0.578880 0.089324 0.195393
H22   H     H_    0.576286 0.096550 0.089302 0.203185
H23   H     H_    0.422671 0.191384 0.034530 0.142891
H24   H     H_    0.501892 0.121280 0.087317 0.177858
H25   H     H_    0.879044 0.495044 0.087610 0.183502
H26   H     H_    0.905382 0.421168 0.089306 0.195766
H27   H     H_    0.995050 0.379049 0.412357 0.183504
H28   H     H_    0.921168 0.405373 0.410664 0.195401
H29   H     H_    0.404411 0.922222 0.410760 0.219896
H30   H     H_    0.378695 0.996316 0.411915 0.180839
H31   H     H_    0.004937 0.620959 0.412412 0.183465
H32   H     H_    0.078820 0.594641 0.410709 0.195468
H33   H     H_    0.595771 0.077546 0.410857 0.219671
H34   H     H_    0.191211 0.577268 0.034591 0.141856
H35   H     H_    0.621392 0.003413 0.411771 0.180566
H36   H     H_    0.923616 0.403528 0.589297 0.203347
H37   H     H_    0.997984 0.378746 0.587178 0.178040
H38   H     H_    0.620936 0.005218 0.587622 0.183392
H39   H     H_    0.594478 0.079053 0.589331 0.195997
H40   H     H_    0.075358 0.597191 0.588971 0.220973
H41   H     H_    0.000707 0.621274 0.588683 0.181324
H42   H     H_    0.379057 0.994831 0.587610 0.184035
H43   H     H_    0.405510 0.920995 0.589315 0.195335
H44   H     H_    0.443102 0.895914 0.794408 0.065938
H45   H     H_    0.422733 0.808772 0.965423 0.142103
H46   H     H_    0.847379 0.455770 0.835131 0.095108
H47   H     H_    0.556878 0.104156 0.794459 0.065748
H48   H     H_    0.105969 0.554334 0.794584 0.088445
H49   H     H_    0.458178 0.846600 0.164729 0.090323
H50   H     H_    0.104014 0.557114 0.205579 0.065800
H51   H     H_    0.553383 0.106416 0.205456 0.083880
H52   H     H_    0.895970 0.442965 0.205554 0.065810
H53   H     H_    0.942952 0.395989 0.294408 0.065894
H54   H     H_    0.346556 0.955938 0.335535 0.098101
H55   H     H_    0.057029 0.604070 0.294458 0.066070
H56   H     H_    0.191361 0.422662 0.965457 0.143024
H57   H     H_    0.653213 0.044552 0.335465 0.104162
H58   H     H_    0.947100 0.393297 0.705396 0.088443
H59   H     H_    0.603909 0.057302 0.705583 0.065951
H60   H     H_    0.042167 0.653208 0.664858 0.095057
H61   H     H_    0.396076 0.942797 0.705563 0.065757
H62   H     H_    0.618183 0.716567 0.060405 0.060042
H63   H     H_    0.716756 0.381854 0.060406 0.074773
H64   H     H_    0.381837 0.283514 0.060396 0.067540
H65   H     H_    0.283255 0.618142 0.060445 0.072147
H66   H     H_    0.381860 0.716712 0.939577 0.074855
H67   H     H_    0.577248 0.191187 0.965406 0.141809
H68   H     H_    0.283468 0.381819 0.939585 0.067637
H69   H     H_    0.618101 0.283216 0.939546 0.071840
H70   H     H_    0.716525 0.618217 0.939646 0.059813
H71   H     H_    0.118126 0.216562 0.560439 0.067674
H72   H     H_    0.216759 0.881838 0.560397 0.072052
H73   H     H_    0.881800 0.783506 0.560374 0.059790
H74   H     H_    0.783253 0.118175 0.560426 0.074833
H75   H     H_    0.881895 0.216709 0.439556 0.071588
H76   H     H_    0.783458 0.881765 0.439616 0.060189
H77   H     H_    0.118117 0.783212 0.439555 0.072137
H78   H     H_    0.808630 0.577351 0.965493 0.141095
H79   H     H_    0.216523 0.118230 0.439655 0.060791
H80   H     H_    0.077310 0.308658 0.534555 0.142923
N1    N     N_R   0.461686 0.038197 0.767197 -0.153970
N2    N     N_R   0.537879 0.962962 0.266948 -0.123454
N3    N     N_R   0.038241 0.461813 0.267181 -0.154772
N4    N     N_R   0.460873 0.038906 0.267404 -0.131886
N5    N     N_R   0.040618 0.460216 0.732797 -0.146740
N6    N     N_R   0.461701 0.038217 0.732822 -0.153973
N7    N     N_R   0.963575 0.536113 0.732810 -0.132135
N8    N     N_R   0.538290 0.961872 0.732808 -0.155716
N9    N     N_3   0.459822 0.893446 0.895816 -0.382977
N10   N     N_3   0.893006 0.461297 0.895437 -0.480492
N11   N     N_3   0.540165 0.106574 0.895869 -0.383489
N12   N     N_R   0.040351 0.459937 0.767169 -0.146758
N13   N     N_3   0.107299 0.538792 0.896027 -0.371646
N14   N     N_3   0.462698 0.892518 0.104466 -0.480095
N15   N     N_3   0.106496 0.540366 0.104168 -0.383379
N16   N     N_3   0.537400 0.107781 0.104011 -0.371909
N17   N     N_3   0.893491 0.459693 0.104153 -0.383044
N18   N     N_3   0.959688 0.393494 0.395815 -0.383684
N19   N     N_3   0.393042 0.960533 0.395626 -0.479245
N20   N     N_3   0.040298 0.606524 0.395865 -0.383582
N21   N     N_3   0.607029 0.039344 0.395599 -0.479864
N22   N     N_3   0.962564 0.392229 0.603937 -0.371814
N23   N     N_R   0.538304 0.961881 0.767183 -0.155712
N24   N     N_3   0.606428 0.040552 0.604171 -0.382979
N25   N     N_3   0.037298 0.607480 0.604547 -0.480627
N26   N     N_3   0.393561 0.959508 0.604157 -0.383413
N27   N     N_R   0.963362 0.535889 0.767188 -0.132149
N28   N     N_R   0.537458 0.963185 0.232571 -0.132572
N29   N     N_R   0.961761 0.538272 0.232820 -0.155583
N30   N     N_R   0.460406 0.039076 0.233031 -0.139344
N31   N     N_R   0.038227 0.461804 0.232806 -0.154619
N32   N     N_R   0.961745 0.538252 0.267195 -0.155527
O1    O     O_R   0.448370 0.908480 0.999910 -0.626838
O2    O     O_R   0.408480 0.051630 0.499910 -0.616206
O3    O     O_R   0.051630 0.591520 0.499910 -0.627035
O4    O     O_R   0.591520 0.948370 0.499910 -0.616568
O5    O     O_R   0.051630 0.408480 0.500090 -0.616803
O6    O     O_R   0.591520 0.051630 0.500090 -0.627082
O7    O     O_R   0.948370 0.591520 0.500090 -0.616479
O8    O     O_R   0.408480 0.948370 0.500090 -0.627205
O9    O     O_R   0.448370 0.000090 0.948970 -0.616192
O10   O     O_R   0.000090 0.551630 0.948970 -0.621824
O11   O     O_R   0.551630 0.999910 0.948970 -0.616625
O12   O     O_R   0.908480 0.551630 0.999910 -0.616448
O13   O     O_R   0.999910 0.448370 0.948970 -0.614423
O14   O     O_R   0.551630 0.000090 0.051030 -0.621534
O15   O     O_R   0.999910 0.551630 0.051030 -0.616599
O16   O     O_R   0.448370 0.999910 0.051030 -0.614221
O17   O     O_R   0.000090 0.448370 0.051030 -0.616309
O18   O     O_R   0.948370 0.500090 0.448970 -0.616532
O19   O     O_R   0.500090 0.051630 0.448970 -0.619210
O20   O     O_R   0.051630 0.499910 0.448970 -0.616527
O21   O     O_R   0.499910 0.948370 0.448970 -0.619281
O22   O     O_R   0.051630 0.500090 0.551030 -0.614292
O23   O     O_R   0.551630 0.091520 0.999910 -0.626535
O24   O     O_R   0.499910 0.051630 0.551030 -0.616163
O25   O     O_R   0.948370 0.499910 0.551030 -0.621565
O26   O     O_R   0.500090 0.948370 0.551030 -0.616710
O27   O     O_R   0.408360 0.500090 0.028640 -0.592622
O28   O     O_R   0.500090 0.591640 0.028640 -0.594753
O29   O     O_R   0.591640 0.499910 0.028640 -0.592005
O30   O     O_R   0.499910 0.408360 0.028640 -0.591625
O31   O     O_R   0.591640 0.500090 0.971360 -0.594986
O32   O     O_R   0.499910 0.591640 0.971360 -0.592135
O33   O     O_R   0.408360 0.499910 0.971360 -0.591591
O34   O     O_R   0.091520 0.448370 0.999910 -0.616552
O35   O     O_R   0.500090 0.408360 0.971360 -0.592648
O36   O     O_R   0.908360 0.000090 0.528640 -0.591930
O37   O     O_R   0.000090 0.091640 0.528640 -0.591319
O38   O     O_R   0.091640 0.999910 0.528640 -0.591824
O39   O     O_R   0.999910 0.908360 0.528640 -0.594827
O40   O     O_R   0.091640 0.000090 0.471360 -0.594953
O41   O     O_R   0.999910 0.091640 0.471360 -0.593408
O42   O     O_R   0.908360 0.999910 0.471360 -0.595041
O43   O     O_R   0.000090 0.908360 0.471360 -0.592654
O44   O     O_2   0.455364 0.840406 0.834348 -0.529111
O45   O     O_R   0.551630 0.908480 0.000090 -0.616529
O46   O     O_2   0.895470 0.429376 0.794192 -0.557536
O47   O     O_2   0.544627 0.159643 0.834427 -0.530015
O48   O     O_2   0.161036 0.542125 0.834726 -0.517077
O49   O     O_2   0.431387 0.894211 0.205768 -0.508862
O50   O     O_2   0.159534 0.544944 0.165625 -0.529646
O51   O     O_2   0.540342 0.161392 0.165367 -0.517011
O52   O     O_2   0.840442 0.455189 0.165609 -0.529059
O53   O     O_2   0.955151 0.340461 0.334347 -0.531338
O54   O     O_2   0.394268 0.931283 0.294128 -0.515822
O55   O     O_2   0.044824 0.659581 0.334421 -0.531097
O56   O     O_R   0.091520 0.551630 0.000090 -0.626523
O57   O     O_2   0.605356 0.069540 0.294181 -0.570075
O58   O     O_2   0.959980 0.338422 0.665228 -0.517155
O59   O     O_2   0.659448 0.045263 0.665626 -0.529166
O60   O     O_2   0.069145 0.605494 0.705805 -0.557558
O61   O     O_2   0.340533 0.954857 0.665610 -0.529934
O62   O     O_2   0.612681 0.637168 0.035323 -0.550898
O63   O     O_2   0.637404 0.387270 0.035267 -0.550845
O64   O     O_2   0.387285 0.362857 0.035280 -0.552441
O65   O     O_2   0.362601 0.612732 0.035302 -0.554736
O66   O     O_2   0.387256 0.637386 0.964730 -0.550789
O67   O     O_R   0.448370 0.091520 0.000090 -0.616606
O68   O     O_2   0.362842 0.387300 0.964683 -0.552373
O69   O     O_2   0.612709 0.362576 0.964691 -0.554947
O70   O     O_2   0.637145 0.612705 0.964729 -0.550998
O71   O     O_2   0.112675 0.137180 0.535336 -0.551692
O72   O     O_2   0.137401 0.887270 0.535266 -0.554815
O73   O     O_2   0.887288 0.862866 0.535279 -0.550968
O74   O     O_2   0.862607 0.112737 0.535293 -0.550701
O75   O     O_2   0.887261 0.137392 0.464721 -0.554938
O76   O     O_2   0.862853 0.887300 0.464688 -0.551093
O77   O     O_2   0.112709 0.862579 0.464692 -0.554640
O78   O     O_R   0.908480 0.448370 0.000090 -0.627005
O79   O     O_2   0.137144 0.112712 0.464739 -0.551781
O80   O     O_R   0.948370 0.408480 0.499910 -0.626443
Zn1   Zn    Zn3+2 0.431020 0.000000 0.000000 0.971706
Zn2   Zn    Zn3+2 0.500000 0.500000 0.961710 1.112969
Zn3   Zn    Zn3+2 0.000000 0.000000 0.538290 1.113260
Zn4   Zn    Zn3+2 0.000000 0.000000 0.461710 1.106227
Zn5   Zn    Zn3+2 1.000000 0.568980 0.000000 0.968232
Zn6   Zn    Zn3+2 0.568980 0.000000 0.000000 0.968280
Zn7   Zn    Zn3+2 1.000000 0.431020 0.000000 0.971265
Zn8   Zn    Zn3+2 0.931020 0.500000 0.500000 0.968330
Zn9   Zn    Zn3+2 0.500000 0.068980 0.500000 0.969379
Zn10  Zn    Zn3+2 0.068980 0.500000 0.500000 0.970777
Zn11  Zn    Zn3+2 0.500000 0.931020 0.500000 0.968308
Zn12  Zn    Zn3+2 0.500000 0.500000 0.038290 1.113441

loop_
_geom_bond_atom_site_label_1
_geom_bond_atom_site_label_2
_ccdc_geom_bond_type
C82   O35   A    
C51   O61   D    
C83   O42   A    
C89   O13   A    
C8    C26   A    
C91   O15   A    
C63   O73   D    
C15   C32   A    
H27   N18   S    
C52   H62   S    
C47   H57   S    
C80   O32   A    
C44   H54   S    
H35   N21   S    
C152  N4    A    
O16   Zn1   S    
O13   Zn7   S    
C102  N15   S    
H9    N9    S    
C5    C74   A    
C3    C74   A    
C18   C159  A    
O33   Zn2   S    
H19   N14   S    
O12   Zn5   S    
C1    O45   A    
C56   O66   D    
C25   C60   S    
O26   Zn11  S    
C128  O7    A    
C90   C143  S    
C33   C69   S    
O4    Zn11  S    
O35   Zn2   S    
C8    H80   S    
C29   C64   S    
C103  N16   S    
H41   N25   S    
C107  C124  A    
C17   C52   S    
C87   O39   A    
C159  H12   S    
H29   N19   S    
C124  C137  A    
C99   N11   S    
C99   C116  A    
C71   C73   S    
H36   N22   S    
C51   C131  S    
C97   N9    S    
O41   Zn4   S    
C13   C82   S    
H10   N9    S    
C103  C143  A    
O22   Zn10  S    
C79   O33   A    
H37   N22   S    
C29   C68   A    
C134  C155  S    
C64   O74   D    
C6    H67   S    
C36   H46   S    
H31   N20   S    
C69   H79   S    
C72   C84   S    
C27   C46   A    
C157  N23   A    
N5    N12   A    
O78   Zn7   S    
C62   H72   S    
C90   O16   A    
N4    N30   A    
C73   O12   A    
O40   Zn4   S    
C130  C138  A    
C12   H5    S    
C47   C126  S    
C91   O17   A    
C87   O43   A    
O17   Zn7   S    
C68   C83   S    
C99   C141  A    
C132  C157  S    
C81   O29   A    
C22   C58   S    
C138  C151  S    
C53   H63   S    
O32   Zn2   S    
C1    C70   S    
C120  C135  A    
C40   O50   D    
C111  C148  A    
C48   C127  S    
C151  N7    A    
C136  C153  S    
C73   O78   A    
C51   H61   S    
C45   H55   S    
C54   O64   D    
C28   C63   S    
C26   C35   A    
C47   O57   D    
C12   C75   A    
C92   O18   A    
C2    C81   S    
O24   Zn9   S    
C42   O52   D    
C105  N18   S    
C58   O68   D    
C14   C31   A    
C78   C139  S    
C37   C116  S    
C23   C59   S    
C39   H49   S    
C89   O10   A    
O31   Zn2   S    
C49   H59   S    
C19   C160  A    
O15   Zn5   S    
C113  C148  A    
O10   Zn5   S    
H14   N11   S    
C104  C122  A    
O56   Zn5   S    
C13   C23   A    
C107  N19   S    
C37   O47   D    
H16   N13   S    
C34   H44   S    
C90   O14   A    
C131  C140  A    
N2    N28   A    
C14   H6    S    
C18   C53   S    
N7    N27   A    
C98   C142  A    
C15   H7    S    
C102  C144  A    
C81   O31   A    
H20   N15   S    
O28   Zn12  S    
C119  C134  A    
C79   O27   A    
H39   N24   S    
C107  C146  A    
O18   Zn8   S    
C57   C87   S    
C128  O3    A    
C64   H74   S    
C27   C62   S    
C24   C79   S    
H15   N11   S    
C116  C132  A    
O14   Zn6   S    
C93   O21   A    
C93   C146  S    
H42   N26   S    
C32   C67   S    
C19   C54   S    
C127  C138  A    
C149  N8    A    
C153  N3    A    
C59   H69   S    
C43   C123  S    
C88   C141  S    
C155  N30   A    
C42   H52   S    
C16   C76   A    
H32   N20   S    
H43   N26   S    
C44   O54   D    
H18   N14   S    
O36   Zn3   S    
C112  C147  A    
C55   H65   S    
O80   Zn8   S    
O45   Zn6   S    
O2    Zn9   S    
C34   O44   D    
C35   C85   S    
C98   C115  A    
C15   C77   A    
C83   O36   A    
C39   C119  S    
H24   N16   S    
C111  N24   S    
C30   C65   S    
C109  C126  A    
H28   N18   S    
C60   O70   D    
C112  C130  A    
C97   C114  A    
C140  C149  S    
C82   O30   A    
C126  C137  A    
C10   H3    S    
C50   O60   D    
C133  C156  S    
C17   C150  A    
C4    C70   A    
C4    H45   S    
C48   H58   S    
O37   Zn3   S    
C6    C72   A    
C149  N6    A    
C135  C154  S    
C60   H70   S    
C32   C57   A    
C26   C61   S    
C117  O8    A    
C85   O41   A    
H26   N17   S    
C89   C142  S    
C40   H50   S    
C77   C128  S    
C113  N26   S    
C158  H1    S    
C111  C129  A    
C69   O79   D    
O30   Zn12  S    
C137  C152  S    
C9    C76   A    
C121  C134  A    
C160  H23   S    
O5    Zn10  S    
O29   Zn12  S    
O34   Zn7   S    
C33   C46   A    
C37   H47   S    
C31   C68   A    
C96   C148  S    
C13   C19   A    
O20   Zn10  S    
N1    N6    A    
O42   Zn4   S    
C84   O23   A    
C85   O37   A    
C115  C133  A    
C67   H77   S    
C106  O80   A    
C70   C158  A    
C80   C150  S    
C55   O65   D    
C45   O55   D    
C54   H64   S    
C7    H78   S    
C105  C145  A    
C3    C20   A    
C41   O51   D    
O8    Zn11  S    
C96   O26   A    
C97   C141  A    
C125  C136  A    
H25   N17   S    
C40   C120  S    
C92   O20   A    
C22   C24   A    
O38   Zn3   S    
C153  N32   A    
C100  C118  A    
C109  N21   S    
C154  N31   A    
C102  C120  A    
C9    C27   A    
O23   Zn6   S    
C98   N10   S    
C108  C145  A    
C10   C28   A    
C61   O71   D    
C12   C30   A    
H30   N19   S    
C65   H75   S    
C117  O2    A    
C151  N5    A    
C21   C56   S    
C156  N12   A    
O6    Zn9   S    
C76   C117  S    
C7    C25   A    
O25   Zn8   S    
C94   O22   A    
C101  N14   S    
C43   O53   D    
H38   N24   S    
C39   O49   D    
C50   H60   S    
C61   H71   S    
C44   C124  S    
C2    C25   A    
C38   O48   D    
O27   Zn12  S    
N3    N31   A    
C122  C135  A    
C38   C118  S    
O3    Zn10  S    
C48   O58   D    
C75   C106  S    
N29   N32   A    
O39   Zn3   S    
C62   O72   D    
C95   O56   A    
C31   C66   S    
C59   O69   D    
C2    C18   A    
C139  O6    A    
C109  C146  A    
C88   O9    A    
C28   C57   A    
C86   O40   A    
C156  N27   A    
H11   N10   S    
C38   H48   S    
C30   C35   A    
O21   Zn11  S    
C7    C71   A    
C36   O46   D    
C41   C121  S    
C65   O75   D    
C157  N1    A    
C50   C130  S    
C5    C22   A    
C20   C24   A    
C45   C125  S    
C104  C144  A    
C108  C125  A    
C154  N29   A    
H21   N15   S    
C95   O34   A    
C1    O1    A    
C110  C127  A    
N8    N23   A    
C84   O67   A    
O43   Zn4   S    
C20   C55   S    
C10   C77   A    
C3    H34   S    
C93   O19   A    
C101  C119  A    
C67   O77   D    
C5    H56   S    
C49   C129  S    
C8    C75   A    
H33   N21   S    
C66   H76   S    
C71   C159  A    
C96   O24   A    
C152  N2    A    
O19   Zn9   S    
C11   C78   A    
C16   C33   A    
C63   H73   S    
O7    Zn8   S    
C21   C150  A    
C17   C158  A    
C118  C133  A    
O9    Zn1   S    
H40   N25   S    
C139  O4    A    
C108  N20   S    
C110  C147  A    
C43   H53   S    
C88   O11   A    
C58   H68   S    
C42   C122  S    
C91   C144  S    
C94   C147  S    
C86   O38   A    
C113  C131  A    
C53   O63   D    
C92   C145  S    
C114  C132  A    
C74   C95   S    
C49   O59   D    
H13   N10   S    
C34   C114  S    
H17   N13   S    
O11   Zn6   S    
C72   C160  A    
C56   H66   S    
C123  C136  A    
C106  O5    A    
C100  C142  A    
C4    C21   A    
C101  C143  A    
C129  C140  A    
O1    Zn1   S    
C16   H8    S    
C52   O62   D    
C6    C23   A    
C112  N25   S    
C11   H4    S    
C155  N28   A    
C104  N17   S    
C14   C78   A    
C94   O25   A    
C9    H2    S    
C110  N22   S    
C80   O28   A    
C41   H51   S    
C11   C29   A    
O67   Zn1   S    
C66   O76   D    
C105  C123  A    
C36   C115  S    
H22   N16   S    
C100  N13   S    
C46   C86   S    
C103  C121  A    
