data_mof_unit_34242.cif
_audit_creation_date              2012-10-26T20:55:51-0400
_audit_creation_method            fapswitch 2.2
_symmetry_space_group_name_H-M    P1
_symmetry_Int_Tables_number       1
_space_group_crystal_system       triclinic
_cell_length_a                    10.899349
_cell_length_b                    16.1483
_cell_length_c                    17.238902
_cell_angle_alpha                 97.100381
_cell_angle_beta                  90.812403
_cell_angle_gamma                 91.146054
_cell_volume                      3009.85463077

loop_
_atom_site_label
_atom_site_type_symbol
_atom_type_description
_atom_site_fract_x
_atom_site_fract_y
_atom_site_fract_z
_atom_type_partial_charge
C1    C     C_R   0.506754 0.488480 0.350229 0.527817
C2    C     C_R   0.605676 0.501564 0.772915 -0.116521
C3    C     C_R   0.465362 0.519262 0.142085 -0.107934
C4    C     C_R   0.606599 0.489649 0.851001 -0.103718
C5    C     C_R   0.572651 0.486881 0.107865 0.052451
C6    C     C_R   0.497728 0.494343 0.893333 0.055590
C7    C     C_R   0.659686 0.448328 0.152700 0.051119
C8    C     C_R   0.386652 0.515269 0.857366 0.043784
C9    C     C_R   0.636941 0.444643 0.233339 0.025869
C10   C     C_R   0.384832 0.522872 0.776408 0.028997
C11   C     C_2   0.589762 0.495633 0.024915 -0.134558
C12   C     C_R   0.498711 0.510978 0.649988 0.541781
C13   C     C_2   0.498706 0.472251 0.973536 -0.125344
C14   C     C_R   0.584821 0.736219 0.451721 -0.000312
C15   C     C_R   0.492638 0.257348 0.559665 0.013332
C16   C     C_R   0.262834 0.501335 0.501408 0.538003
C17   C     C_R   0.737218 0.498556 0.498127 0.521642
C18   C     C_R   0.588897 0.818774 0.435463 0.140217
C19   C     C_R   0.512454 0.172954 0.564825 0.178451
C20   C     C_R   0.511522 0.877568 0.476295 -0.060666
C21   C     C_R   0.536831 0.118891 0.495675 -0.050361
C22   C     C_R   0.434602 0.851067 0.534655 0.180984
C23   C     C_R   0.871358 0.495617 0.494034 0.003014
C24   C     C_R   0.530428 0.152885 0.423528 0.177608
C25   C     C_R   0.450049 0.769683 0.557238 0.330892
C26   C     C_R   0.484517 0.234105 0.422069 0.375467
C27   C     C_2   0.505980 0.964992 0.456550 0.050483
C28   C     C_2   0.566322 0.029055 0.499528 0.023020
C29   C     C_R   0.152236 0.781342 0.424385 -0.068080
C30   C     C_R   0.826815 0.214865 0.541861 -0.122503
C31   C     C_R   0.105272 0.715384 0.461171 -0.053790
C32   C     C_R   0.864571 0.287236 0.511382 -0.069202
C33   C     C_R   0.128692 0.632337 0.431219 0.050265
C34   C     C_R   0.128766 0.503569 0.503478 0.019237
C35   C     C_R   0.872203 0.363779 0.559855 0.058153
C36   C     C_R   0.201691 0.616704 0.364823 -0.068654
C37   C     C_R   0.837095 0.367778 0.638117 -0.096686
C38   C     C_R   0.252704 0.683314 0.330236 -0.098873
C39   C     C_R   0.799719 0.295236 0.668483 -0.084918
C40   C     C_R   0.227759 0.765437 0.359934 -0.090848
C41   C     C_R   0.796879 0.218627 0.620717 -0.079128
C42   C     C_R   0.936113 0.555659 0.456349 -0.046433
C43   C     C_R   0.063828 0.442295 0.539821 -0.027789
C44   C     C_3   0.773403 0.409924 0.115074 -0.379021
C45   C     C_R   0.935631 0.436061 0.531455 -0.025082
C46   C     C_3   0.270081 0.529541 0.903954 -0.388820
C47   C     C_3   0.871002 0.609059 0.402220 -0.353296
C48   C     C_3   0.127942 0.383393 0.589552 -0.348497
C49   C     C_3   0.264052 0.535993 0.735772 -0.351224
C50   C     C_3   0.725155 0.402904 0.284537 -0.350010
C51   C     C_R   0.064594 0.562561 0.464532 -0.020572
C52   C     C_R   0.528996 0.481048 0.266418 0.054747
C53   C     C_R   0.495924 0.515592 0.734763 0.075701
C54   C     C_R   0.443673 0.515570 0.220025 -0.123419
Cu1   Cu    Cu3+1 0.493640 0.415410 0.495980 1.012400
Cu2   Cu    Cu3+1 0.506360 0.584590 0.504020 1.024759
H1    H     H_    0.265496 0.816729 0.332293 0.157896
H2    H     H_    0.823468 0.155588 0.504872 0.167323
H3    H     H_    0.046980 0.728789 0.511333 0.149071
H4    H     H_    0.892587 0.283216 0.451019 0.137471
H5    H     H_    0.217344 0.553042 0.340008 0.096790
H6    H     H_    0.846635 0.425908 0.676394 0.092144
H7    H     H_    0.309455 0.672100 0.279352 0.125443
H8    H     H_    0.776431 0.298060 0.729553 0.154775
H9    H     H_    0.359328 0.539666 0.244169 0.091868
H10   H     H_    0.690340 0.496011 0.741012 0.098787
H11   H     H_    0.418447 0.439990 0.992951 0.142509
H12   H     H_    0.771675 0.162053 0.644761 0.187004
H13   H     H_    0.672155 0.527209 0.007879 0.133163
H14   H     H_    0.777885 0.413777 0.051488 0.132786
H15   H     H_    0.856663 0.442365 0.142770 0.126927
H16   H     H_    0.775307 0.342586 0.122318 0.167992
H17   H     H_    0.285813 0.536300 0.968019 0.125105
H18   H     H_    0.228044 0.588840 0.892216 0.152053
H19   H     H_    0.203710 0.477081 0.887455 0.133533
H20   H     H_    0.242394 0.333604 0.319077 0.348272
H21   H     H_    0.586331 0.764277 0.700483 0.336290
H22   H     H_    0.213003 0.021900 0.542933 0.388111
H23   H     H_    0.692130 0.473340 0.877371 0.111587
H24   H     H_    0.771547 0.040280 0.315349 0.406900
H25   H     H_    0.566592 0.048160 0.728148 0.397329
H26   H     H_    0.847461 0.868433 0.439600 0.329820
H27   H     H_    0.857762 0.672629 0.433062 0.153652
H28   H     H_    0.925103 0.613596 0.348766 0.151435
H29   H     H_    0.781223 0.582444 0.380015 0.142831
H30   H     H_    0.078079 0.379312 0.644530 0.120775
H31   H     H_    0.132435 0.320113 0.556328 0.179277
H32   H     H_    0.220945 0.404214 0.610392 0.147057
H33   H     H_    0.272320 0.534414 0.671889 0.158444
H34   H     H_    0.398140 0.548793 0.108259 0.119001
H35   H     H_    0.196982 0.486077 0.746080 0.102012
H36   H     H_    0.226874 0.597506 0.758678 0.188416
H37   H     H_    0.810393 0.381409 0.255220 0.128001
H38   H     H_    0.753493 0.446705 0.336178 0.102300
H39   H     H_    0.679911 0.347747 0.305049 0.214130
H40   H     H_    0.636992 0.690193 0.416637 0.182128
H41   H     H_    0.480847 0.297624 0.613228 0.197164
H42   H     H_    0.633074 0.014515 0.542580 0.183207
H43   H     H_    0.438094 0.977691 0.413227 0.204985
H44   H     H_    0.129160 0.844896 0.445323 0.194941
N1    N     N_R   0.515930 0.711660 0.510070 -0.294289
N2    N     N_R   0.484070 0.288340 0.489930 -0.295103
O1    O     O_R   0.494030 0.420280 0.382610 -0.437443
O2    O     O_2   0.326297 0.170634 0.308748 -0.221073
O3    O     O_3   0.281092 0.320907 0.368462 -0.504613
O4    O     O_2   0.350129 0.819468 0.702072 -0.175711
O5    O     O_2   0.307402 0.678517 0.640465 -0.269956
O6    O     O_3   0.525368 0.718002 0.700794 -0.495359
O7    O     O_2   0.203551 0.862912 0.589704 -0.258831
O8    O     O_2   0.356591 0.964649 0.648564 -0.152447
O9    O     O_3   0.267399 0.982669 0.511792 -0.565638
O10   O     O_2   0.511126 0.043239 0.292941 -0.187744
O11   O     O_2   0.641811 0.167275 0.287310 -0.255159
O12   O     O_R   0.505970 0.579720 0.617390 -0.399086
O13   O     O_3   0.724653 0.052547 0.364079 -0.483515
O14   O     O_2   0.550772 0.211456 0.719091 -0.323414
O15   O     O_2   0.366364 0.130703 0.676048 -0.206210
O16   O     O_3   0.575047 0.054654 0.672075 -0.531773
O17   O     O_2   0.741558 0.766783 0.318117 -0.308801
O18   O     O_2   0.622486 0.890778 0.305323 -0.171178
O19   O     O_3   0.806150 0.903907 0.404663 -0.472493
O20   O     O_R   0.504770 0.563150 0.389400 -0.536060
O21   O     O_R   0.495230 0.436850 0.610600 -0.551680
O22   O     O_R   0.314270 0.428570 0.496610 -0.462159
O23   O     O_R   0.685730 0.571430 0.503390 -0.520352
O24   O     O_R   0.325020 0.571440 0.503400 -0.467349
O25   O     O_R   0.674980 0.428560 0.496600 -0.509604
O26   O     O_2   0.464532 0.281974 0.277423 -0.256342
S1    S     S_3+6 0.389570 0.251393 0.340986 0.099681
S2    S     S_3+6 0.402812 0.747180 0.651258 0.101912
S3    S     S_3+6 0.312958 0.915780 0.573357 0.048220
S4    S     S_3+6 0.600558 0.103325 0.338293 0.064035
S5    S     S_3+6 0.500336 0.142334 0.660126 0.007191
S6    S     S_3+6 0.689853 0.844146 0.362183 0.022113

loop_
_geom_bond_atom_site_label_1
_geom_bond_atom_site_label_2
_ccdc_geom_bond_type
C38   C40   A    
Cu1   Cu2   S    
H20   O3    S    
C23   C45   A    
O11   S4    D    
C22   S3    S    
C14   C18   A    
O15   S5    D    
O26   S1    D    
C37   H6    S    
C39   C41   A    
C54   H9    S    
C15   C19   A    
C39   H8    S    
Cu1   N2    S    
C27   H43   S    
C34   C51   A    
C17   C23   S    
C23   C42   A    
C3    H34   S    
C47   H29   S    
C35   C37   A    
C49   H35   S    
Cu2   N1    S    
C5    C11   S    
C8    C10   A    
C3    C54   A    
C50   H39   S    
Cu1   O1    S    
C33   C36   A    
C44   H15   S    
O4    S2    D    
C31   H3    S    
C10   C53   A    
C1    O20   A    
C16   C34   S    
C22   C25   A    
O7    S3    D    
C48   H32   S    
C30   C41   A    
C44   H14   S    
H22   O9    S    
C47   H27   S    
O19   S6    S    
C43   C48   S    
C1    O1    A    
H26   O19   S    
O6    S2    S    
C12   C53   S    
C42   C51   A    
O16   S5    S    
C9    C52   A    
C15   H41   S    
O5    S2    D    
C25   S2    S    
C14   H40   S    
C46   H19   S    
C52   C54   A    
C41   H12   S    
C12   O12   A    
O13   S4    S    
Cu1   O21   S    
O17   S6    D    
C34   C43   A    
C32   C35   A    
C4    H23   S    
C4    C6    A    
C5    C7    A    
C17   O25   A    
C14   N1    A    
C6    C8    A    
O14   S5    D    
C2    H10   S    
C7    C44   S    
H25   O16   S    
Cu2   O20   S    
C2    C4    A    
C17   O23   A    
C24   S4    S    
H24   O13   S    
C31   C33   A    
C48   H31   S    
O8    S3    D    
C47   H28   S    
O10   S4    D    
C43   C45   A    
C26   S1    S    
O9    S3    S    
C21   C28   S    
C20   C22   A    
Cu2   O24   S    
O2    S1    D    
C48   H30   S    
C33   C51   S    
C32   H4    S    
C49   H36   S    
C36   H5    S    
C35   C45   S    
C46   H18   S    
C38   H7    S    
C13   H11   S    
C28   H42   S    
C7    C9    A    
Cu1   O22   S    
C40   H1    S    
C29   H44   S    
C19   C21   A    
H21   O6    S    
C50   H38   S    
C9    C50   S    
C24   C26   A    
C49   H33   S    
C3    C5    A    
C2    C53   A    
Cu1   O25   S    
C18   C20   A    
O3    S1    S    
C11   H13   S    
C50   H37   S    
C20   C27   S    
C19   S5    S    
C36   C38   A    
C16   O22   A    
C29   C31   A    
C26   N2    A    
C6    C13   S    
C30   C32   A    
C11   C13   D    
C25   N1    A    
C12   O21   A    
C30   H2    S    
C29   C40   A    
C44   H16   S    
C18   S6    S    
O18   S6    D    
C42   C47   S    
C15   N2    A    
C1    C52   S    
C8    C46   S    
C37   C39   A    
C21   C24   A    
C27   C28   D    
Cu2   O12   S    
C10   C49   S    
C16   O24   A    
Cu2   O23   S    
C46   H17   S    
