data_mof_unit_24435.cif
_audit_creation_date              2012-12-11T14:40:42-0500
_audit_creation_method            fapswitch 2.2
_symmetry_space_group_name_H-M    P1
_symmetry_Int_Tables_number       1
_space_group_crystal_system       triclinic
_cell_length_a                    24.647628
_cell_length_b                    17.517664
_cell_length_c                    15.608802
_cell_angle_alpha                 89.653048
_cell_angle_beta                  129.443988
_cell_angle_gamma                 90.459003
_cell_volume                      5204.2998248

loop_
_atom_site_label
_atom_site_type_symbol
_atom_type_description
_atom_site_fract_x
_atom_site_fract_y
_atom_site_fract_z
_atom_type_partial_charge
C1    C     C_R   0.343351 0.368714 0.223197 -0.171520
C2    C     C_R   0.689054 0.608987 0.507146 -0.007612
C3    C     C_R   0.185005 0.882603 0.504781 0.022404
C4    C     C_R   0.189051 0.108996 0.507143 -0.007437
C5    C     C_R   0.353738 0.322234 0.501920 0.014227
C6    C     C_R   0.344759 0.666877 0.500566 0.032732
C7    C     C_R   0.853754 0.822218 0.501929 0.014153
C8    C     C_R   0.844856 0.167011 0.500557 0.032515
C9    C     C_3   0.360383 0.205697 0.599642 -0.470747
C10   C     C_3   0.344582 0.801721 0.543875 -0.482290
C11   C     C_3   0.860390 0.705726 0.599729 -0.470717
C12   C     C_R   0.346152 0.634940 0.229836 -0.162447
C13   C     C_3   0.844770 0.301805 0.544267 -0.482206
C14   C     C_3   0.816296 0.655182 0.616437 0.051591
C15   C     C_3   0.801029 0.364208 0.545241 0.067802
C16   C     C_3   0.316302 0.155142 0.616368 0.051664
C17   C     C_3   0.300854 0.864143 0.544833 0.067798
C18   C     C_3   0.260225 0.302727 0.514290 0.082356
C19   C     C_3   0.288297 0.699469 0.580398 0.090679
C20   C     C_3   0.760178 0.802716 0.514162 0.082329
C21   C     C_3   0.788177 0.199461 0.580067 0.090653
C22   C     C_3   0.268957 0.214537 0.394727 -0.408816
C23   C     C_R   0.843345 0.868724 0.223183 -0.171540
C24   C     C_3   0.233075 0.737818 0.382923 -0.385806
C25   C     C_3   0.769030 0.714461 0.394792 -0.408793
C26   C     C_3   0.733281 0.238170 0.382850 -0.385873
C27   C     C_3   0.311679 0.262889 0.502295 0.246960
C28   C     C_3   0.303229 0.724988 0.501547 0.235850
C29   C     C_3   0.811692 0.762871 0.502303 0.246983
C30   C     C_3   0.803325 0.225134 0.501536 0.235902
C31   C     C_3   0.736892 0.661945 0.509870 0.241126
C32   C     C_3   0.730209 0.328487 0.505004 0.245731
C33   C     C_3   0.236884 0.161958 0.509861 0.241065
C34   C     C_R   0.846127 0.134903 0.229765 -0.162544
C35   C     C_3   0.230143 0.828381 0.504994 0.245735
C36   C     C_3   0.710958 0.743271 0.504538 -0.396835
C37   C     C_3   0.743916 0.259639 0.579907 -0.420789
C38   C     C_3   0.210994 0.243287 0.504647 -0.396896
C39   C     C_3   0.244054 0.759673 0.580238 -0.420885
C40   C     C_R   0.666607 0.390887 0.798098 -0.117331
C41   C     C_R   0.666667 0.609471 0.797884 -0.106377
C42   C     C_R   0.166608 0.890889 0.798100 -0.117319
C43   C     C_R   0.166667 0.109467 0.797887 -0.106407
C44   C     C_3   0.731496 0.649463 0.405422 -0.430957
C45   C     C_R   0.646025 0.370521 0.859756 0.150297
C46   C     C_3   0.690425 0.298117 0.384904 -0.425824
C47   C     C_3   0.231427 0.149532 0.405348 -0.430965
C48   C     C_3   0.190228 0.797777 0.384971 -0.425722
C49   C     C_2   0.691437 0.340961 0.972837 -0.203244
C50   C     C_2   0.691042 0.659640 0.971652 -0.200422
C51   C     C_2   0.191439 0.840970 0.972845 -0.203256
C52   C     C_2   0.191046 0.159629 0.971661 -0.200445
C53   C     C_2   0.761003 0.341285 0.032577 -0.106388
C54   C     C_2   0.760522 0.660098 0.031483 -0.101726
C55   C     C_2   0.261006 0.841300 0.032592 -0.106355
C56   C     C_R   0.645926 0.629753 0.859086 0.145893
C57   C     C_2   0.260526 0.160090 0.031491 -0.101715
C58   C     C_2   0.347273 0.742844 0.123495 -0.139447
C59   C     C_2   0.342834 0.263043 0.114227 -0.134430
C60   C     C_2   0.847240 0.242796 0.123408 -0.139452
C61   C     C_2   0.842823 0.763058 0.114204 -0.134436
C62   C     C_2   0.302088 0.786163 0.121299 -0.125080
C63   C     C_2   0.300850 0.216902 0.117440 -0.133252
C64   C     C_2   0.802081 0.286131 0.121258 -0.125097
C65   C     C_2   0.800846 0.716913 0.117427 -0.133284
C66   C     C_R   0.618467 0.402518 0.412102 -0.122706
C67   C     C_R   0.146027 0.870524 0.859760 0.150304
C68   C     C_R   0.620169 0.595731 0.413366 -0.094927
C69   C     C_R   0.118456 0.902495 0.412096 -0.122829
C70   C     C_R   0.120168 0.095732 0.413365 -0.094914
C71   C     C_R   0.407324 0.363394 0.594173 -0.106495
C72   C     C_R   0.404184 0.633023 0.593717 -0.100405
C73   C     C_R   0.907331 0.863390 0.594177 -0.106533
C74   C     C_R   0.904237 0.133092 0.593710 -0.100496
C75   C     C_R   0.689415 0.397832 0.594894 -0.106475
C76   C     C_R   0.691019 0.596779 0.595339 -0.089080
C77   C     C_R   0.189409 0.897820 0.594893 -0.106432
C78   C     C_R   0.145929 0.129746 0.859092 0.145905
C79   C     C_R   0.191017 0.096789 0.595338 -0.089180
C80   C     C_R   0.332689 0.361845 0.408675 -0.066236
C81   C     C_R   0.325718 0.629276 0.407629 -0.084973
C82   C     C_R   0.832704 0.861828 0.408682 -0.066171
C83   C     C_R   0.825786 0.129370 0.407626 -0.084662
C84   C     C_R   0.576512 0.391204 0.800166 -0.146212
C85   C     C_R   0.576336 0.608889 0.799554 -0.144017
C86   C     C_R   0.076513 0.891206 0.800168 -0.146226
C87   C     C_R   0.076339 0.108884 0.799560 -0.144036
C88   C     C_R   0.433438 0.368258 0.221298 0.205575
C89   C     C_R   0.685028 0.382651 0.504788 0.022250
C90   C     C_R   0.435573 0.635177 0.226054 0.207750
C91   C     C_R   0.933433 0.868265 0.221285 0.205551
C92   C     C_R   0.935560 0.135155 0.226018 0.207766
C93   C     C_R   0.372050 0.331091 0.182991 0.077934
C94   C     C_R   0.375818 0.673998 0.191384 0.076930
C95   C     C_R   0.872042 0.831103 0.182971 0.077941
C96   C     C_R   0.875789 0.173956 0.191306 0.076947
H1    H     H_    0.290837 0.361291 0.194912 0.117479
H2    H     H_    0.789461 0.410405 0.486515 0.109908
H3    H     H_    0.333236 0.094825 0.627043 0.153067
H4    H     H_    0.289140 0.910235 0.485885 0.109916
H5    H     H_    0.291547 0.329935 0.597561 0.152072
H6    H     H_    0.338720 0.694755 0.666634 0.115928
H7    H     H_    0.791455 0.829982 0.597390 0.152065
H8    H     H_    0.838525 0.194596 0.666362 0.115965
H9    H     H_    0.707558 0.752871 0.571398 0.189043
H10   H     H_    0.772199 0.277904 0.667064 0.173853
H11   H     H_    0.207632 0.252851 0.571554 0.189029
H12   H     H_    0.295106 0.644590 0.205900 0.110756
H13   H     H_    0.272437 0.778091 0.667364 0.173879
H14   H     H_    0.728896 0.749835 0.321475 0.190471
H15   H     H_    0.701905 0.184473 0.348069 0.206069
H16   H     H_    0.228815 0.249951 0.321469 0.190501
H17   H     H_    0.201777 0.684056 0.348417 0.206186
H18   H     H_    0.303917 0.190514 0.379664 0.165604
H19   H     H_    0.243430 0.757396 0.326402 0.154055
H20   H     H_    0.804033 0.690426 0.379823 0.165603
H21   H     H_    0.743792 0.257831 0.326550 0.154074
H22   H     H_    0.676415 0.648800 0.327084 0.191859
H23   H     H_    0.790829 0.861307 0.194891 0.117511
H24   H     H_    0.638971 0.272329 0.352028 0.212509
H25   H     H_    0.176334 0.148912 0.327041 0.191896
H26   H     H_    0.138849 0.771950 0.352404 0.212486
H27   H     H_    0.718920 0.390363 0.823815 0.096995
H28   H     H_    0.719017 0.610492 0.823656 0.111950
H29   H     H_    0.218921 0.890366 0.823819 0.096953
H30   H     H_    0.219018 0.110486 0.823660 0.111917
H31   H     H_    0.656714 0.750022 0.424671 0.208444
H32   H     H_    0.692824 0.234843 0.549900 0.200032
H33   H     H_    0.156742 0.250082 0.424812 0.208441
H34   H     H_    0.795060 0.144524 0.205766 0.110810
H35   H     H_    0.193034 0.734847 0.550515 0.199993
H36   H     H_    0.287382 0.773003 0.172284 0.129049
H37   H     H_    0.288035 0.228520 0.171113 0.131274
H38   H     H_    0.787392 0.272978 0.172269 0.129045
H39   H     H_    0.788035 0.728529 0.171107 0.131283
H40   H     H_    0.785858 0.370187 0.003735 0.139621
H41   H     H_    0.785550 0.631391 0.003385 0.144513
H42   H     H_    0.285861 0.870199 0.003747 0.139596
H43   H     H_    0.285554 0.131385 0.003389 0.144509
H44   H     H_    0.360803 0.756600 0.071090 0.169270
H45   H     H_    0.388052 0.168891 0.580419 0.177381
H46   H     H_    0.354637 0.250980 0.059379 0.181071
H47   H     H_    0.860754 0.256544 0.070981 0.169282
H48   H     H_    0.854622 0.750996 0.059350 0.181092
H49   H     H_    0.667273 0.311192 0.002477 0.145149
H50   H     H_    0.666735 0.689477 0.000416 0.146578
H51   H     H_    0.167274 0.811206 0.002488 0.145125
H52   H     H_    0.166739 0.189464 0.000428 0.146572
H53   H     H_    0.602674 0.413104 0.331296 0.140172
H54   H     H_    0.603854 0.584171 0.332588 0.137144
H55   H     H_    0.102667 0.913076 0.331293 0.140184
H56   H     H_    0.356721 0.820202 0.489283 0.172323
H57   H     H_    0.103856 0.084153 0.332593 0.137141
H58   H     H_    0.432040 0.353786 0.680258 0.108369
H59   H     H_    0.430666 0.645128 0.679895 0.100049
H60   H     H_    0.932047 0.853790 0.680263 0.108363
H61   H     H_    0.930715 0.145212 0.679884 0.100040
H62   H     H_    0.734614 0.394093 0.681816 0.132179
H63   H     H_    0.736634 0.588567 0.680451 0.147199
H64   H     H_    0.234623 0.894117 0.681812 0.132071
H65   H     H_    0.236629 0.088597 0.680455 0.147223
H66   H     H_    0.286377 0.351669 0.324650 0.103523
H67   H     H_    0.888104 0.668909 0.580600 0.177327
H68   H     H_    0.278062 0.634310 0.323177 0.093241
H69   H     H_    0.786401 0.851636 0.324657 0.103553
H70   H     H_    0.778141 0.134444 0.323174 0.093206
H71   H     H_    0.547870 0.392405 0.831235 0.114302
H72   H     H_    0.547439 0.607670 0.830208 0.112135
H73   H     H_    0.047872 0.892409 0.831238 0.114290
H74   H     H_    0.047443 0.107661 0.830216 0.112131
H75   H     H_    0.402659 0.234827 0.678079 0.193122
H76   H     H_    0.395717 0.793679 0.628363 0.198117
H77   H     H_    0.902633 0.734891 0.678153 0.193116
H78   H     H_    0.857064 0.320399 0.489911 0.172353
H79   H     H_    0.895830 0.293625 0.628808 0.198063
H80   H     H_    0.755288 0.593665 0.412301 0.168822
H81   H     H_    0.680033 0.345516 0.328400 0.167909
H82   H     H_    0.255186 0.093732 0.412134 0.168904
H83   H     H_    0.179675 0.845055 0.328205 0.168005
H84   H     H_    0.833260 0.594867 0.627202 0.152907
I1    I     I_    0.344442 0.190882 0.774200 -0.438912
I2    I     I_    0.481880 0.649344 0.150133 -0.436056
I3    I     I_    0.977511 0.859994 0.141472 -0.422786
I4    I     I_    0.981880 0.149313 0.150116 -0.436095
I5    I     I_    0.363380 0.918722 0.705425 -0.473251
I6    I     I_    0.844340 0.691012 0.774173 -0.439014
I7    I     I_    0.863461 0.418535 0.706004 -0.473185
I8    I     I_    0.195594 0.392824 0.395969 -0.360532
I9    I     I_    0.239134 0.588644 0.543613 -0.352834
I10   I     I_    0.695510 0.892723 0.395678 -0.360401
I11   I     I_    0.738845 0.088691 0.542704 -0.352794
I12   I     I_    0.477526 0.359971 0.141501 -0.422716
N1    N     N_R   0.389430 0.421450 0.294590 -0.057982
N2    N     N_R   0.581780 0.577610 0.443390 -0.040823
N3    N     N_R   0.081780 0.922390 0.443390 -0.038759
N4    N     N_R   0.081780 0.077610 0.443390 -0.040825
N5    N     N_R   0.419850 0.423100 0.556610 -0.037607
N6    N     N_R   0.419850 0.576900 0.556610 -0.037522
N7    N     N_R   0.919850 0.923100 0.556610 -0.037619
N8    N     N_R   0.919850 0.076900 0.556610 -0.037505
N9    N     N_R   0.627410 0.423100 0.556610 -0.045762
N10   N     N_R   0.627410 0.576900 0.556610 -0.047308
N11   N     N_R   0.127410 0.923100 0.556610 -0.045764
N12   N     N_R   0.389430 0.578550 0.294590 -0.057889
N13   N     N_R   0.127410 0.076900 0.556610 -0.047316
N14   N     N_R   0.374220 0.422390 0.443390 -0.036611
N15   N     N_R   0.374220 0.577610 0.443390 -0.038428
N16   N     N_R   0.874220 0.922390 0.443390 -0.036602
N17   N     N_R   0.874220 0.077610 0.443390 -0.038406
N18   N     N_R   0.555000 0.424040 0.705410 -0.046946
N19   N     N_R   0.555000 0.575960 0.705410 -0.047129
N20   N     N_R   0.055000 0.924040 0.705410 -0.046944
N21   N     N_R   0.055000 0.075960 0.705410 -0.047124
N22   N     N_R   0.446630 0.421450 0.294590 -0.067839
N23   N     N_R   0.889430 0.921450 0.294590 -0.057984
N24   N     N_R   0.446630 0.578550 0.294590 -0.067639
N25   N     N_R   0.946630 0.921450 0.294590 -0.067836
N26   N     N_R   0.946630 0.078550 0.294590 -0.067639
N27   N     N_R   0.889430 0.078550 0.294590 -0.057891
N28   N     N_R   0.612200 0.424040 0.705410 -0.049572
N29   N     N_R   0.612200 0.575960 0.705410 -0.050314
N30   N     N_R   0.112200 0.924040 0.705410 -0.049571
N31   N     N_R   0.112200 0.075960 0.705410 -0.050312
N32   N     N_R   0.581780 0.422390 0.443390 -0.038759
Ni1   Ni    Ni4+2 0.382890 0.500000 0.370170 0.241844
Ni2   Ni    Ni4+2 0.882890 1.000000 0.370170 0.241908
Ni3   Ni    Ni4+2 0.618740 0.500000 0.629830 0.212767
Ni4   Ni    Ni4+2 0.118740 1.000000 0.629830 0.212754
Ni5   Ni    Ni4+2 0.514090 0.500000 0.370170 0.249615
Ni6   Ni    Ni4+2 0.014090 1.000000 0.370170 0.249613
Ni7   Ni    Ni4+2 0.487550 0.500000 0.629830 0.232754
Ni8   Ni    Ni4+2 0.987550 1.000000 0.629830 0.232729

loop_
_geom_bond_atom_site_label_1
_geom_bond_atom_site_label_2
_ccdc_geom_bond_type
C78   C87   A    
C58   C62   D    
C80   N14   A    
C49   C53   D    
C76   H63   S    
C7    C29   S    
C91   I3    S    
C86   H73   S    
N21   N31   A    
C35   C39   S    
N2    Ni5   S    
C26   H21   S    
C69   N3    A    
C14   C31   S    
C90   N24   A    
C75   N9    A    
N26   N27   A    
C15   C32   S    
C7    C73   A    
C54   C65   S    
C23   N23   A    
C43   C78   A    
C6    C72   A    
C50   C54   D    
C55   H42   S    
C88   N22   A    
C23   C95   A    
C63   H37   S    
C41   H28   S    
C17   C35   S    
C3    C69   A    
C9    C16   S    
C34   C96   A    
C47   H82   S    
C2    C68   A    
N23   N25   A    
C60   H47   S    
C23   H23   S    
N20   Ni8   S    
C53   C64   S    
C76   N10   A    
C47   H25   S    
C54   H41   S    
N3    N11   A    
C10   C17   S    
C58   H44   S    
C8    C83   A    
C55   C62   S    
C85   N19   A    
C92   C96   A    
N18   N28   A    
C57   H43   S    
N13   Ni4   S    
C88   I12   S    
C25   C44   S    
C38   H11   S    
N26   Ni6   S    
C42   H29   S    
C10   H56   S    
C5    C27   S    
C21   H8    S    
N15   Ni1   S    
C6    C28   S    
C90   I2    S    
C59   H46   S    
C17   I5    S    
C84   N18   A    
N18   Ni7   S    
C71   N5    A    
C3    C35   S    
C24   C28   S    
C31   C36   S    
C19   H6    S    
C81   N15   A    
C37   H32   S    
N16   Ni2   S    
C50   H50   S    
C22   C47   S    
N6    N15   A    
C24   H17   S    
C52   H52   S    
C6    C81   A    
C40   N28   A    
C46   H81   S    
C12   C94   A    
N5    N14   A    
N4    N13   A    
C53   H40   S    
C79   H65   S    
C52   C78   S    
C35   C48   S    
C77   N11   A    
C43   H30   S    
C4    C70   A    
N11   Ni4   S    
C90   C94   A    
C66   C89   A    
C20   C29   S    
N5    Ni7   S    
C26   C46   S    
C25   C29   S    
C40   C45   A    
C83   H70   S    
C64   H38   S    
C11   H77   S    
C31   C44   S    
C39   H13   S    
C46   H24   S    
C24   C48   S    
C38   H33   S    
C62   H36   S    
C13   C30   S    
N1    N22   A    
C66   H53   S    
C66   N32   A    
C92   I4    S    
C25   H20   S    
C1    H1    S    
C20   H7    S    
C9    H45   S    
C16   I1    S    
N20   N30   A    
C79   N13   A    
C71   H58   S    
C15   I7    S    
C50   C56   S    
N3    Ni6   S    
C2    C31   S    
C18   H5    S    
C69   H55   S    
C11   H67   S    
C91   N25   A    
C43   N31   A    
N7    Ni8   S    
C41   C56   A    
N25   Ni6   S    
C61   H48   S    
C32   C89   S    
C44   H22   S    
N14   Ni1   S    
C8    C74   A    
N24   Ni5   S    
C87   N21   A    
C49   H49   S    
C83   N17   A    
C32   C37   S    
C5    C80   A    
C92   N26   A    
C19   C28   S    
C80   H66   S    
C51   H51   S    
C65   H39   S    
N21   Ni8   S    
N19   Ni7   S    
C25   H14   S    
C4    C79   A    
C60   C96   S    
C75   H62   S    
C1    C93   A    
N4    Ni6   S    
C26   C30   S    
C22   H16   S    
C22   C27   S    
C13   C15   S    
C42   C67   A    
C33   C47   S    
C81   H68   S    
C9    H75   S    
C45   C84   A    
N17   Ni2   S    
C15   H2    S    
C3    C77   A    
C82   N16   A    
N28   Ni3   S    
C2    C76   A    
C13   H78   S    
C9    C27   S    
C12   H12   S    
C10   C28   S    
N9    Ni3   S    
C40   H27   S    
N29   Ni3   S    
C4    C33   S    
C67   C86   A    
C74   H61   S    
C36   H9    S    
N6    Ni7   S    
C85   H72   S    
C32   C46   S    
C18   C27   S    
C44   H80   S    
C57   C63   S    
C74   N8    A    
C19   I9    S    
C61   C95   S    
C16   H3    S    
N10   Ni3   S    
C86   N20   A    
C70   H57   S    
N8    Ni8   S    
C21   C30   S    
N12   N24   A    
N2    N10   A    
C59   C63   D    
N8    N17   A    
C60   C64   D    
N23   Ni2   S    
C8    C30   S    
C16   C33   S    
C58   C94   S    
N1    Ni1   S    
C37   H10   S    
C5    C71   A    
C84   H71   S    
N32   Ni5   S    
C11   C29   S    
C48   H26   S    
N31   Ni4   S    
C72   N6    A    
C56   C85   A    
C51   C67   S    
C39   H35   S    
C14   I6    S    
C73   N7    A    
C73   H60   S    
C18   I8    S    
N7    N16   A    
C11   C14   S    
C88   C93   A    
C45   C49   S    
C51   C55   D    
C12   N12   A    
N27   Ni2   S    
C18   C38   S    
C17   H4    S    
C41   N29   A    
C68   H54   S    
C52   C57   D    
C75   C89   A    
C77   H64   S    
C91   C95   A    
C20   I10   S    
C20   C36   S    
C61   C65   D    
C22   H18   S    
C7    C82   A    
C21   C37   S    
C34   H34   S    
C24   H19   S    
C19   C39   S    
N30   Ni4   S    
C36   H31   S    
C70   N4    A    
C72   H59   S    
C13   H79   S    
C1    N1    A    
C33   C38   S    
C68   N2    A    
C59   C93   S    
N9    N32   A    
N12   Ni1   S    
C42   N30   A    
N22   Ni5   S    
C10   H76   S    
C26   H15   S    
C82   H69   S    
C48   H83   S    
C14   H84   S    
C87   H74   S    
C34   N27   A    
C21   I11   S    
N19   N29   A    
