data_mof_unit_10102.cif
_audit_creation_date              2012-12-10T17:22:12-0500
_audit_creation_method            fapswitch 2.2
_symmetry_space_group_name_H-M    P1
_symmetry_Int_Tables_number       1
_space_group_crystal_system       triclinic
_cell_length_a                    15.873082
_cell_length_b                    10.783145
_cell_length_c                    9.680849
_cell_angle_alpha                 88.605467
_cell_angle_beta                  90.633141
_cell_angle_gamma                 92.627148
_cell_volume                      1654.67730792

loop_
_atom_site_label
_atom_site_type_symbol
_atom_type_description
_atom_site_fract_x
_atom_site_fract_y
_atom_site_fract_z
_atom_type_partial_charge
C1    C     C_R   0.501748 0.263129 0.501758 0.797257
C2    C     C_3   0.953302 0.510763 0.651331 -0.082490
C3    C     C_3   0.916794 0.503387 0.499748 0.150986
C4    C     C_3   0.954236 0.622312 0.423462 -0.454978
C5    C     C_3   0.050919 0.614121 0.407777 -0.364389
C6    C     C_1   0.824565 0.506263 0.500430 -0.012459
C7    C     C_1   0.175643 0.504441 0.496213 -0.014114
C8    C     C_1   0.251138 0.503020 0.497370 -0.161070
C9    C     C_R   0.631539 0.128787 0.656470 -0.186020
C10   C     C_R   0.695668 0.062983 0.720180 0.234732
C11   C     C_R   0.704292 0.938675 0.690675 -0.136296
C12   C     C_R   0.340625 0.500632 0.499300 0.818893
C13   C     C_R   0.644617 0.877234 0.607437 -0.219168
C14   C     C_R   0.572719 0.937483 0.558652 0.067849
C15   C     C_R   0.569220 0.066808 0.574225 0.058306
C16   C     C_R   0.504168 0.129395 0.505162 -0.123588
C17   C     C_R   0.441473 0.064315 0.430693 -0.185120
C18   C     C_R   0.439647 0.935567 0.426888 0.146431
C19   C     C_R   0.505111 0.871874 0.492605 -0.096997
C20   C     C_R   0.636582 0.626919 0.136345 0.225807
C21   C     C_R   0.713006 0.632697 0.064949 -0.132158
C22   C     C_R   0.709358 0.643194 0.922422 -0.231682
C23   C     C_R   0.500593 0.737149 0.498063 0.781577
C24   C     C_R   0.632141 0.623499 0.856178 -0.117643
C25   C     C_R   0.564469 0.562110 0.924783 0.141473
C26   C     C_R   0.565215 0.563171 0.073149 0.165320
C27   C     C_R   0.439222 0.438803 0.076222 -0.046939
C28   C     C_R   0.438755 0.437091 0.929234 0.248318
C29   C     C_R   0.659424 0.501618 0.500477 0.790205
C30   C     C_3   0.051954 0.513680 0.649481 -0.025759
C31   C     C_3   0.044440 0.380018 0.438135 -0.055347
C32   C     C_3   0.946196 0.386909 0.420402 0.292958
C33   C     C_1   0.749029 0.505025 0.501151 -0.134821
C34   C     C_3   0.083246 0.504250 0.497207 0.160135
Cu1   Cu    Cu3+1 0.499990 0.499990 0.640660 0.936798
Cu2   Cu    Cu3+1 0.500010 0.500010 0.359340 0.957828
H1    H     H_    0.932532 0.599911 0.692882 0.187487
H2    H     H_    0.924402 0.637456 0.320535 0.207615
H3    H     H_    0.392263 0.114666 0.378473 0.151918
H4    H     H_    0.630651 0.226981 0.675012 0.177507
H5    H     H_    0.756684 0.889136 0.733484 0.147525
H6    H     H_    0.655272 0.782768 0.580410 0.107344
H7    H     H_    0.389699 0.389218 0.133891 0.155521
H8    H     H_    0.074937 0.431713 0.708694 0.177473
H9    H     H_    0.770589 0.665918 0.115944 0.160902
H10   H     H_    0.764037 0.677944 0.865098 0.153743
H11   H     H_    0.626417 0.658552 0.753759 0.191654
H12   H     H_    0.056659 0.305643 0.516397 0.138191
H13   H     H_    0.083209 0.703434 0.437131 0.186088
H14   H     H_    0.065808 0.600242 0.297348 0.213002
H15   H     H_    0.941100 0.706415 0.482651 0.184393
N1    N     N_R   0.500800 0.501210 0.147910 -0.212611
N2    N     N_R   0.500820 0.501290 0.852040 -0.190833
O1    O     O_R   0.499990 0.319640 0.618810 -0.593620
O2    O     O_R   0.500000 0.319660 0.381240 -0.560468
O3    O     O_R   0.379430 0.499990 0.618840 -0.578869
O4    O     O_R   0.379440 0.500020 0.381260 -0.569639
O5    O     O_R   0.500000 0.680340 0.618760 -0.587221
O6    O     O_R   0.500010 0.680360 0.381190 -0.584683
O7    O     O_R   0.620560 0.499980 0.618740 -0.599989
O8    O     O_R   0.620570 0.500010 0.381160 -0.555168
C35   C     C_3   0.918129 0.411857 0.755037 -0.782219
H16   H     H_    0.848282 0.404061 0.749594 0.271380
H17   H     H_    0.944599 0.320247 0.738455 0.268449
H18   H     H_    0.936177 0.439389 0.861540 0.262200
C36   C     C_3   0.089432 0.628207 0.725326 -0.853828
H19   H     H_    0.069367 0.715958 0.675566 0.242956
H20   H     H_    0.067449 0.625347 0.833956 0.247234
H21   H     H_    0.159364 0.628798 0.728170 0.242043
I1    I     I_    0.777758 0.149208 0.865062 -0.335880
C37   C     C_3   0.366899 0.868038 0.354765 -0.815342
H22   H     H_    0.335103 0.800315 0.427545 0.218947
H23   H     H_    0.319065 0.932845 0.316165 0.229694
H24   H     H_    0.390189 0.818373 0.264723 0.246077
C38   C     C_3   0.626651 0.744749 0.214132 -0.758502
H25   H     H_    0.670630 0.821552 0.176967 0.213643
H26   H     H_    0.563419 0.781641 0.194418 0.238594
H27   H     H_    0.642649 0.730705 0.324766 0.223819
C39   C     C_3   0.366889 0.363145 0.863766 -0.758081
H28   H     H_    0.387731 0.309441 0.776109 0.261466
H29   H     H_    0.338383 0.293608 0.938124 0.190338
H30   H     H_    0.316180 0.425657 0.832204 0.234390
I2    I     I_    0.111396 0.313553 0.261039 -0.351291
I3    I     I_    0.885727 0.211828 0.486772 -0.330272
I4    I     I_    0.902095 0.397306 0.205639 -0.306916

loop_
_geom_bond_atom_site_label_1
_geom_bond_atom_site_label_2
_ccdc_geom_bond_type
C23   O5    A    
C36   H20   S    
Cu1   N2    S    
Cu1   Cu2   S    
C1    O1    A    
C3    C6    S    
C30   H8    S    
C7    C8    T    
C23   O6    A    
Cu1   O5    S    
C25   N2    A    
C36   H21   S    
C15   C16   A    
C29   C33   S    
C31   I2    S    
C18   C19   A    
C17   H3    S    
C28   C39   S    
C35   H17   S    
C16   C17   A    
C9    C10   A    
Cu2   N1    S    
Cu2   O6    S    
C36   H19   S    
C21   C22   A    
Cu1   O1    S    
C5    H13   S    
C13   H6    S    
C21   H9    S    
C32   I3    S    
C29   O8    A    
C30   C34   S    
C4    H15   S    
C24   C25   A    
Cu2   O4    S    
C37   H23   S    
C25   C26   A    
C9    H4    S    
C20   C38   S    
Cu1   O7    S    
C19   C23   S    
C38   H25   S    
C35   H16   S    
C26   N1    A    
C37   H24   S    
C31   C32   S    
C29   O7    A    
C8    C12   S    
C5    C34   S    
C17   C18   A    
C31   C34   S    
C1    C16   S    
C30   C36   S    
C38   H26   S    
C12   O3    A    
C12   O4    A    
C10   I1    S    
C22   H10   S    
C4    H2    S    
C31   H12   S    
C7    C34   S    
C22   C24   A    
C5    H14   S    
Cu2   O8    S    
C27   N1    A    
C39   H29   S    
C18   C37   S    
C35   H18   S    
Cu1   O3    S    
C24   H11   S    
C14   C19   A    
C4    C5    S    
C39   H30   S    
C28   N2    A    
C6    C33   T    
C2    C30   S    
C2    C3    S    
C1    O2    A    
C37   H22   S    
Cu2   O2    S    
C11   C13   A    
C2    H1    S    
C20   C26   A    
C32   I4    S    
C11   H5    S    
C9    C15   A    
C3    C32   S    
C38   H27   S    
C10   C11   A    
C39   H28   S    
C27   H7    S    
C20   C21   A    
C27   C28   A    
C14   C15   A    
C13   C14   A    
C2    C35   S    
C3    C4    S    
