data_mof_unit_12599.cif
_audit_creation_date              2012-12-10T16:59:19-0500
_audit_creation_method            fapswitch 2.2
_symmetry_space_group_name_H-M    P1
_symmetry_Int_Tables_number       1
_space_group_crystal_system       triclinic
_cell_length_a                    7.744177
_cell_length_b                    8.558121
_cell_length_c                    27.731242
_cell_angle_alpha                 91.146609
_cell_angle_beta                  85.363941
_cell_angle_gamma                 93.8535
_cell_volume                      1827.55352269

loop_
_atom_site_label
_atom_site_type_symbol
_atom_type_description
_atom_site_fract_x
_atom_site_fract_y
_atom_site_fract_z
_atom_type_partial_charge
C1    C     C_R   0.546024 0.794901 0.498733 0.976063
C2    C     C_R   0.453976 0.205099 0.501267 0.976063
C3    C     C_R   0.488787 0.510236 0.898453 -0.080699
C4    C     C_R   0.511224 0.489776 0.101546 -0.080699
C5    C     C_R   0.558690 0.643591 0.872334 -0.046510
C6    C     C_R   0.441322 0.356420 0.127665 -0.046508
C7    C     C_R   0.612191 0.780310 0.898198 -0.000442
C8    C     C_R   0.387824 0.219701 0.101802 -0.000442
C9    C     C_R   0.415690 0.380101 0.873468 -0.016470
C10   C     C_R   0.584318 0.619912 0.126531 -0.016470
C11   C     C_R   0.503511 0.501135 0.646565 -0.041772
C12   C     C_R   0.496490 0.498870 0.353434 -0.041771
C13   C     C_R   0.577646 0.629452 0.025073 0.053460
C14   C     C_R   0.422368 0.370559 0.974926 0.053459
C15   C     C_R   0.434255 0.363215 0.025575 0.050531
C16   C     C_R   0.565760 0.636796 0.974424 0.050531
C17   C     C_R   0.507773 0.493993 0.050547 0.069996
C18   C     C_R   0.492240 0.506018 0.949452 0.069995
C19   C     C_R   0.661146 0.752148 0.051195 -0.242126
C20   C     C_R   0.338865 0.247864 0.948805 -0.242124
C21   C     C_R   0.662873 0.747723 0.100942 -0.104103
C22   C     C_R   0.337136 0.252290 0.899058 -0.104100
C23   C     C_R   0.501524 0.500184 0.593950 0.875732
C24   C     C_R   0.498476 0.499817 0.406050 0.875733
C25   C     C_R   0.617897 0.774049 0.948196 -0.305497
C26   C     C_R   0.382120 0.225961 0.051803 -0.305498
C27   C     C_2   0.570297 0.958444 0.497999 -0.370972
C28   C     C_2   0.429703 0.041556 0.502001 -0.370972
C29   C     C_R   0.574080 0.632630 0.821360 0.537766
C30   C     C_R   0.425930 0.367382 0.178639 0.537766
C31   C     C_R   0.421073 0.381123 0.823120 0.528751
C32   C     C_R   0.578932 0.618891 0.176880 0.528749
C33   C     C_R   0.657792 0.482624 0.718491 -0.079476
C34   C     C_R   0.342207 0.517363 0.281508 -0.079471
C35   C     C_R   0.658074 0.481496 0.668318 -0.213837
C36   C     C_R   0.341923 0.518486 0.331681 -0.213838
C37   C     C_R   0.349279 0.522223 0.675547 -0.200911
C38   C     C_R   0.650728 0.477811 0.324453 -0.200913
C39   C     C_R   0.349576 0.523695 0.725515 -0.092814
C40   C     C_R   0.650432 0.476341 0.274485 -0.092810
C41   C     C_R   0.503427 0.503722 0.746982 0.309899
C42   C     C_R   0.496578 0.496291 0.253017 0.309892
H1    H     H_    0.228363 0.537906 0.659721 0.164171
H2    H     H_    0.771648 0.462147 0.340279 0.164170
H3    H     H_    0.014365 0.382700 0.463380 0.191901
H4    H     H_    0.985635 0.617300 0.536620 0.191902
H5    H     H_    0.230371 0.540412 0.747692 0.143945
H6    H     H_    0.769642 0.459645 0.252308 0.143945
H7    H     H_    0.221491 0.534893 0.353309 0.161759
H8    H     H_    0.778501 0.465067 0.646690 0.161761
H9    H     H_    0.223151 0.532998 0.264729 0.144056
H10   H     H_    0.776844 0.466970 0.735270 0.144056
H11   H     H_    0.725994 0.846026 0.119322 0.207303
H12   H     H_    0.274013 0.153988 0.880677 0.207301
H13   H     H_    0.729404 0.853137 0.034388 0.144869
H14   H     H_    0.270607 0.146876 0.965612 0.144869
H15   H     H_    0.655419 0.882521 0.966072 0.130273
H16   H     H_    0.344601 0.117489 0.033927 0.130273
H17   H     H_    0.702933 0.009877 0.494179 0.180709
H18   H     H_    0.297067 0.990123 0.505821 0.180709
N1    N     N_R   0.501533 0.505018 0.798376 -0.368717
N2    N     N_R   0.498472 0.494995 0.201624 -0.368716
N3    N     N_2   0.950320 0.457960 0.486880 -0.175434
N4    N     N_2   0.049680 0.542040 0.513120 -0.175434
O1    O     O_R   0.389250 0.738570 0.503220 -0.611876
O2    O     O_R   0.610750 0.261430 0.496780 -0.611876
O3    O     O_R   0.678390 0.711630 0.494810 -0.628370
O4    O     O_R   0.321610 0.288370 0.505190 -0.628370
O5    O     O_R   0.355440 0.513440 0.575450 -0.622089
O6    O     O_R   0.644560 0.486560 0.424550 -0.622090
O7    O     O_R   0.644590 0.486500 0.567040 -0.629660
O8    O     O_R   0.355410 0.513500 0.432960 -0.629660
O9    O     O_2   0.664370 0.745202 0.794708 -0.505611
O10   O     O_2   0.335640 0.254809 0.205291 -0.505611
O11   O     O_2   0.650697 0.741863 0.201181 -0.516065
O12   O     O_2   0.349303 0.258153 0.798819 -0.516067
Zn1   Zn    Zn3+2 0.306940 0.517990 0.505620 0.951308
Zn2   Zn    Zn3+2 0.693060 0.482010 0.494380 0.951307
C43   C     C_2   0.650885 0.936690 0.876153 0.500044
H19   H     H_    0.752010 0.015999 0.889607 0.033213
O13   O     O_2   0.562206 0.983002 0.845610 -0.502298
C44   C     C_2   0.349132 0.063320 0.123846 0.500042
H20   H     H_    0.248012 0.984009 0.110391 0.033212
O14   O     O_2   0.437810 0.017011 0.154390 -0.502294

loop_
_geom_bond_atom_site_label_1
_geom_bond_atom_site_label_2
_ccdc_geom_bond_type
C21   H11   S    
O6    Zn2   S    
C8    C26   A    
N4    Zn1   S    
C31   N1    A    
O5    Zn1   S    
C34   C42   A    
C41   N1    S    
C20   H14   S    
C32   O11   S    
C24   O6    A    
C39   C41   A    
C33   H10   S    
C34   H9    S    
C8    C44   S    
C39   H5    S    
C19   C21   A    
C2    O4    A    
C30   O10   S    
C9    C22   A    
C29   O9    S    
C16   C25   A    
C3    C18   A    
C15   C17   A    
C11   C37   A    
C23   O5    A    
C1    O3    A    
C1    O1    A    
C12   C36   A    
C42   N2    S    
C40   C42   A    
O3    Zn2   S    
C25   H15   S    
C5    C29   A    
C28   H18   S    
C10   C21   A    
O2    Zn2   S    
C29   N1    A    
O1    Zn1   S    
C13   C19   A    
C14   C20   A    
C22   H12   S    
C43   O13   D    
C15   C26   A    
C6    C8    A    
C3    C5    A    
H3    N3    S    
C43   H19   S    
H4    N4    S    
C37   H1    S    
C38   H2    S    
O8    Zn1   S    
C3    C9    A    
C23   O7    A    
C5    C7    A    
C35   H8    S    
C26   H16   S    
C4    C17   A    
C4    C6    A    
C6    C30   A    
C20   C22   A    
C44   O14   D    
C30   N2    A    
C4    C10   A    
C24   O8    A    
C7    C43   S    
C19   H13   S    
O4    Zn1   S    
C40   H6    S    
C14   C18   A    
C2    O2    A    
C12   C24   S    
C7    C25   A    
C13   C17   A    
C33   C41   A    
C11   C35   A    
C32   N2    A    
C37   C39   A    
C27   H17   S    
C38   C40   A    
C31   O12   S    
C11   C23   S    
C33   C35   A    
C34   C36   A    
C12   C38   A    
C9    C31   A    
N3    N4    D    
C10   C32   A    
C16   C18   A    
C44   H20   S    
C13   C16   A    
C27   C28   D    
C1    C27   S    
C14   C15   A    
C2    C28   S    
O7    Zn2   S    
C36   H7    S    
N3    Zn2   S    
