data_mof_unit_27799.cif
_audit_creation_date              2012-10-26T18:32:18-0400
_audit_creation_method            fapswitch 2.2
_symmetry_space_group_name_H-M    P1
_symmetry_Int_Tables_number       1
_space_group_crystal_system       triclinic
_cell_length_a                    12.372449
_cell_length_b                    13.204046
_cell_length_c                    15.862721
_cell_angle_alpha                 77.414428
_cell_angle_beta                  100.961267
_cell_angle_gamma                 116.805088
_cell_volume                      2244.80487222

loop_
_atom_site_label
_atom_site_type_symbol
_atom_type_description
_atom_site_fract_x
_atom_site_fract_y
_atom_site_fract_z
_atom_type_partial_charge
C1    C     C_R   0.854917 0.286660 0.507427 0.524022
C2    C     C_R   0.228424 0.834790 0.469616 -0.002140
C3    C     C_R   0.814117 0.084479 0.563519 -0.134254
C4    C     C_R   0.999513 0.499711 0.659472 0.545145
C5    C     C_R   0.734922 0.969336 0.580396 -0.143221
C6    C     C_R   0.612138 0.931959 0.550136 -0.124091
C7    C     C_R   0.566362 0.009321 0.498870 0.031575
C8    C     C_R   0.650329 0.124045 0.473176 0.023979
C9    C     C_R   0.440263 0.976328 0.471377 0.027632
C10   C     C_R   0.401653 0.054181 0.412287 0.050908
C11   C     C_R   0.487432 0.161607 0.379752 -0.139958
C12   C     C_3   0.053451 0.419086 0.071243 -0.217573
C13   C     C_R   0.609975 0.195444 0.408608 -0.123357
C14   C     C_R   0.350937 0.868406 0.501415 -0.138805
C15   C     C_R   0.191248 0.912966 0.412691 -0.137328
C16   C     C_R   0.145072 0.713360 0.487401 0.540565
C17   C     C_R   0.772758 0.163461 0.512011 -0.002592
C18   C     C_R   0.352182 0.339448 0.645650 -0.167450
C19   C     C_R   0.764270 0.649869 0.386171 0.049637
C20   C     C_R   0.674642 0.689582 0.366047 -0.174492
C21   C     C_R   0.571884 0.635677 0.410859 -0.102406
C22   C     C_R   0.554728 0.537732 0.474506 0.014276
C23   C     C_3   0.002307 0.502325 0.082896 0.047219
C24   C     C_R   0.653186 0.505337 0.496778 0.167420
C25   C     C_R   0.448097 0.475678 0.520704 0.030187
C26   C     C_R   0.449887 0.393998 0.594789 -0.001622
C27   C     C_R   0.548644 0.366306 0.617168 -0.174859
C28   C     C_R   0.000461 0.500260 0.340522 0.546140
C29   C     C_R   0.646619 0.418701 0.567992 -0.097062
C30   C     C_R   0.338818 0.489938 0.496269 0.371225
C31   C     C_R   0.252114 0.364983 0.622836 0.009645
C32   C     C_3   0.050763 0.417278 0.973492 -0.206432
C33   C     C_3   0.870448 0.463198 0.938822 -0.252450
C34   C     C_3   0.082843 0.624880 0.039586 -0.177014
C35   C     C_3   0.870970 0.463968 0.036465 -0.230802
C36   C     C_1   0.001362 0.500620 0.250884 -0.024412
C37   C     C_3   0.001861 0.502423 0.916932 0.098721
C38   C     C_3   0.308886 0.678835 0.962894 -0.309057
C39   C     C_3   0.080737 0.625942 0.940466 0.069944
C40   C     C_1   0.001862 0.501236 0.175244 -0.073886
C41   C     C_1   0.999889 0.501009 0.824584 -0.051306
C42   C     C_1   0.999223 0.500252 0.749028 -0.035976
C43   C     C_R   0.277540 0.022587 0.384626 -0.130723
Cu1   Cu    Cu3+1 0.098280 0.475420 0.519630 0.950077
Cu2   Cu    Cu3+1 0.901720 0.524580 0.480370 0.910068
H1    H     H_    0.998301 0.330860 0.103387 0.116447
H2    H     H_    0.556296 0.841475 0.566378 0.100877
H3    H     H_    0.768190 0.909022 0.619568 0.116811
H4    H     H_    0.990871 0.328844 0.958783 0.100252
H5    H     H_    0.672475 0.277201 0.377574 0.151997
H6    H     H_    0.177606 0.324623 0.662907 0.124055
H7    H     H_    0.549768 0.302359 0.672934 0.110083
H8    H     H_    0.353695 0.278100 0.703196 0.097647
H9    H     H_    0.844834 0.692921 0.352048 0.125306
H10   H     H_    0.511347 0.676800 0.397228 0.157909
H11   H     H_    0.686098 0.763937 0.317034 0.098789
H12   H     H_    0.142751 0.437713 0.957742 0.130833
H13   H     H_    0.717097 0.390794 0.589805 0.183397
H14   H     H_    0.830458 0.520944 0.898788 0.106295
H15   H     H_    0.811164 0.375196 0.922997 0.114988
H16   H     H_    0.811249 0.376524 0.067213 0.120355
H17   H     H_    0.832560 0.523129 0.043290 0.114166
H18   H     H_    0.032149 0.679081 0.905505 0.101637
H19   H     H_    0.175560 0.654925 0.074734 0.128796
H20   H     H_    0.296154 0.602835 0.420666 0.348084
H21   H     H_    0.216909 0.751273 0.862550 0.243392
H22   H     H_    0.377640 0.690746 0.921271 0.142421
H23   H     H_    0.148389 0.445614 0.103039 0.116930
H24   H     H_    0.289348 0.597126 0.007687 0.146086
H25   H     H_    0.348432 0.751336 0.000768 0.128787
H26   H     H_    0.046738 0.685407 0.047417 0.084807
H27   H     H_    0.096594 0.887941 0.387204 0.119802
H28   H     H_    0.459732 0.219943 0.331660 0.110285
H29   H     H_    0.247666 0.081612 0.339352 0.107922
H30   H     H_    0.374093 0.807640 0.549141 0.118342
H31   H     H_    0.907557 0.112116 0.592692 0.128319
N1    N     N_R   0.246300 0.438200 0.549400 -0.223257
N2    N     N_R   0.754300 0.561180 0.451130 -0.235532
N3    N     N_2   0.200686 0.678597 0.908215 -0.518883
O1    O     O_R   0.972520 0.318130 0.524690 -0.499634
O2    O     O_R   0.806530 0.359650 0.491530 -0.527991
O3    O     O_R   0.083030 0.479240 0.637150 -0.499190
O4    O     O_R   0.917040 0.520750 0.603990 -0.511978
O5    O     O_R   0.193470 0.640350 0.508470 -0.530596
O6    O     O_R   0.027480 0.681870 0.475310 -0.502573
O7    O     O_R   0.082960 0.479250 0.396010 -0.456870
O8    O     O_R   0.916970 0.520760 0.362850 -0.513986
O9    O     O_3   0.319485 0.543017 0.414259 -0.710441

loop_
_geom_bond_atom_site_label_1
_geom_bond_atom_site_label_2
_ccdc_geom_bond_type
C38   H25   S    
C8    C13   A    
C27   C29   A    
C41   C42   T    
C19   C20   A    
C18   C26   A    
C20   H11   S    
C7    C8    A    
C27   H7    S    
H21   N3    S    
C12   H23   S    
C12   C23   S    
C26   C27   A    
Cu1   N1    S    
Cu2   O8    S    
Cu1   O3    S    
C5    C6    A    
C38   N3    S    
C1    O2    A    
C23   C40   S    
C16   O5    A    
C24   C29   A    
C18   H8    S    
C30   N1    A    
C22   C25   A    
Cu2   N2    S    
C2    C16   S    
C9    C10   A    
C43   H29   S    
C38   H24   S    
C33   H14   S    
C21   C22   A    
C12   C32   S    
Cu2   O4    S    
C32   H12   S    
Cu1   O7    S    
C31   N1    A    
C5    H3    S    
C6    H2    S    
C34   C39   S    
Cu1   O1    S    
C12   H1    S    
C11   H28   S    
C21   H10   S    
C3    C5    A    
C25   C26   A    
C33   C37   S    
C39   N3    S    
C19   N2    A    
Cu2   O6    S    
C9    C14   A    
C15   H27   S    
C36   C40   T    
C23   C34   S    
C20   C21   A    
C28   O8    A    
C34   H19   S    
C35   H16   S    
C32   C37   S    
C29   H13   S    
C2    C15   A    
C19   H9    S    
C24   N2    A    
C33   H15   S    
C23   C35   S    
C28   O7    A    
C16   O6    A    
C22   C24   A    
C30   O9    S    
Cu1   Cu2   S    
H20   O9    S    
C25   C30   A    
C7    C9    A    
C10   C43   A    
Cu2   O2    S    
C31   H6    S    
Cu1   O5    S    
C6    C7    A    
C39   H18   S    
C1    C17   S    
C8    C17   A    
C14   H30   S    
C15   C43   A    
C37   C39   S    
C11   C13   A    
C4    O4    A    
C4    C42   S    
C33   C35   S    
C3    C17   A    
C35   H17   S    
C37   C41   S    
C2    C14   A    
C32   H4    S    
C10   C11   A    
C13   H5    S    
C4    O3    A    
C38   H22   S    
C28   C36   S    
C1    O1    A    
C3    H31   S    
C18   C31   A    
C34   H26   S    
