data_mof_unit_44118.cif
_audit_creation_date              2012-12-10T19:47:46-0500
_audit_creation_method            fapswitch 2.2
_symmetry_space_group_name_H-M    P1
_symmetry_Int_Tables_number       1
_space_group_crystal_system       triclinic
_cell_length_a                    18.259079
_cell_length_b                    18.258817
_cell_length_c                    21.751582
_cell_angle_alpha                 89.999919
_cell_angle_beta                  89.998175
_cell_angle_gamma                 90.000176
_cell_volume                      7251.74212754

loop_
_atom_site_label
_atom_site_type_symbol
_atom_type_description
_atom_site_fract_x
_atom_site_fract_y
_atom_site_fract_z
_atom_type_partial_charge
C1    C     C_R   0.000000 0.358732 0.999999 0.875063
C2    C     C_1   0.282200 0.999981 0.999965 -0.098662
C3    C     C_2   0.692874 0.813177 0.818769 0.536738
C4    C     C_2   0.821530 0.700533 0.181114 0.537350
C5    C     C_2   0.300437 0.820413 0.181151 0.537181
C6    C     C_2   0.178317 0.299328 0.181109 0.537430
C7    C     C_2   0.699767 0.179386 0.181156 0.537209
C8    C     C_2   0.321118 0.799791 0.318848 0.537039
C9    C     C_2   0.800870 0.680079 0.318843 0.537128
C10   C     C_2   0.679088 0.200007 0.318856 0.537076
C11   C     C_2   0.198865 0.319668 0.318873 0.537159
C12   C     C_2   0.328153 0.206176 0.681004 0.537710
C13   C     C_1   0.999998 0.717800 0.999999 -0.100095
C14   C     C_2   0.800098 0.320783 0.681145 0.537990
C15   C     C_2   0.671705 0.793720 0.680969 0.537905
C16   C     C_2   0.200088 0.679038 0.681151 0.538014
C17   C     C_2   0.022157 0.661023 0.850949 0.379926
C18   C     C_2   0.659926 0.971801 0.851191 0.386615
C19   C     C_2   0.977979 0.338959 0.850940 0.379822
C20   C     C_2   0.340007 0.027912 0.851144 0.386136
C21   C     C_2   0.021279 0.338852 0.149048 0.380312
C22   C     C_2   0.661016 0.022156 0.149042 0.380961
C23   C     C_2   0.978605 0.661136 0.149061 0.380323
C24   C     C_1   0.717800 0.000021 0.999971 -0.098515
C25   C     C_2   0.339006 0.977702 0.149039 0.381125
C26   C     C_2   0.521895 0.161063 0.350940 0.380941
C27   C     C_2   0.160887 0.477106 0.351001 0.381837
C28   C     C_2   0.478251 0.838918 0.350932 0.380853
C29   C     C_2   0.839072 0.522707 0.350980 0.381559
C30   C     C_2   0.516000 0.838126 0.649182 0.376224
C31   C     C_2   0.161069 0.521865 0.649061 0.381952
C32   C     C_2   0.483880 0.161867 0.649216 0.376232
C33   C     C_2   0.838952 0.478008 0.649061 0.382085
C34   C     C_1   0.500022 0.782200 0.499976 -0.101398
C35   C     C_1   0.782200 0.499997 0.499995 -0.099765
C36   C     C_1   0.499977 0.217800 0.499982 -0.101419
C37   C     C_1   0.217801 0.500004 0.499998 -0.099689
C38   C     C_R   0.000002 0.500001 0.879703 0.806500
C39   C     C_R   0.499997 0.999997 0.879692 0.807291
C40   C     C_R   0.999998 0.500002 0.120295 0.806241
C41   C     C_R   0.358732 0.999995 0.999983 0.876235
C42   C     C_R   0.499999 0.999999 0.120298 0.806214
C43   C     C_R   0.500002 0.000001 0.379704 0.806559
C44   C     C_R   0.999997 0.499999 0.379701 0.806588
C45   C     C_R   0.499998 0.000003 0.620287 0.805541
C46   C     C_R   0.000000 0.499999 0.620298 0.806290
C47   C     C_R   0.069154 0.618850 0.807413 -0.115120
C48   C     C_R   0.616266 0.926527 0.807385 -0.113921
C49   C     C_R   0.930940 0.381100 0.807415 -0.115213
C50   C     C_R   0.383618 0.073284 0.807371 -0.113822
C51   C     C_R   0.068508 0.380796 0.192556 -0.115985
C52   C     C_R   0.999999 0.641268 0.000002 0.875102
C53   C     C_R   0.618842 0.069154 0.192577 -0.115641
C54   C     C_R   0.931404 0.619154 0.192567 -0.115895
C55   C     C_R   0.381215 0.930751 0.192584 -0.115543
C56   C     C_R   0.568962 0.118951 0.307418 -0.115726
C57   C     C_R   0.118532 0.430326 0.307428 -0.115528
C58   C     C_R   0.431138 0.880995 0.307422 -0.115843
C59   C     C_R   0.881388 0.569548 0.307423 -0.115522
C60   C     C_R   0.564650 0.878677 0.692506 -0.117937
C61   C     C_R   0.118967 0.568949 0.692580 -0.116223
C62   C     C_R   0.435255 0.121266 0.692531 -0.117845
C63   C     C_R   0.641268 0.000006 0.999987 0.876295
C64   C     C_R   0.881086 0.430967 0.692588 -0.116133
C65   C     C_R   0.131148 0.652346 0.780079 0.004918
C66   C     C_R   0.647504 0.863374 0.780009 0.002982
C67   C     C_R   0.868983 0.347544 0.780078 0.005007
C68   C     C_R   0.352300 0.136400 0.779997 0.002982
C69   C     C_R   0.130290 0.346938 0.219894 0.004897
C70   C     C_R   0.652355 0.131130 0.219918 0.004720
C71   C     C_R   0.869579 0.652948 0.219898 0.004858
C72   C     C_R   0.347769 0.868734 0.219919 0.004659
C73   C     C_R   0.630898 0.152547 0.280085 0.004742
C74   C     C_R   0.500005 0.858732 0.499995 0.874293
C75   C     C_R   0.151776 0.368207 0.280086 0.004567
C76   C     C_R   0.369244 0.847331 0.280085 0.004834
C77   C     C_R   0.848077 0.631629 0.280077 0.004564
C78   C     C_R   0.625327 0.842869 0.719806 0.006417
C79   C     C_R   0.152581 0.630874 0.719916 0.004494
C80   C     C_R   0.374525 0.157001 0.719825 0.006402
C81   C     C_R   0.847534 0.369002 0.719918 0.004445
C82   C     C_R   0.140884 0.999991 0.999996 0.889427
C83   C     C_R   1.000000 0.859116 1.000000 0.889479
C84   C     C_R   0.859116 0.000010 0.999998 0.889438
C85   C     C_R   0.858732 0.499999 0.499998 0.875258
C86   C     C_R   0.000000 0.140884 1.000000 0.889389
C87   C     C_R   0.640884 0.499998 0.499999 0.888668
C88   C     C_R   0.499990 0.359116 0.499998 0.888715
C89   C     C_R   0.359116 0.500002 0.500000 0.888665
C90   C     C_R   0.500010 0.640884 0.499997 0.888647
C91   C     C_R   0.054028 0.540345 0.719048 0.018298
C92   C     C_R   0.538391 0.944574 0.718993 0.018420
C93   C     C_R   0.945999 0.459626 0.719054 0.018253
C94   C     C_R   0.461564 0.055382 0.719004 0.018360
C95   C     C_R   0.053790 0.459346 0.280943 0.018204
C96   C     C_R   0.499995 0.141268 0.500001 0.874330
C97   C     C_R   0.540342 0.054024 0.280949 0.018260
C98   C     C_R   0.946173 0.540607 0.280946 0.018287
C99   C     C_R   0.459696 0.945951 0.280954 0.018312
C100  C     C_R   0.553956 0.040434 0.219049 0.018358
C101  C     C_R   0.040134 0.445822 0.219039 0.018340
C102  C     C_R   0.446071 0.959532 0.219055 0.018313
C103  C     C_R   0.959826 0.554147 0.219045 0.018283
C104  C     C_R   0.552486 0.957646 0.780896 0.018054
C105  C     C_R   0.040432 0.553964 0.780946 0.018287
C106  C     C_R   0.447467 0.042281 0.780902 0.018189
C107  C     C_R   0.141268 0.500001 0.499999 0.875282
C108  C     C_R   0.959605 0.446014 0.780951 0.018331
C109  C     C_R   0.000005 0.499995 0.686611 -0.163381
C110  C     C_R   0.499992 0.999992 0.686577 -0.162026
C111  C     C_R   0.999991 0.499990 0.313385 -0.163454
C112  C     C_R   0.500009 0.999996 0.313392 -0.163355
C113  C     C_R   0.500005 0.999994 0.186612 -0.163195
C114  C     C_R   0.999992 0.499995 0.186605 -0.163082
C115  C     C_R   0.499991 0.999982 0.813355 -0.164603
C116  C     C_R   0.000009 0.499997 0.813389 -0.163262
C117  C     C_1   0.000002 0.217386 0.999998 -0.061478
C118  C     C_1   0.000002 0.282200 0.999996 -0.100128
C119  C     C_1   0.217386 0.999981 0.999977 -0.061838
C120  C     C_1   0.999998 0.782614 0.999999 -0.061479
C121  C     C_1   0.782614 0.000022 0.999982 -0.061786
C122  C     C_1   0.500023 0.717385 0.499983 -0.061475
C123  C     C_1   0.717386 0.499997 0.499996 -0.061202
C124  C     C_1   0.499976 0.282615 0.499987 -0.061515
C125  C     C_1   0.282614 0.500004 0.500000 -0.061160
C126  C     C_2   0.820768 0.300086 0.818840 0.536259
C127  C     C_2   0.306749 0.186461 0.818730 0.536638
C128  C     C_2   0.179424 0.699727 0.818849 0.536319
H1    H     H_    0.840359 0.276159 0.861262 0.105033
H2    H     H_    0.776918 0.660632 0.361303 0.105478
H3    H     H_    0.659449 0.224018 0.361230 0.105477
H4    H     H_    0.222740 0.339043 0.361386 0.105442
H5    H     H_    0.348783 0.229531 0.638696 0.103695
H6    H     H_    0.776072 0.340409 0.638774 0.105720
H7    H     H_    0.651079 0.770383 0.638652 0.103592
H8    H     H_    0.223986 0.659419 0.638724 0.105586
H9    H     H_    0.975014 0.635957 0.872354 0.089595
H10   H     H_    0.636707 0.020235 0.872057 0.085609
H11   H     H_    0.025092 0.364065 0.872355 0.089686
H12   H     H_    0.282313 0.167968 0.861289 0.107008
H13   H     H_    0.363332 0.979580 0.872085 0.085802
H14   H     H_    0.974288 0.364156 0.127611 0.090209
H15   H     H_    0.635957 0.975007 0.127640 0.089644
H16   H     H_    0.025616 0.635866 0.127622 0.090113
H17   H     H_    0.364023 0.024881 0.127648 0.089562
H18   H     H_    0.474800 0.135929 0.372364 0.089788
H19   H     H_    0.136064 0.524445 0.372305 0.089151
H20   H     H_    0.525315 0.864094 0.372365 0.089876
H21   H     H_    0.863961 0.475432 0.372328 0.089267
H22   H     H_    0.470101 0.864938 0.627399 0.093762
H23   H     H_    0.159830 0.723774 0.861223 0.105152
H24   H     H_    0.135919 0.474784 0.627634 0.089777
H25   H     H_    0.529790 0.135087 0.627417 0.093641
H26   H     H_    0.864063 0.525118 0.627644 0.089704
H27   H     H_    0.717037 0.831515 0.861484 0.106849
H28   H     H_    0.841220 0.724389 0.138693 0.105206
H29   H     H_    0.276381 0.839977 0.138772 0.105430
H30   H     H_    0.158631 0.275525 0.138667 0.105113
H31   H     H_    0.723680 0.159827 0.138717 0.105285
H32   H     H_    0.340751 0.775918 0.361279 0.105338
O1    O     O_R   0.939380 0.392670 0.000020 -0.618866
O2    O     O_R   0.892670 0.560620 0.500020 -0.618789
O3    O     O_R   0.560620 0.107330 0.500020 -0.618702
O4    O     O_R   0.107330 0.439380 0.500020 -0.618760
O5    O     O_R   0.439380 0.107330 0.499980 -0.619344
O6    O     O_R   0.892670 0.439380 0.499980 -0.619006
O7    O     O_R   0.560620 0.892670 0.499980 -0.619328
O8    O     O_R   0.107330 0.560620 0.499980 -0.619064
O9    O     O_R   0.939380 0.500000 0.908420 -0.612936
O10   O     O_R   0.500000 0.060620 0.908420 -0.613075
O11   O     O_R   0.060620 0.500000 0.908420 -0.612963
O12   O     O_R   0.392670 0.060620 0.000020 -0.618310
O13   O     O_R   0.500000 0.939380 0.908420 -0.613230
O14   O     O_R   0.939380 0.500000 0.091580 -0.613107
O15   O     O_R   0.500000 0.939380 0.091580 -0.613214
O16   O     O_R   0.060620 0.500000 0.091580 -0.613056
O17   O     O_R   0.500000 0.060620 0.091580 -0.613185
O18   O     O_R   0.439380 0.000000 0.408420 -0.612939
O19   O     O_R   0.000000 0.560620 0.408420 -0.613054
O20   O     O_R   0.560620 0.000000 0.408420 -0.612968
O21   O     O_R   0.000000 0.439380 0.408420 -0.613133
O22   O     O_R   0.439380 0.000000 0.591580 -0.613215
O23   O     O_R   0.060620 0.607330 0.000020 -0.618834
O24   O     O_R   0.000000 0.439380 0.591580 -0.613229
O25   O     O_R   0.560620 0.000000 0.591580 -0.613147
O26   O     O_R   0.000000 0.560620 0.591580 -0.613202
O27   O     O_R   0.107300 0.999970 0.948290 -0.594707
O28   O     O_R   0.999970 0.892700 0.948290 -0.593936
O29   O     O_R   0.892700 0.000030 0.948290 -0.594735
O30   O     O_R   0.000030 0.107300 0.948290 -0.593987
O31   O     O_R   0.107300 0.000030 0.051710 -0.593695
O32   O     O_R   0.999970 0.107300 0.051710 -0.593700
O33   O     O_R   0.892700 0.999970 0.051710 -0.593667
O34   O     O_R   0.607330 0.939380 0.000020 -0.618265
O35   O     O_R   0.000030 0.892700 0.051710 -0.593721
O36   O     O_R   0.607300 0.499970 0.448290 -0.593935
O37   O     O_R   0.499970 0.392700 0.448290 -0.593826
O38   O     O_R   0.392700 0.500030 0.448290 -0.593952
O39   O     O_R   0.500030 0.607300 0.448290 -0.593847
O40   O     O_R   0.607300 0.500030 0.551710 -0.593636
O41   O     O_R   0.499970 0.607300 0.551710 -0.593352
O42   O     O_R   0.392700 0.499970 0.551710 -0.593608
O43   O     O_R   0.500030 0.392700 0.551710 -0.593365
O44   O     O_2   0.755998 0.291957 0.806671 -0.517782
O45   O     O_R   0.939380 0.607330 0.999980 -0.619058
O46   O     O_2   0.300888 0.251426 0.806369 -0.517499
O47   O     O_2   0.244237 0.707657 0.806742 -0.517666
O48   O     O_2   0.698866 0.748269 0.806243 -0.517509
O49   O     O_2   0.756779 0.708860 0.193265 -0.518190
O50   O     O_2   0.292556 0.755596 0.193266 -0.518240
O51   O     O_2   0.243051 0.290925 0.193286 -0.518184
O52   O     O_2   0.707874 0.244154 0.193347 -0.518313
O53   O     O_2   0.256367 0.791524 0.306669 -0.518340
O54   O     O_2   0.792992 0.744870 0.306631 -0.518208
O55   O     O_2   0.743887 0.208051 0.306749 -0.518212
O56   O     O_R   0.392670 0.939380 0.999980 -0.619176
O57   O     O_2   0.206720 0.254887 0.306614 -0.518206
O58   O     O_2   0.263640 0.216473 0.692984 -0.518841
O59   O     O_2   0.792103 0.255975 0.693242 -0.518769
O60   O     O_2   0.736217 0.783427 0.692947 -0.518725
O61   O     O_2   0.208286 0.743802 0.693317 -0.518815
O62   O     O_2   0.030482 0.726709 0.858643 -0.582500
O63   O     O_2   0.724998 0.960456 0.859765 -0.584252
O64   O     O_2   0.969723 0.273260 0.858612 -0.582424
O65   O     O_2   0.274873 0.039039 0.859592 -0.584143
O66   O     O_2   0.029234 0.273108 0.141415 -0.581477
O67   O     O_R   0.060620 0.392670 0.999980 -0.619051
O68   O     O_2   0.726701 0.030489 0.141343 -0.581762
O69   O     O_2   0.970602 0.726873 0.141429 -0.581521
O70   O     O_2   0.273335 0.969295 0.141320 -0.581864
O71   O     O_2   0.530107 0.226769 0.358603 -0.581642
O72   O     O_2   0.226492 0.468355 0.358846 -0.582095
O73   O     O_2   0.470114 0.773198 0.358573 -0.581530
O74   O     O_2   0.773438 0.531324 0.358760 -0.582004
O75   O     O_2   0.521469 0.772038 0.642107 -0.579209
O76   O     O_2   0.226779 0.530052 0.641403 -0.580799
O77   O     O_2   0.478378 0.227956 0.642165 -0.579181
O78   O     O_R   0.607330 0.060620 0.999980 -0.619253
O79   O     O_2   0.773254 0.469754 0.641386 -0.580894
O80   O     O_R   0.439380 0.892670 0.500020 -0.618750
Zn1   Zn    Zn3+2 0.919060 0.500000 0.000000 1.012236
Zn2   Zn    Zn3+2 0.000000 0.000000 0.069040 1.105446
Zn3   Zn    Zn3+2 0.500000 0.500000 0.430960 1.105044
Zn4   Zn    Zn3+2 0.500000 0.500000 0.569040 1.106845
Zn5   Zn    Zn3+2 0.500000 0.080940 0.000000 1.012064
Zn6   Zn    Zn3+2 0.080940 0.500000 0.000000 1.012303
Zn7   Zn    Zn3+2 0.500000 0.919060 0.000000 1.012025
Zn8   Zn    Zn3+2 0.419060 0.000000 0.500000 1.011873
Zn9   Zn    Zn3+2 0.000000 0.580940 0.500000 1.011639
Zn10  Zn    Zn3+2 0.580940 0.000000 0.500000 1.011957
Zn11  Zn    Zn3+2 0.000000 0.419060 0.500000 1.011657
Zn12  Zn    Zn3+2 1.000000 0.000000 0.930960 1.103257

loop_
_geom_bond_atom_site_label_1
_geom_bond_atom_site_label_2
_ccdc_geom_bond_type
C87   O36   A    
C68   C80   A    
C6    C69   S    
C40   O14   A    
C43   O18   A    
C65   C79   A    
C82   O31   A    
O33   Zn2   S    
C31   C61   S    
C105  C116  A    
C52   O23   A    
C71   C77   A    
C108  C116  A    
C88   C124  S    
C11   C75   S    
C92   C110  A    
C11   H4    S    
C59   C77   A    
C63   O78   A    
O28   Zn12  S    
C7    O52   D    
O39   Zn3   S    
C38   O11   A    
C89   C125  S    
C9    H2    S    
O56   Zn7   S    
C48   C104  A    
O8    Zn9   S    
C55   C102  A    
C60   C78   A    
O41   Zn4   S    
C23   C54   S    
O29   Zn12  S    
C33   O79   D    
C85   O6    A    
C56   C97   A    
C62   C80   A    
C36   C124  T    
C127  O46   D    
C21   H14   S    
C37   C107  S    
C5    C72   S    
C42   O15   A    
C93   C108  A    
O19   Zn9   S    
C10   C73   S    
C10   O55   D    
C30   H22   S    
C15   C78   S    
C7    H31   S    
C32   O77   D    
C42   O17   A    
C98   C103  A    
C104  C115  A    
C8    C76   S    
C22   O68   D    
C26   H18   S    
C19   O64   D    
C46   O24   A    
O27   Zn12  S    
C18   H10   S    
C19   C49   S    
C10   H3    S    
O26   Zn9   S    
C20   C50   S    
C17   O62   D    
C42   C113  S    
O14   Zn1   S    
O25   Zn10  S    
O20   Zn10  S    
C40   C114  S    
C54   C71   A    
C29   C59   S    
C5    H29   S    
C47   C105  A    
C30   C60   S    
C22   H15   S    
O10   Zn5   S    
C56   C73   A    
C128  O47   D    
C30   O75   D    
C49   C108  A    
C11   O57   D    
O1    Zn1   S    
C55   C72   A    
C72   C76   A    
C28   O73   D    
C90   O41   A    
C1    O67   A    
O15   Zn7   S    
C89   O42   A    
C4    O49   D    
C1    O1    A    
C34   C122  T    
C74   O80   A    
C101  C114  A    
C90   C122  S    
C83   C120  S    
C16   O61   D    
O5    Zn8   S    
C87   O40   A    
C7    C70   S    
O45   Zn1   S    
C53   C70   A    
C44   O19   A    
C12   O58   D    
C74   O7    A    
C6    H30   S    
C45   O22   A    
C22   C53   S    
C37   C125  T    
C60   C92   A    
C53   C100  A    
C66   C78   A    
C41   O12   A    
O17   Zn5   S    
C43   O20   A    
C86   O30   A    
C28   H20   S    
C58   C99   A    
O11   Zn6   S    
C58   C76   A    
C52   O45   A    
C65   C128  S    
C17   C47   S    
C54   C103  A    
O4    Zn11  S    
O32   Zn2   S    
C8    O53   D    
C27   C57   S    
C67   C126  S    
C40   O16   A    
C41   O56   A    
C33   H26   S    
O16   Zn6   S    
C6    O51   D    
O36   Zn3   S    
C126  H1    S    
C126  O44   D    
C84   C121  S    
C85   O2    A    
C39   O10   A    
C94   C110  A    
C20   O65   D    
C18   C48   S    
C91   C109  A    
O23   Zn6   S    
C88   O37   A    
O24   Zn11  S    
C5    O50   D    
O22   Zn8   S    
C64   C81   A    
C13   C52   S    
C38   C116  S    
C36   C96   S    
C128  H23   S    
C91   C105  A    
C84   O33   A    
C25   O70   D    
C103  C114  A    
C70   C73   A    
C3    H27   S    
C63   O34   A    
C84   O29   A    
C9    C77   S    
C46   O26   A    
C18   O63   D    
O7    Zn10  S    
C68   C127  S    
C23   O69   D    
C34   C74   S    
O18   Zn8   S    
C27   H19   S    
C39   O13   A    
C4    H28   S    
O35   Zn2   S    
C67   C81   A    
C24   C63   S    
C39   C115  S    
O34   Zn7   S    
C62   C94   A    
O21   Zn11  S    
C9    O54   D    
C83   O28   A    
C3    C66   S    
C51   C101  A    
C127  H12   S    
C3    O48   D    
C16   H8    S    
C82   C119  S    
C23   H16   S    
C21   C51   S    
C97   C100  A    
C38   O9    A    
C50   C106  A    
O30   Zn12  S    
C57   C95   A    
C97   C112  A    
O40   Zn4   S    
C107  O8    A    
C94   C106  A    
C98   C111  A    
C49   C67   A    
C45   C110  S    
O31   Zn2   S    
C20   H13   S    
O3    Zn10  S    
C100  C113  A    
C25   C55   S    
O9    Zn1   S    
C26   C56   S    
C64   C93   A    
C17   H9    S    
C2    C119  T    
O43   Zn4   S    
C28   C58   S    
O38   Zn3   S    
O2    Zn9   S    
C14   H6    S    
C31   O76   D    
C82   O27   A    
C86   O32   A    
O6    Zn11  S    
C96   O3    A    
C106  C115  A    
C12   H5    S    
C16   C79   S    
C48   C66   A    
C57   C75   A    
C35   C123  T    
C32   C62   S    
C2    C41   S    
C102  C113  A    
C95   C111  A    
C117  C118  T    
O67   Zn6   S    
C87   C123  S    
C31   H24   S    
C35   C85   S    
C45   O25   A    
O12   Zn5   S    
C61   C79   A    
C33   C64   S    
C99   C112  A    
C12   C80   S    
O78   Zn5   S    
C24   C121  T    
O37   Zn3   S    
C69   C75   A    
C86   C117  S    
O42   Zn4   S    
C1    C118  S    
C88   O43   A    
C83   O35   A    
C14   O59   D    
C26   O71   D    
C29   O74   D    
C21   O66   D    
C92   C104  A    
C29   H21   S    
C32   H25   S    
C44   C111  S    
C61   C91   A    
C27   O72   D    
C99   C102  A    
C15   H7    S    
C107  O4    A    
C19   H11   S    
C43   C112  S    
C46   C109  S    
C90   O39   A    
O80   Zn8   S    
C59   C98   A    
C96   O5    A    
C25   H17   S    
C13   C120  T    
C51   C69   A    
C14   C81   S    
C89   O38   A    
C15   O60   D    
C50   C68   A    
C44   O21   A    
C47   C65   A    
C4    C71   S    
C95   C101  A    
C93   C109  A    
O13   Zn7   S    
C8    H32   S    
