data_mof_unit_10853.cif
_audit_creation_date              2012-10-26T21:19:40-0400
_audit_creation_method            fapswitch 2.2
_symmetry_space_group_name_H-M    P1
_symmetry_Int_Tables_number       1
_space_group_crystal_system       triclinic
_cell_length_a                    10.90576
_cell_length_b                    15.117205
_cell_length_c                    13.97047
_cell_angle_alpha                 88.351872
_cell_angle_beta                  91.280868
_cell_angle_gamma                 91.018401
_cell_volume                      2301.36977985

loop_
_atom_site_label
_atom_site_type_symbol
_atom_type_description
_atom_site_fract_x
_atom_site_fract_y
_atom_site_fract_z
_atom_type_partial_charge
C1    C     C_R   0.499064 0.330442 0.500847 0.536234
C2    C     C_R   0.483252 0.815239 0.410669 -0.123776
C3    C     C_R   0.497139 0.234639 0.501349 0.015903
C4    C     C_R   0.493752 0.766997 0.497326 -0.009779
C5    C     C_R   0.599433 0.190331 0.470362 -0.099216
C6    C     C_R   0.495904 0.811372 0.583929 -0.115868
C7    C     C_R   0.599293 0.097843 0.468251 0.040228
C8    C     C_R   0.493513 0.903541 0.585648 0.012090
C9    C     C_R   0.491659 0.050060 0.495622 0.034334
C10   C     C_R   0.488489 0.952385 0.497352 0.025002
C11   C     C_R   0.600571 0.548674 0.110644 -0.014419
C12   C     C_R   0.498357 0.670130 0.498887 0.558563
C13   C     C_R   0.492292 0.416603 0.894317 -0.017129
C14   C     C_R   0.582535 0.554598 0.211352 0.149325
C15   C     C_R   0.469641 0.424198 0.793291 0.137919
C16   C     C_R   0.262069 0.499085 0.498769 0.546210
C17   C     C_R   0.737467 0.498083 0.501024 0.546971
C18   C     C_R   0.423554 0.446811 0.207520 0.030201
C19   C     C_R   0.528092 0.574727 0.790371 0.024549
C20   C     C_R   0.424560 0.449352 0.106891 -0.156299
C21   C     C_R   0.525549 0.575001 0.891182 -0.169241
C22   C     C_R   0.514751 0.497581 0.055697 0.023944
C23   C     C_R   0.871142 0.495564 0.502235 -0.002293
C24   C     C_R   0.513099 0.495557 0.946237 0.024176
C25   C     C_R   0.160367 0.601473 0.170168 -0.015613
C26   C     C_R   0.766320 0.286477 0.722659 0.002272
C27   C     C_R   0.134186 0.600753 0.267970 -0.088655
C28   C     C_R   0.811202 0.337920 0.645906 -0.063005
C29   C     C_R   0.105745 0.520572 0.315899 0.027432
C30   C     C_R   0.883906 0.413893 0.663180 0.027503
C31   C     C_R   0.103736 0.441434 0.266083 -0.108259
C32   C     C_R   0.911007 0.437432 0.757751 -0.101646
C33   C     C_R   0.128703 0.441993 0.168607 -0.011696
C34   C     C_R   0.127712 0.497178 0.496729 -0.001661
C35   C     C_R   0.866922 0.385061 0.833895 0.002281
C36   C     C_R   0.155677 0.522300 0.120186 -0.114546
C37   C     C_R   0.795824 0.309370 0.816360 -0.110271
C38   C     C_R   0.930913 0.522464 0.418798 -0.139095
C39   C     C_R   0.067674 0.470103 0.580538 -0.143270
C40   C     C_3   0.714018 0.053487 0.434773 -0.269020
C41   C     C_3   0.786466 0.009671 0.517231 -0.417251
C42   C     C_3   0.490150 0.945699 0.682947 -0.262561
C43   C     C_3   0.608176 0.931119 0.741935 -0.419478
C44   C     C_3   0.709360 0.596951 0.063514 -0.296293
C45   C     C_R   0.940015 0.463920 0.582361 -0.027027
C46   C     C_3   0.833190 0.582958 0.115717 -0.409382
C47   C     C_3   0.492713 0.323692 0.941782 -0.286260
C48   C     C_3   0.597572 0.307646 0.015023 -0.418442
C49   C     C_1   0.648942 0.621533 0.263897 0.251337
C50   C     C_1   0.394204 0.356530 0.749602 0.246523
C51   C     C_1   0.190387 0.683556 0.120727 0.183364
C52   C     C_1   0.691302 0.209249 0.706520 0.184074
C53   C     C_1   0.130487 0.359421 0.119666 0.195705
C54   C     C_1   0.895750 0.407788 0.930454 0.181108
C55   C     C_1   0.272082 0.050179 0.542430 0.194992
C56   C     C_R   0.057385 0.518599 0.413311 -0.028386
C57   C     C_1   0.461672 0.954389 0.319476 0.191409
C58   C     C_R   0.385860 0.096144 0.520623 -0.016604
C59   C     C_R   0.478772 0.907327 0.410206 -0.022002
C60   C     C_R   0.390041 0.188064 0.524700 -0.110052
Cu1   Cu    Cu3+1 0.500000 0.499990 0.596430 0.968865
Cu2   Cu    Cu3+1 0.500000 0.500010 0.403570 0.963723
H1    H     H_    0.175053 0.522947 0.044363 0.125497
H2    H     H_    0.967561 0.495536 0.771837 0.111631
H3    H     H_    0.878546 0.541563 0.354833 0.149228
H4    H     H_    0.120514 0.447155 0.642797 0.148166
H5    H     H_    0.309056 0.223599 0.543834 0.136261
H6    H     H_    0.477218 0.781279 0.343365 0.151430
H7    H     H_    0.680195 0.228275 0.449296 0.095466
H8    H     H_    0.498450 0.774085 0.651269 0.126232
H9    H     H_    0.801518 0.056427 0.576403 0.176243
H10   H     H_    0.737901 0.949222 0.543853 0.163056
H11   H     H_    0.877252 0.989657 0.491569 0.164546
H12   H     H_    0.764522 0.267614 0.875411 0.116686
H13   H     H_    0.690915 0.004030 0.379940 0.161127
H14   H     H_    0.775764 0.103062 0.399262 0.143453
H15   H     H_    0.625351 0.859523 0.754381 0.136194
H16   H     H_    0.599850 0.961909 0.812656 0.163348
H17   H     H_    0.687641 0.962381 0.705364 0.173065
H18   H     H_    0.473873 0.017532 0.677433 0.192244
H19   H     H_    0.411819 0.916332 0.723132 0.154149
H20   H     H_    0.851548 0.634197 0.169497 0.158272
H21   H     H_    0.837247 0.516410 0.151345 0.183464
H22   H     H_    0.908446 0.590267 0.063704 0.170706
H23   H     H_    0.358928 0.404023 0.244767 0.139444
H24   H     H_    0.722431 0.573239 0.990289 0.167012
H25   H     H_    0.690843 0.668966 0.057934 0.144921
H26   H     H_    0.630465 0.238795 0.010518 0.145304
H27   H     H_    0.675632 0.353939 0.002328 0.180510
H28   H     H_    0.566171 0.314788 0.089181 0.165574
H29   H     H_    0.402907 0.307311 0.973956 0.160733
H30   H     H_    0.504069 0.273655 0.886047 0.156808
H31   H     H_    0.548082 0.636106 0.752097 0.126759
H32   H     H_    0.355166 0.412221 0.068859 0.117161
H33   H     H_    0.536855 0.637697 0.926057 0.107063
H34   H     H_    0.133193 0.662166 0.306116 0.122049
H35   H     H_    0.791423 0.318361 0.573098 0.091962
H36   H     H_    0.080107 0.379607 0.303089 0.116562
N1    N     N_R   0.500000 0.500020 0.258690 -0.249850
N2    N     N_1   0.448004 0.992134 0.246888 -0.278733
N3    N     N_R   0.500000 0.499980 0.741310 -0.241560
N4    N     N_1   0.702415 0.675813 0.305208 -0.329168
N5    N     N_1   0.332033 0.302078 0.716495 -0.318060
N6    N     N_1   0.214636 0.749545 0.080960 -0.285375
N7    N     N_1   0.630565 0.146962 0.694861 -0.335584
N8    N     N_1   0.132251 0.293057 0.080469 -0.286113
N9    N     N_1   0.917852 0.425283 0.008807 -0.336500
N10   N     N_1   0.181023 0.013338 0.559892 -0.302208
O1    O     O_R   0.500010 0.371450 0.581430 -0.489712
O2    O     O_R   0.499990 0.628550 0.418570 -0.490710
O3    O     O_R   0.500010 0.371460 0.418560 -0.510184
O4    O     O_R   0.499990 0.628540 0.581440 -0.522705
O5    O     O_R   0.319640 0.500000 0.581430 -0.502842
O6    O     O_R   0.680360 0.500000 0.418570 -0.509728
O7    O     O_R   0.319640 0.500010 0.418560 -0.500378
O8    O     O_R   0.680360 0.499990 0.581440 -0.490654

loop_
_geom_bond_atom_site_label_1
_geom_bond_atom_site_label_2
_ccdc_geom_bond_type
C28   H35   S    
C37   H12   S    
C34   C56   A    
C23   C45   A    
C27   C29   A    
C47   H30   S    
C30   C45   S    
C2    C4    A    
Cu1   O1    S    
C16   O5    A    
C12   O2    A    
C14   N1    A    
C43   H16   S    
C42   H18   S    
C17   C23   S    
C54   N9    T    
C35   C37   A    
C8    C42   S    
Cu2   O6    S    
C2    H6    S    
C11   C14   A    
C46   H21   S    
C15   C50   S    
C14   C49   S    
C58   C60   A    
C33   C36   A    
C6    H8    S    
C9    C58   A    
C31   H36   S    
C5    H7    S    
C16   C34   S    
C46   H20   S    
C53   N8    T    
Cu2   O3    S    
C60   H5    S    
C7    C40   S    
C48   H26   S    
C4    C12   S    
C36   H1    S    
C9    C10   S    
C19   H31   S    
C41   H9    S    
C1    O1    A    
C3    C60   A    
C50   N5    T    
C48   H28   S    
C35   C54   S    
C27   H34   S    
C42   H19   S    
C44   H24   S    
C44   C46   S    
C17   O6    A    
C33   C53   S    
C18   H23   S    
C34   C39   A    
C32   C35   A    
C32   H2    S    
C4    C6    A    
C49   N4    T    
C5    C7    A    
C2    C59   A    
C6    C8    A    
C21   H33   S    
C51   N6    T    
C57   N2    T    
C40   H14   S    
C13   C24   A    
C1    C3    S    
Cu1   N3    S    
C25   C51   S    
C26   C52   S    
C47   C48   S    
Cu2   O2    S    
C38   H3    S    
Cu1   O8    S    
C31   C33   A    
C11   C44   S    
C15   N3    A    
C41   H10   S    
C46   H22   S    
C40   C41   S    
C20   C22   A    
C52   N7    T    
C48   H27   S    
C13   C15   A    
Cu1   O5    S    
C39   H4    S    
C22   C24   S    
C21   C24   A    
C43   H15   S    
C18   N1    A    
C44   H25   S    
C16   O7    A    
C12   O4    A    
C13   C47   S    
C7    C9    A    
C20   H32   S    
C19   C21   A    
C47   H29   S    
C3    C5    A    
C26   C37   A    
C29   C56   S    
C25   C27   A    
C23   C38   A    
C11   C22   A    
C26   C28   A    
C40   H13   S    
C39   C45   A    
C55   N10   T    
C28   C30   A    
C10   C59   A    
Cu2   O7    S    
C29   C31   A    
C1    O3    A    
C30   C32   A    
C19   N3    A    
C18   C20   A    
Cu1   Cu2   S    
C57   C59   S    
C25   C36   A    
C41   H11   S    
Cu2   N1    S    
C38   C56   A    
C8    C10   A    
C42   C43   S    
C55   C58   S    
Cu1   O4    S    
C43   H17   S    
C17   O8    A    
