data_mof_unit_30741.cif
_audit_creation_date              2013-03-05T15:44:53-0500
_audit_creation_method            fapswitch 2.2
_symmetry_space_group_name_H-M    P1
_symmetry_Int_Tables_number       1
_space_group_crystal_system       triclinic
_cell_length_a                    15.576116
_cell_length_b                    15.743003
_cell_length_c                    10.157182
_cell_angle_alpha                 90.000349
_cell_angle_beta                  57.486642
_cell_angle_gamma                 90.000069
_cell_volume                      2100.31607388

loop_
_atom_site_label
_atom_site_type_symbol
_atom_site_description
_atom_site_fract_x
_atom_site_fract_y
_atom_site_fract_z
_atom_type_partial_charge
O1    O     O_R   0.422430 0.089640 0.419570 -0.598421
O2    O     O_R   0.577570 0.910360 0.580430 -0.597691
O3    O     O_R   0.577570 0.089640 0.580430 -0.598424
O4    O     O_R   0.422430 0.910360 0.419570 -0.597698
O5    O     O_R   0.922430 0.589640 0.419570 -0.598413
O6    O     O_R   0.077570 0.410360 0.580430 -0.597692
O7    O     O_R   0.077570 0.589640 0.580430 -0.598422
O8    O     O_R   0.922430 0.410360 0.419570 -0.597695
O9    O     O_R   0.384170 0.089650 0.673910 -0.567831
O10   O     O_R   0.615830 0.910350 0.326090 -0.573410
O11   O     O_R   0.615830 0.089650 0.326090 -0.567814
O12   O     O_R   0.384170 0.910350 0.673910 -0.573374
O13   O     O_R   0.884170 0.589650 0.673910 -0.567847
O14   O     O_R   0.115830 0.410350 0.326090 -0.573416
O15   O     O_R   0.115830 0.589650 0.326090 -0.567845
O16   O     O_R   0.884170 0.410350 0.673910 -0.573424
C1    C     C_R   0.372118 0.118735 0.563271 0.762999
C2    C     C_R   0.628280 0.881639 0.436543 0.764544
C3    C     C_R   0.627882 0.118734 0.436730 0.763038
C4    C     C_R   0.371724 0.881638 0.563453 0.764640
C5    C     C_R   0.872119 0.618736 0.563271 0.762949
C6    C     C_R   0.128276 0.381636 0.436546 0.764567
C7    C     C_R   0.127873 0.618742 0.436735 0.763015
C8    C     C_R   0.871727 0.381634 0.563451 0.764580
C9    C     C_2   0.512112 0.998845 0.915589 0.326377
C10   C     C_2   0.487888 0.998845 0.084411 0.326381
C11   C     C_2   0.012112 0.498847 0.915588 0.326331
C12   C     C_2   0.987888 0.498845 0.084410 0.326331
Cu1   Cu    Cu3+1 0.522650 0.000000 0.349410 0.916377
Cu2   Cu    Cu3+1 0.477350 0.000000 0.650590 0.916376
Cu3   Cu    Cu3+1 0.022650 0.500000 0.349410 0.916374
Cu4   Cu    Cu3+1 0.977350 0.500000 0.650590 0.916378
N1    N     N_2   0.443290 1.000000 0.876860 -0.138398
N2    N     N_2   0.556710 0.000000 0.123140 -0.138407
N3    N     N_2   0.943290 0.500000 0.876860 -0.138428
N4    N     N_2   0.056710 0.500000 0.123140 -0.138425
H1    H     H_    0.679594 0.182220 0.622551 0.189793
H2    H     H_    0.315237 0.822005 0.380695 0.189376
H3    H     H_    0.320441 0.182245 0.377427 0.189789
H4    H     H_    0.684738 0.821985 0.619313 0.189347
H5    H     H_    0.179411 0.682352 0.622684 0.189846
H6    H     H_    0.815467 0.321840 0.380519 0.189435
H7    H     H_    0.820461 0.682261 0.377418 0.189783
H8    H     H_    0.184609 0.321895 0.619420 0.189402
C13   C     C_2   0.298430 0.812702 0.600711 0.073010
C14   C     C_2   0.700148 0.188575 0.399962 0.073566
C15   C     C_2   0.701573 0.812700 0.399279 0.073053
C16   C     C_2   0.299857 0.188581 0.600036 0.073584
C17   C     C_2   0.798440 0.312691 0.600705 0.073004
C18   C     C_2   0.200113 0.688605 0.399987 0.073560
C19   C     C_2   0.201568 0.312697 0.399286 0.073020
C20   C     C_2   0.799866 0.688592 0.600034 0.073604
C21   C     C_2   0.280160 0.788152 0.490824 -0.171198
C22   C     C_2   0.716129 0.214932 0.511339 -0.169280
C23   C     C_2   0.719813 0.788129 0.509189 -0.171127
C24   C     C_2   0.283899 0.214953 0.488643 -0.169235
C25   C     C_2   0.780291 0.288055 0.490728 -0.171031
C26   C     C_2   0.216006 0.715023 0.511427 -0.169118
C27   C     C_2   0.219751 0.288086 0.509239 -0.171062
C28   C     C_2   0.783927 0.714977 0.488626 -0.169141
C29   C     C_3   0.665725 0.986903 0.021972 -0.541278
H9    H     H_    0.700360 0.990217 0.092211 0.231296
H10   H     H_    0.683200 0.921953 0.971821 0.178227
H11   H     H_    0.704486 0.039830 0.939640 0.171192
C30   C     C_3   0.334275 0.986907 0.978028 -0.541309
H12   H     H_    0.299639 0.990223 0.907789 0.231281
H13   H     H_    0.316796 0.921958 0.028180 0.178222
H14   H     H_    0.295517 0.039835 0.060360 0.171201
C31   C     C_3   0.165726 0.486914 0.021970 -0.541282
H15   H     H_    0.200361 0.490228 0.092208 0.231324
H16   H     H_    0.183210 0.421967 0.971808 0.178206
H17   H     H_    0.204477 0.539845 0.939644 0.171190
C32   C     C_3   0.834277 0.486901 0.978028 -0.541261
H18   H     H_    0.799639 0.490213 0.907793 0.231329
H19   H     H_    0.816805 0.421952 0.028179 0.178195
H20   H     H_    0.795516 0.539827 0.060361 0.171198
N5    N     N_2   0.748000 0.229684 0.251569 -0.431148
H21   H     H_    0.702814 0.232846 0.205895 0.262118
C33   C     C_3   0.849022 0.198436 0.138708 -0.710036
H22   H     H_    0.882902 0.237199 0.030592 0.225135
H23   H     H_    0.845220 0.131113 0.109127 0.222412
H24   H     H_    0.899175 0.203316 0.185142 0.239829
N6    N     N_2   0.252068 0.770418 0.747865 -0.429865
H25   H     H_    0.298794 0.765627 0.790644 0.261479
C34   C     C_3   0.152164 0.802308 0.864196 -0.711388
H26   H     H_    0.119105 0.762602 0.971098 0.227854
H27   H     H_    0.100337 0.799489 0.820550 0.239314
H28   H     H_    0.157718 0.869007 0.894907 0.220800
N7    N     N_2   0.251988 0.229678 0.748444 -0.431155
H29   H     H_    0.297134 0.232781 0.794192 0.262142
C35   C     C_3   0.150922 0.198489 0.861230 -0.710050
H30   H     H_    0.117063 0.237212 0.969386 0.225132
H31   H     H_    0.154629 0.131136 0.890752 0.222402
H32   H     H_    0.100802 0.203486 0.814755 0.239851
N8    N     N_2   0.747963 0.770444 0.252092 -0.429884
H33   H     H_    0.701315 0.765774 0.209166 0.261540
C36   C     C_3   0.847957 0.802221 0.135907 -0.711507
H34   H     H_    0.880940 0.762624 0.028891 0.227848
H35   H     H_    0.899739 0.799122 0.179595 0.239369
H36   H     H_    0.842602 0.868999 0.105383 0.220812
N9    N     N_2   0.248035 0.729663 0.251539 -0.431162
H37   H     H_    0.202943 0.732717 0.205698 0.262179
C37   C     C_3   0.349131 0.698492 0.138868 -0.710137
H38   H     H_    0.383008 0.737154 0.030649 0.225131
H39   H     H_    0.345483 0.631119 0.109434 0.222403
H40   H     H_    0.399198 0.703585 0.185404 0.239919
N10   N     N_2   0.751934 0.270518 0.747984 -0.429871
H41   H     H_    0.798512 0.265886 0.791044 0.261556
C38   C     C_3   0.651927 0.302359 0.863987 -0.711487
H42   H     H_    0.618884 0.262871 0.971130 0.227822
H43   H     H_    0.600197 0.299165 0.820217 0.239385
H44   H     H_    0.657281 0.369177 0.894321 0.220794
N11   N     N_2   0.751997 0.729682 0.748450 -0.431159
H45   H     H_    0.797097 0.732700 0.794280 0.262191
C39   C     C_3   0.650868 0.698592 0.861159 -0.710174
H46   H     H_    0.617072 0.737232 0.969394 0.225120
H47   H     H_    0.654429 0.631194 0.890551 0.222422
H48   H     H_    0.600778 0.703795 0.814684 0.239906
N12   N     N_2   0.248036 0.270497 0.252036 -0.429872
H49   H     H_    0.201434 0.265857 0.209018 0.261543
C40   C     C_3   0.348042 0.302316 0.135979 -0.711439
H50   H     H_    0.381055 0.262802 0.028868 0.227829
H51   H     H_    0.399799 0.299135 0.179712 0.239351
H52   H     H_    0.342690 0.369131 0.105610 0.220795
C41   C     C_3   0.376871 0.004014 0.214904 -0.805112
H53   H     H_    0.345076 0.065803 0.209627 0.201307
H54   H     H_    0.334943 0.947626 0.215232 0.193858
H55   H     H_    0.357628 0.001242 0.333100 0.273922
C42   C     C_3   0.623129 0.004012 0.785096 -0.805118
H56   H     H_    0.665055 0.947621 0.784765 0.193876
H57   H     H_    0.642372 0.001243 0.666900 0.273922
H58   H     H_    0.654926 0.065799 0.790377 0.201298
C43   C     C_3   0.876871 0.504007 0.214905 -0.805073
H59   H     H_    0.834949 0.447613 0.215237 0.193883
H60   H     H_    0.857628 0.501241 0.333101 0.273940
H61   H     H_    0.845069 0.565793 0.209630 0.201299
C44   C     C_3   0.123130 0.504018 0.785092 -0.805057
H62   H     H_    0.154925 0.565808 0.790364 0.201308
H63   H     H_    0.165060 0.447630 0.784760 0.193867
H64   H     H_    0.142372 0.501242 0.666898 0.273942

loop_
_geom_bond_atom_site_label_1
_geom_bond_atom_site_label_2
_geom_bond_distance
_ccdc_geom_bond_type
O6    Cu4   1.933987 S    
N9    H37   1.031492 S    
O3    Cu2   1.933990 S    
C32   H19   1.109061 S    
C32   H18   1.102942 S    
O13   Cu4   1.945504 S    
N8    H33   1.031516 S    
C1    C16   1.470908 S    
O14   Cu3   1.945504 S    
C9    C42   1.513191 S    
C2    C15   1.469682 S    
C36   H36   1.111801 S    
C36   H34   1.110736 S    
C3    C14   1.470890 S    
N1    C30   1.451210 S    
C17   N10   1.427748 S    
N5    H21   1.031544 S    
C42   H57   1.070608 S    
C44   H63   1.101011 S    
O11   C3    1.317024 A    
C11   C44   1.513205 S    
H5    C26   1.083538 S    
N11   H45   1.031486 S    
C38   H43   1.111089 S    
O7    C7    1.313285 A    
O2    C2    1.312749 A    
H8    C27   1.084822 S    
C39   H46   1.110683 S    
O6    C6    1.312742 A    
C17   C25   1.348191 D    
C31   H16   1.109067 S    
C29   H10   1.109072 S    
C40   H52   1.111830 S    
C20   C28   1.347850 D    
C10   N2    1.325720 D    
H3    C24   1.083518 S    
C39   H47   1.111679 S    
C41   H55   1.070609 S    
C19   N12   1.427744 S    
N10   H41   1.031543 S    
O3    C3    1.313286 A    
N7    C35   1.446712 S    
O4    Cu1   1.933991 S    
C42   H58   1.105849 S    
C30   H14   1.102435 S    
N5    C33   1.446719 S    
C13   C21   1.348166 D    
O16   C8    1.316985 A    
C23   C28   1.463888 S    
C43   H60   1.070605 S    
N10   C38   1.446724 S    
C14   C22   1.347825 D    
C13   N6    1.427707 S    
H6    C25   1.084826 S    
C36   H35   1.111110 S    
C34   H27   1.111251 S    
C44   H64   1.070604 S    
C12   C43   1.513198 S    
C18   C26   1.347847 D    
Cu4   N3    2.062222 S    
C38   H44   1.111760 S    
C35   H30   1.110755 S    
C33   H23   1.111858 S    
C7    C18   1.470927 S    
C11   N3    1.325719 D    
C9    C10   1.545063 S    
C34   H26   1.110799 S    
Cu1   N2    2.062222 S    
N2    C29   1.451211 S    
C10   C41   1.513192 S    
C29   H11   1.102436 S    
Cu1   Cu2   2.745144 S    
C35   H31   1.111848 S    
N6    H25   1.031583 S    
C21   C26   1.463891 S    
C39   H48   1.110938 S    
O12   C4    1.316977 A    
O1    Cu1   1.933986 S    
O13   C5    1.317032 A    
C37   H39   1.111699 S    
C12   N4    1.325718 D    
C40   H50   1.110679 S    
N12   C40   1.446732 S    
O9    Cu2   1.945504 S    
C43   H61   1.105851 S    
H1    C22   1.083521 S    
H7    C28   1.083516 S    
O9    C1    1.317030 A    
N6    C34   1.446771 S    
C16   N7    1.427782 S    
C41   H53   1.105851 S    
C32   H20   1.102423 S    
C19   C27   1.348191 D    
C11   C12   1.545069 S    
C31   H17   1.102435 S    
N4    C31   1.451205 S    
C15   C23   1.348182 D    
C42   H56   1.101013 S    
C34   H28   1.111919 S    
C8    C17   1.469681 S    
C16   C24   1.347835 D    
N3    C32   1.451200 S    
O7    Cu4   1.933990 S    
Cu2   N1    2.062222 S    
O12   Cu2   1.945505 S    
O8    Cu3   1.933991 S    
Cu3   Cu4   2.745144 S    
C4    C13   1.469656 S    
H4    C23   1.084796 S    
C33   H24   1.111164 S    
N12   H49   1.031554 S    
N8    C36   1.446689 S    
O15   Cu3   1.945503 S    
O16   Cu4   1.945505 S    
C14   N5    1.427776 S    
C44   H62   1.105860 S    
O1    C1    1.313289 A    
C30   H13   1.109072 S    
C24   C27   1.463884 S    
O2    Cu2   1.933987 S    
O14   C6    1.316984 A    
C29   H9    1.102943 S    
C38   H42   1.110669 S    
C35   H32   1.111140 S    
O10   Cu1   1.945504 S    
C43   H59   1.101015 S    
H2    C21   1.084813 S    
O10   C2    1.316977 A    
C20   N11   1.427802 S    
O15   C7    1.317041 A    
O8    C8    1.312739 A    
C37   H40   1.110980 S    
C31   H15   1.102946 S    
C40   H51   1.111168 S    
C33   H22   1.110784 S    
O4    C4    1.312737 A    
O5    C5    1.313296 A    
O11   Cu1   1.945503 S    
C18   N9    1.427788 S    
N9    C37   1.446677 S    
C30   H12   1.102944 S    
C37   H38   1.110685 S    
C41   H54   1.101008 S    
C15   N8    1.427733 S    
Cu3   N4    2.062222 S    
O5    Cu3   1.933986 S    
N7    H29   1.031520 S    
C5    C20   1.470934 S    
C9    N1    1.325718 D    
C6    C19   1.469682 S    
N11   C39   1.446677 S    
C22   C25   1.463875 S    
