data_mof_unit_58445.cif
_audit_creation_date              2012-12-11T16:37:29-0500
_audit_creation_method            fapswitch 2.2
_symmetry_space_group_name_H-M    P1
_symmetry_Int_Tables_number       1
_space_group_crystal_system       triclinic
_cell_length_a                    18.932199
_cell_length_b                    18.80838
_cell_length_c                    20.534523
_cell_angle_alpha                 106.826685
_cell_angle_beta                  106.762318
_cell_angle_gamma                 111.017424
_cell_volume                      5870.19098651

loop_
_atom_site_label
_atom_site_type_symbol
_atom_type_description
_atom_site_fract_x
_atom_site_fract_y
_atom_site_fract_z
_atom_type_partial_charge
C1    C     C_R   0.084050 0.088931 0.355310 -0.108259
C2    C     C_R   0.237618 0.074137 0.495959 -0.127218
C3    C     C_R   0.885872 0.319861 0.686044 -0.108697
C4    C     C_R   0.915075 0.272488 0.716047 -0.140654
C5    C     C_R   0.893815 0.190343 0.668480 -0.178570
C6    C     C_R   0.153613 0.222561 0.709492 -0.133982
C7    C     C_R   0.753080 0.929174 0.474222 -0.155882
C8    C     C_R   0.044743 0.797493 0.473354 -0.130003
C9    C     C_R   0.229523 0.272338 0.711040 0.043810
C10   C     C_R   0.023506 0.765697 0.522084 0.031807
C11   C     C_R   0.240903 0.005407 0.451078 0.051884
C12   C     C_R   0.988428 0.979619 0.726757 0.045434
C13   C     C_R   0.113344 0.515623 0.658293 -0.185025
C14   C     C_R   0.091824 0.430982 0.639400 -0.156133
C15   C     C_R   0.743602 0.000576 0.496213 -0.024976
C16   C     C_R   0.089885 0.381240 0.572345 0.147896
C17   C     C_R   0.119010 0.419647 0.529476 -0.180551
C18   C     C_R   0.140141 0.503873 0.548141 -0.169853
C19   C     C_R   0.838418 0.808677 0.280917 -0.136546
C20   C     C_R   0.132183 0.550844 0.609912 0.119957
C21   C     C_R   0.167763 0.679863 0.587591 -0.186474
C22   C     C_R   0.137762 0.728603 0.561299 -0.163683
C23   C     C_R   0.060434 0.722308 0.557783 0.146685
C24   C     C_R   0.017844 0.673024 0.587677 -0.178512
C25   C     C_R   0.047651 0.624334 0.613719 -0.167653
C26   C     C_R   0.756216 0.777254 0.272943 0.048057
C27   C     C_R   0.120385 0.623892 0.610042 0.117519
C28   C     C_R   0.546081 0.979792 0.365047 -0.160508
C29   C     C_R   0.617252 0.970751 0.391311 -0.165443
C30   C     C_R   0.665453 0.003225 0.469390 0.134630
C31   C     C_R   0.005415 0.238306 0.568704 -0.127174
C32   C     C_R   0.643132 0.045100 0.521216 -0.174802
C33   C     C_R   0.572267 0.053976 0.495151 -0.185516
C34   C     C_R   0.522907 0.020443 0.417085 0.115582
C35   C     C_R   0.434641 0.088145 0.420708 -0.193078
C36   C     C_R   0.366314 0.085381 0.434409 -0.164820
C37   C     C_R   0.053773 0.289040 0.544208 0.021700
C38   C     C_R   0.302162 0.007765 0.420150 0.134887
C39   C     C_R   0.300926 0.932103 0.381227 -0.238245
C40   C     C_R   0.369186 0.934315 0.367380 0.025134
C41   C     C_R   0.439500 0.013568 0.393210 0.049613
C42   C     C_R   0.288286 0.362618 0.762142 0.145786
C43   C     C_R   0.760910 0.797747 0.345178 -0.130391
C44   C     C_R   0.265036 0.411634 0.808403 -0.183179
C45   C     C_R   0.324319 0.493979 0.862716 -0.155947
C46   C     C_R   0.407890 0.528145 0.871582 0.221556
C47   C     C_R   0.428153 0.482981 0.819777 -0.181915
C48   C     C_R   0.230449 0.226946 0.645205 -0.126885
C49   C     C_R   0.369143 0.400330 0.765867 -0.183265
C50   C     C_R   0.609896 0.712294 0.073001 -0.181557
C51   C     C_R   0.682505 0.751563 0.140220 -0.192105
C52   C     C_R   0.532090 0.656438 0.066556 0.161672
C53   C     C_R   0.678899 0.736802 0.202488 0.141354
C54   C     C_R   0.600787 0.685661 0.197938 -0.253097
C55   C     C_R   0.076315 0.239812 0.499878 -0.117541
C56   C     C_R   0.527039 0.645260 0.130436 0.011613
C57   C     C_R   0.101104 0.034493 0.236337 0.073563
C58   C     C_R   0.118258 0.971079 0.200450 -0.187983
C59   C     C_R   0.964269 0.787358 0.534753 -0.123559
C60   C     C_R   0.149368 0.976305 0.147367 -0.164506
C61   C     C_R   0.166027 0.046548 0.131187 0.211198
C62   C     C_R   0.159659 0.114557 0.173810 -0.247693
C63   C     C_R   0.123657 0.108135 0.223711 0.012232
C64   C     C_R   0.060359 0.034220 0.933595 -0.227293
C65   C     C_R   0.021979 0.033658 0.864363 0.003429
C66   C     C_R   0.087341 0.974374 0.938044 0.223660
C67   C     C_R   0.823184 0.069890 0.540323 0.038578
C68   C     C_R   0.012551 0.973037 0.798283 0.071685
C69   C     C_R   0.036191 0.910972 0.802438 -0.183876
C70   C     C_R   0.167610 0.933966 0.430729 -0.143520
C71   C     C_R   0.072240 0.910951 0.871953 -0.192054
C72   C     C_R   0.015528 0.948785 0.289712 -0.140976
C73   C     C_R   0.062407 0.024141 0.288052 0.036132
C74   C     C_R   0.370457 0.853726 0.336343 0.121769
C75   C     C_R   0.333483 0.805142 0.257759 -0.180081
C76   C     C_R   0.336262 0.729825 0.228058 -0.105404
C77   C     C_R   0.375878 0.702685 0.276632 -0.085055
C78   C     C_R   0.412306 0.750615 0.355046 -0.130981
C79   C     C_R   0.409353 0.825820 0.384981 -0.121560
C80   C     C_R   0.446102 0.585994 0.125445 0.144267
C81   C     C_R   0.017077 0.053973 0.718737 -0.122941
C82   C     C_R   0.442738 0.525795 0.153937 -0.162479
C83   C     C_R   0.366243 0.468514 0.147189 -0.118833
C84   C     C_R   0.292385 0.470489 0.111850 -0.091711
C85   C     C_R   0.294964 0.530123 0.083621 -0.139045
C86   C     C_R   0.371402 0.587998 0.090774 -0.156000
C87   C     C_R   0.988220 0.093601 0.862684 0.121766
C88   C     C_R   0.039366 0.180614 0.911853 -0.169516
C89   C     C_R   0.006726 0.236525 0.911723 -0.121315
C90   C     C_R   0.922806 0.206071 0.862986 -0.099040
C91   C     C_R   0.871566 0.119801 0.813755 -0.116359
C92   C     C_R   0.942531 0.912890 0.654675 -0.145536
C93   C     C_R   0.903922 0.063652 0.813624 -0.145217
C94   C     C_R   0.101997 0.174910 0.254146 0.116142
C95   C     C_R   0.165577 0.259661 0.299394 -0.176744
C96   C     C_R   0.145240 0.322570 0.328519 -0.127250
C97   C     C_R   0.061393 0.301500 0.312102 -0.103862
C98   C     C_R   0.997692 0.217522 0.266414 -0.101697
C99   C     C_R   0.017709 0.154414 0.237147 -0.134169
C100  C     C_R   0.843946 0.155668 0.590262 0.096083
C101  C     C_R   0.814417 0.203413 0.560500 -0.137708
C102  C     C_R   0.835415 0.285275 0.608385 -0.111522
H1    H     H_    0.931898 0.769072 0.567064 0.083970
H2    H     H_    0.119355 0.383190 0.478156 0.116169
H3    H     H_    0.702866 0.864746 0.445695 0.104620
H4    H     H_    0.224636 0.681231 0.585225 0.114006
H5    H     H_    0.173629 0.768677 0.541297 0.112092
H6    H     H_    0.958541 0.667307 0.586518 0.105899
H7    H     H_    0.009110 0.580980 0.629755 0.113421
H8    H     H_    0.507394 0.952383 0.304715 0.122344
H9    H     H_    0.635223 0.939236 0.351038 0.126392
H10   H     H_    0.680228 0.070340 0.581601 0.127746
H11   H     H_    0.553512 0.083415 0.535824 0.127830
H12   H     H_    0.142435 0.871304 0.386624 0.086383
H13   H     H_    0.488277 0.149271 0.440224 0.124214
H14   H     H_    0.858590 0.802710 0.236402 0.095751
H15   H     H_    0.250967 0.871129 0.367407 0.116611
H16   H     H_    0.741575 0.793040 0.143115 0.119346
H17   H     H_    0.615425 0.722967 0.025217 0.131308
H18   H     H_    0.492140 0.508740 0.825933 0.118681
H19   H     H_    0.597170 0.675167 0.246256 0.116576
H20   H     H_    0.306703 0.528791 0.901203 0.118881
H21   H     H_    0.992648 0.262140 0.615558 0.125244
H22   H     H_    0.202257 0.385895 0.804848 0.108427
H23   H     H_    0.054252 0.118291 0.762884 0.108981
H24   H     H_    0.065687 0.079086 0.984298 0.131762
H25   H     H_    0.171275 0.167729 0.159765 0.126452
H26   H     H_    0.029048 0.863922 0.752094 0.128593
H27   H     H_    0.089466 0.862437 0.874463 0.121931
H28   H     H_    0.708777 0.777930 0.359010 0.086612
H29   H     H_    0.124969 0.262163 0.481903 0.094524
H30   H     H_    0.999152 0.885734 0.251993 0.089261
H31   H     H_    0.272949 0.251374 0.621978 0.085935
H32   H     H_    0.132472 0.154096 0.379604 0.102107
H33   H     H_    0.153860 0.529018 0.509399 0.112815
H34   H     H_    0.904844 0.847364 0.641031 0.090138
H35   H     H_    0.367561 0.144677 0.461434 0.106870
H36   H     H_    0.303179 0.825944 0.219670 0.112186
H37   H     H_    0.307808 0.692745 0.167392 0.110084
H38   H     H_    0.378301 0.644546 0.253619 0.125115
H39   H     H_    0.442920 0.729559 0.392607 0.106378
H40   H     H_    0.438058 0.862761 0.445802 0.111930
H41   H     H_    0.388707 0.364626 0.730354 0.112988
H42   H     H_    0.498970 0.522115 0.180223 0.111077
H43   H     H_    0.364150 0.422179 0.168944 0.108680
H44   H     H_    0.233184 0.425876 0.106408 0.100903
H45   H     H_    0.278253 0.140400 0.513565 0.082133
H46   H     H_    0.237766 0.531856 0.056543 0.103666
H47   H     H_    0.372272 0.634472 0.069407 0.105779
H48   H     H_    0.104519 0.205156 0.950005 0.114243
H49   H     H_    0.046452 0.303451 0.949592 0.105210
H50   H     H_    0.897511 0.249367 0.863222 0.102556
H51   H     H_    0.806666 0.096387 0.775831 0.111456
H52   H     H_    0.863097 0.996788 0.775839 0.110674
H53   H     H_    0.230819 0.276708 0.312777 0.113058
H54   H     H_    0.194488 0.387658 0.363901 0.108292
H55   H     H_    0.045772 0.350272 0.334700 0.104333
H56   H     H_    0.126496 0.242561 0.746101 0.087836
H57   H     H_    0.932770 0.201333 0.253597 0.109820
H58   H     H_    0.967725 0.089614 0.201565 0.111216
H59   H     H_    0.154935 0.923326 0.115309 0.120073
H60   H     H_    0.104689 0.915723 0.211134 0.120026
H61   H     H_    0.776188 0.177725 0.500294 0.120562
H62   H     H_    0.813025 0.322115 0.585222 0.108150
H63   H     H_    0.902617 0.383495 0.722934 0.101333
H64   H     H_    0.954881 0.299828 0.776033 0.115286
H65   H     H_    0.917214 0.154405 0.692277 0.129527
H66   H     H_    0.088535 0.791900 0.450913 0.095140
H67   H     H_    0.108358 0.551387 0.707035 0.110794
H68   H     H_    0.073178 0.404119 0.675502 0.109712
N1    N     N_R   0.051550 0.054780 0.395070 -0.042123
N2    N     N_2   0.461340 0.600482 0.995353 -0.097647
N3    N     N_2   0.164779 0.042428 0.061204 -0.101401
N4    N     N_R   0.835860 0.954800 0.499920 -0.044303
N5    N     N_2   0.115930 0.970317 0.007681 -0.100265
N6    N     N_R   0.889940 0.849160 0.355180 -0.039134
N7    N     N_R   0.997480 0.160420 0.539810 -0.042223
N8    N     N_R   0.842280 0.845520 0.395070 -0.038432
N9    N     N_R   0.045130 0.164060 0.499920 -0.040271
N10   N     N_R   0.878630 0.041580 0.539810 -0.059637
N11   N     N_R   0.008780 0.968000 0.355180 -0.037477
N12   N     N_R   0.954870 0.835940 0.500080 -0.038547
N13   N     N_R   0.157720 0.154480 0.604930 -0.037880
N14   N     N_R   0.121370 0.958420 0.460190 -0.036466
N15   N     N_R   0.991220 0.032000 0.644820 -0.044908
N16   N     N_R   0.948450 0.945220 0.604930 -0.036213
N17   N     N_R   0.164140 0.045200 0.500080 -0.038104
N18   N     N_R   0.110060 0.150840 0.644820 -0.038242
N19   N     N_R   0.002520 0.839580 0.460190 -0.039285
N20   N     N_2   0.475451 0.597524 0.939257 -0.106122
Ni1   Ni    Ni4+2 0.103690 0.103690 0.500000 0.206084
Ni2   Ni    Ni4+2 0.896310 0.896310 0.500000 0.210115
Ni3   Ni    Ni4+2 0.005600 0.904650 0.408510 0.209240
Ni4   Ni    Ni4+2 0.994400 0.095350 0.591490 0.207676

loop_
_geom_bond_atom_site_label_1
_geom_bond_atom_site_label_2
_ccdc_geom_bond_type
C87   C88   A    
C43   N8    A    
C101  C102  A    
C59   N12   A    
C87   C93   A    
C95   C96   A    
C85   H46   S    
N15   Ni4   S    
C14   H68   S    
C52   N2    S    
C6    C9    A    
C97   C98   A    
C90   C91   A    
C11   C70   A    
C47   C49   A    
C96   H54   S    
C77   C78   A    
C70   H12   S    
C12   C68   S    
C63   C94   S    
C9    C42   S    
C62   C63   A    
C42   C44   A    
C31   N7    A    
C94   C99   A    
C28   C29   A    
C17   H2    S    
C72   N11   A    
C91   H51   S    
C67   N10   A    
C102  H62   S    
C62   H25   S    
C92   N16   A    
C79   H40   S    
C71   H27   S    
C58   C60   A    
N14   Ni3   S    
C7    N4    A    
C6    N18   A    
C51   H16   S    
C17   C18   A    
C57   C73   S    
C69   C71   A    
C19   C26   A    
C19   N6    A    
C80   C86   A    
C8    H66   S    
C83   H43   S    
C84   C85   A    
C35   C36   A    
C69   H26   S    
C40   C74   S    
C16   C17   A    
N7    N9    A    
N9    Ni1   S    
C50   C52   A    
C23   C24   A    
C77   H38   S    
C35   H13   S    
C24   H6    S    
N12   N19   A    
C13   C14   A    
N6    Ni3   S    
N11   Ni3   S    
C36   H35   S    
N17   Ni1   S    
C21   H4    S    
C25   H7    S    
C16   C37   S    
C33   H11   S    
C61   C62   A    
C95   H53   S    
C13   H67   S    
C21   C27   A    
C28   C34   A    
C99   H58   S    
N18   Ni4   S    
C92   H34   S    
C34   C41   S    
N12   Ni2   S    
C46   N20   S    
C2    C11   A    
C81   N15   A    
C6    H56   S    
C29   H9    S    
C26   C43   A    
C60   H59   S    
C12   C92   A    
C57   C58   A    
N3    N5    D    
C54   C56   A    
C74   C75   A    
C50   H17   S    
C48   H31   S    
C101  H61   S    
C61   N3    S    
C76   C77   A    
C90   H50   S    
N7    Ni4   S    
C78   H39   S    
C39   C40   A    
C78   C79   A    
C68   C69   A    
N2    N20   D    
C2    H45   S    
C85   C86   A    
C1    N1    A    
C31   C37   A    
N13   Ni1   S    
C60   C61   A    
C51   C53   A    
C97   H55   S    
C11   C38   S    
C75   C76   A    
C66   C71   A    
C29   C30   A    
N19   Ni3   S    
C91   C93   A    
N8    Ni2   S    
C83   C84   A    
C5    C100  A    
C89   H49   S    
C8    N19   A    
C65   C68   A    
C15   C67   A    
C96   C97   A    
C7    H3    S    
C33   C34   A    
N1    Ni1   S    
C18   H33   S    
C50   C51   A    
C24   C25   A    
C65   C87   S    
C67   C100  S    
C3    C102  A    
C82   H42   S    
C40   C41   A    
C54   H19   S    
C98   C99   A    
C64   H24   S    
C74   C79   A    
C10   C23   S    
C14   C16   A    
C66   N5    S    
C86   H47   S    
C3    C4    A    
C58   H60   S    
C26   C53   S    
N4    N10   A    
C1    H32   S    
N10   Ni4   S    
C44   C45   A    
C3    H63   S    
C15   C30   S    
C76   H37   S    
C70   N14   A    
C46   C47   A    
C47   H18   S    
C32   H10   S    
C13   C20   A    
C81   H23   S    
C88   H48   S    
N1    N11   A    
C43   H28   S    
C57   C63   A    
C72   C73   A    
C75   H36   S    
C93   H52   S    
C48   N13   A    
C53   C54   A    
C28   H8    S    
C20   C27   S    
C84   H44   S    
C45   H20   S    
C25   C27   A    
C55   H29   S    
C56   C80   S    
N14   N17   A    
C59   H1    S    
C32   C33   A    
C36   C38   A    
C10   C59   A    
C98   H57   S    
C1    C73   A    
C39   H15   S    
N13   N18   A    
C64   C65   A    
C72   H30   S    
C30   C32   A    
N15   N16   A    
C38   C39   A    
C52   C56   A    
C19   H14   S    
C49   H41   S    
C7    C15   A    
C100  C101  A    
C80   C82   A    
C4    H64   S    
C12   C81   A    
C18   C20   A    
C5    H65   S    
N16   Ni2   S    
C94   C95   A    
C35   C41   A    
N4    Ni2   S    
C42   C49   A    
C31   H21   S    
C37   C55   A    
C45   C46   A    
C4    C5    A    
C2    N17   A    
C55   N9    A    
C88   C89   A    
C9    C48   A    
C8    C10   A    
C82   C83   A    
C44   H22   S    
C22   C23   A    
C89   C90   A    
C21   C22   A    
C22   H5    S    
C64   C66   A    
N6    N8    A    
