data_mof_unit_64577.cif
_audit_creation_date              2012-12-10T19:27:35-0500
_audit_creation_method            fapswitch 2.2
_symmetry_space_group_name_H-M    P1
_symmetry_Int_Tables_number       1
_space_group_crystal_system       triclinic
_cell_length_a                    19.016057
_cell_length_b                    18.649811
_cell_length_c                    18.55905
_cell_angle_alpha                 108.927205
_cell_angle_beta                  109.373738
_cell_angle_gamma                 109.960775
_cell_volume                      5075.90847776

loop_
_atom_site_label
_atom_site_type_symbol
_atom_type_description
_atom_site_fract_x
_atom_site_fract_y
_atom_site_fract_z
_atom_type_partial_charge
C1    C     C_R   0.376006 0.379944 0.496193 0.909194
C2    C     C_R   0.606541 0.338110 0.622620 0.159178
C3    C     C_R   0.249414 0.231615 0.418816 0.115332
C4    C     C_R   0.619523 0.499779 0.620861 0.927611
C5    C     C_R   0.304430 0.315218 0.492317 -0.092520
C6    C     C_R   0.288830 0.336811 0.563357 -0.165066
C7    C     C_R   0.227842 0.271531 0.565627 -0.202628
C8    C     C_R   0.181562 0.185596 0.496184 -0.053481
C9    C     C_R   0.187407 0.167727 0.420221 0.119820
C10   C     C_3   0.200194 0.097479 0.369596 -0.522585
C11   C     C_3   0.268779 0.167995 0.368127 -0.421576
C12   C     C_R   0.757932 0.583702 0.760929 0.090784
C13   C     C_R   0.322786 0.512401 0.249280 0.121928
C14   C     C_R   0.312505 0.496477 0.313773 -0.087377
C15   C     C_R   0.234081 0.478181 0.313167 -0.206985
C16   C     C_R   0.621198 0.620077 0.501621 0.897304
C17   C     C_R   0.168830 0.476902 0.247893 -0.178177
C18   C     C_R   0.183383 0.496844 0.185260 -0.116146
C19   C     C_R   0.261663 0.514260 0.188775 0.133213
C20   C     C_3   0.314908 0.539707 0.148362 -0.458976
C21   C     C_3   0.385336 0.538324 0.218458 -0.491575
C22   C     C_R   0.769816 0.700438 0.537072 0.062393
C23   C     C_R   0.818337 0.504219 0.814391 -0.174062
C24   C     C_R   0.686815 0.687306 0.503634 -0.144047
C25   C     C_R   0.669893 0.747722 0.484108 -0.237560
C26   C     C_R   0.732729 0.813859 0.484698 0.153788
C27   C     C_R   0.814799 0.820748 0.508774 -0.166052
C28   C     C_R   0.380032 0.499557 0.379765 0.869043
C29   C     C_R   0.833365 0.766908 0.539974 0.082991
C30   C     C_3   0.870857 0.711556 0.512677 -0.479803
C31   C     C_3   0.800195 0.638025 0.508850 -0.001736
C32   C     C_R   0.001812 0.379387 0.881813 0.865686
C33   C     C_R   0.881193 0.502210 0.881371 0.866025
C34   C     C_R   0.755109 0.425306 0.736238 0.064828
C35   C     C_R   0.999404 0.620489 0.119336 0.880283
C36   C     C_R   0.119409 0.499195 0.120048 0.893147
C37   C     C_R   0.001471 0.121020 0.620381 0.867851
C38   C     C_R   0.119058 0.118678 0.497964 0.857266
C39   C     C_R   0.999570 0.879895 0.379748 0.866541
C40   C     C_R   0.769856 0.665495 0.767549 -0.116014
C41   C     C_R   0.880103 0.881622 0.502329 0.891831
C42   C     C_R   0.944275 0.224399 0.780255 0.099372
C43   C     C_R   0.008219 0.312359 0.823220 -0.077021
C44   C     C_R   0.078483 0.334453 0.808166 -0.195382
C45   C     C_R   0.681648 0.421815 0.681384 0.041544
C46   C     C_R   0.076922 0.270814 0.741390 -0.202016
C47   C     C_R   0.003677 0.186967 0.687975 -0.029049
C48   C     C_R   0.940020 0.163599 0.710531 0.020630
C49   C     C_3   0.844052 0.120175 0.657205 0.014363
C50   C     C_3   0.848554 0.183515 0.736908 -0.504142
C51   C     C_R   0.003396 0.681603 0.259395 0.104101
C52   C     C_R   0.835416 0.744243 0.843641 -0.124138
C53   C     C_R   0.001912 0.688004 0.186324 -0.120703
C54   C     C_R   0.011236 0.764550 0.182650 -0.201373
C55   C     C_R   0.009874 0.828310 0.246240 -0.213969
C56   C     C_R   0.686089 0.501656 0.689372 -0.185808
C57   C     C_R   0.001938 0.816113 0.314312 -0.076106
C58   C     C_R   0.004612 0.745784 0.323458 0.111745
C59   C     C_3   0.944641 0.680926 0.335821 -0.549810
C60   C     C_3   0.943047 0.609900 0.264776 0.015066
C61   C     C_R   0.890671 0.743549 0.914226 -0.135294
C62   C     C_R   0.883667 0.664430 0.906968 -0.148357
C63   C     C_R   0.820115 0.584024 0.828430 0.085492
C64   C     C_R   0.761779 0.348829 0.713249 -0.125344
C65   C     C_R   0.691802 0.268479 0.642702 -0.147832
C66   C     C_R   0.613033 0.262484 0.599917 -0.132549
H1    H     H_    0.218801 0.287293 0.622265 0.140803
H2    H     H_    0.443007 0.604269 0.267816 0.210322
H3    H     H_    0.606288 0.740460 0.463823 0.170480
H4    H     H_    0.864392 0.697709 0.447231 0.174942
H5    H     H_    0.936900 0.737047 0.565313 0.235037
H6    H     H_    0.752960 0.581767 0.441226 0.162980
H7    H     H_    0.132285 0.401003 0.844984 0.167308
H8    H     H_    0.130125 0.288018 0.728421 0.138251
H9    H     H_    0.810637 0.050875 0.641726 0.157492
H10   H     H_    0.826527 0.228643 0.726259 0.205445
H11   H     H_    0.821737 0.151322 0.770006 0.193873
H12   H     H_    0.226421 0.069239 0.408601 0.219671
H13   H     H_    0.015226 0.772880 0.128756 0.149557
H14   H     H_    0.013343 0.885712 0.241555 0.148846
H15   H     H_    0.878979 0.566198 0.203872 0.158633
H16   H     H_    0.940403 0.804612 0.974068 0.133561
H17   H     H_    0.928948 0.667424 0.963188 0.137169
H18   H     H_    0.820957 0.351357 0.749822 0.135317
H19   H     H_    0.696250 0.209650 0.626166 0.174367
H20   H     H_    0.327499 0.402298 0.619642 0.178270
H21   H     H_    0.555831 0.198398 0.554604 0.163351
H22   H     H_    0.334860 0.180540 0.406187 0.232804
H23   H     H_    0.142508 0.048524 0.303645 0.199797
H24   H     H_    0.250638 0.159608 0.301293 0.198341
H25   H     H_    0.842868 0.805971 0.848047 0.139285
H26   H     H_    0.976434 0.688654 0.402189 0.237606
H27   H     H_    0.881507 0.678472 0.315840 0.178644
H28   H     H_    0.223336 0.464595 0.362256 0.162224
H29   H     H_    0.108495 0.462318 0.247529 0.196912
H30   H     H_    0.287356 0.487297 0.080301 0.198747
H31   H     H_    0.332326 0.606378 0.157019 0.220066
H32   H     H_    0.398903 0.485403 0.190994 0.214128
H33   H     H_    0.730410 0.670452 0.714241 0.158068
I1    I     I_    0.691621 0.892255 0.441572 -0.330374
I2    I     I_    0.847121 0.603073 0.606251 -0.353041
I3    I     I_    0.801969 0.145409 0.549692 -0.301862
I4    I     I_    0.003279 0.544298 0.312430 -0.366053
I5    I     I_    0.487397 0.317198 0.613101 -0.402375
O1    O     O_R   0.408400 0.356680 0.448290 -0.613418
O2    O     O_R   0.948300 0.091670 0.539990 -0.574854
O3    O     O_R   0.143340 0.091640 0.551750 -0.614660
O4    O     O_R   0.408370 0.460100 0.551700 -0.623501
O5    O     O_R   0.039900 0.091690 0.448360 -0.619138
O6    O     O_R   0.051700 0.908430 0.460110 -0.614442
O7    O     O_R   0.948260 0.908480 0.356720 -0.622690
O8    O     O_R   0.960100 0.908410 0.551740 -0.620386
O9    O     O_R   0.856660 0.908460 0.448350 -0.583621
O10   O     O_R   0.591630 0.448290 0.539910 -0.592101
O11   O     O_R   0.591590 0.551710 0.643320 -0.628660
O12   O     O_R   0.051700 0.460090 0.908430 -0.621956
O13   O     O_R   0.591630 0.539900 0.448300 -0.620112
O14   O     O_R   0.591600 0.643320 0.551710 -0.627016
O15   O     O_R   0.408410 0.448290 0.356680 -0.626117
O16   O     O_R   0.408370 0.551710 0.460090 -0.618018
O17   O     O_R   0.948260 0.356680 0.908450 -0.623476
O18   O     O_R   0.856640 0.448300 0.908430 -0.616202
O19   O     O_R   0.960090 0.551710 0.908400 -0.616429
O20   O     O_R   0.948250 0.539920 0.091630 -0.614483
O21   O     O_R   0.051690 0.643330 0.091610 -0.625220
O22   O     O_R   0.039870 0.448310 0.091660 -0.613382
O23   O     O_R   0.143310 0.551720 0.091640 -0.621509
O24   O     O_R   0.051740 0.091620 0.643380 -0.629741
Zn1   Zn    Zn3+2 0.500020 0.430950 0.430950 0.986395
Zn2   Zn    Zn3+2 0.499980 0.569050 0.569050 0.975614
Zn3   Zn    Zn3+2 0.930910 0.430960 0.000050 0.986478
Zn4   Zn    Zn3+2 0.069050 0.569060 0.000020 0.975165
Zn5   Zn    Zn3+2 0.069070 0.000020 0.569080 0.982153
Zn6   Zn    Zn3+2 0.930930 0.000080 0.431020 1.033638

loop_
_geom_bond_atom_site_label_1
_geom_bond_atom_site_label_2
_ccdc_geom_bond_type
C62   H17   S    
C55   H14   S    
C22   C29   A    
O19   Zn4   S    
C35   C53   S    
C4    O11   A    
C19   C20   S    
O21   Zn4   S    
O8    Zn5   S    
C40   H33   S    
C30   H5    S    
C10   H12   S    
C7    C8    A    
C53   C54   A    
C26   C27   A    
C29   C30   S    
C3    C9    A    
C31   I2    S    
C4    O10   A    
C35   O20   A    
C16   O14   A    
C61   H16   S    
C30   C31   S    
C27   C29   A    
C39   C57   S    
C18   C19   A    
C38   O3    A    
C35   O21   A    
O23   Zn4   S    
C64   H18   S    
C46   C47   A    
C39   O6    A    
C20   H31   S    
C10   H23   S    
C8    C9    A    
C23   C33   S    
C41   O8    A    
C49   H9    S    
C17   H29   S    
C37   C47   S    
C60   I4    S    
O13   Zn1   S    
C9    C10   S    
O4    Zn2   S    
C37   O24   A    
C23   C63   A    
C20   H30   S    
C59   C60   S    
C16   C24   S    
C13   C14   A    
C4    C56   S    
C61   C62   A    
C8    C38   S    
O17   Zn3   S    
C30   H4    S    
C44   C46   A    
C2    C45   A    
C22   C31   S    
C13   C19   A    
C24   C25   A    
C45   C56   A    
C28   O16   A    
C49   I3    S    
C51   C58   A    
C12   C63   A    
O1    Zn1   S    
C2    C66   A    
C58   C59   S    
C40   C52   A    
O20   Zn3   S    
C51   C53   A    
C12   C40   A    
C43   C44   A    
C62   C63   A    
O14   Zn2   S    
C50   H10   S    
C60   H15   S    
C27   C41   S    
C47   C48   A    
O12   Zn4   S    
C2    I5    S    
C11   H22   S    
C23   C34   A    
C34   C64   A    
C17   C18   A    
C13   C21   S    
C34   C45   A    
C42   C48   A    
C32   O12   A    
C38   O5    A    
C12   C56   A    
C42   C50   S    
C48   C49   S    
C65   C66   A    
O9    Zn6   S    
C55   C57   A    
C21   H2    S    
C33   O18   A    
O10   Zn1   S    
C1    C5    S    
C36   O23   A    
C25   H3    S    
C42   C43   A    
C50   H11   S    
O18   Zn3   S    
C46   H8    S    
C54   H13   S    
C15   C17   A    
C54   C55   A    
C31   H6    S    
O5    Zn6   S    
C32   O17   A    
C36   O22   A    
O6    Zn5   S    
C41   O9    A    
C3    C5    A    
C28   O15   A    
O7    Zn6   S    
C65   H19   S    
C6    C7    A    
C6    H20   S    
C52   C61   A    
C64   C65   A    
C25   C26   A    
C37   O2    A    
O3    Zn5   S    
C16   O13   A    
O16   Zn2   S    
C21   H32   S    
C11   H24   S    
C57   C58   A    
C5    C6    A    
O22   Zn3   S    
C66   H21   S    
C39   O7    A    
O15   Zn1   S    
C32   C43   S    
C22   C24   A    
C59   H26   S    
C44   H7    S    
C3    C11   S    
C10   C11   S    
C1    O4    A    
C7    H1    S    
O2    Zn6   S    
C15   H28   S    
C20   C21   S    
C49   C50   S    
C26   I1    S    
C33   O19   A    
C14   C15   A    
C52   H25   S    
C51   C60   S    
C59   H27   S    
C14   C28   S    
O24   Zn5   S    
C18   C36   S    
C1    O1    A    
O11   Zn2   S    
