data_mof_unit_19796.cif
_audit_creation_date              2012-12-10T17:33:49-0500
_audit_creation_method            fapswitch 2.2
_symmetry_space_group_name_H-M    P1
_symmetry_Int_Tables_number       1
_space_group_crystal_system       triclinic
_cell_length_a                    10.641796
_cell_length_b                    12.072294
_cell_length_c                    12.852143
_cell_angle_alpha                 93.528771
_cell_angle_beta                  91.26817
_cell_angle_gamma                 87.231417
_cell_volume                      1645.76816314

loop_
_atom_site_label
_atom_site_type_symbol
_atom_type_description
_atom_site_fract_x
_atom_site_fract_y
_atom_site_fract_z
_atom_type_partial_charge
C1    C     C_R   0.497678 0.522012 0.700259 0.870315
C2    C     C_R   0.485881 0.448956 0.973968 0.185761
C3    C     C_R   0.519485 0.549859 0.026318 0.180518
C4    C     C_R   0.741850 0.501222 0.501462 0.856539
C5    C     C_R   0.530668 0.555999 0.133222 -0.287016
C6    C     C_R   0.474441 0.363162 0.136830 -0.231260
C7    C     C_R   0.465110 0.355528 0.029149 -0.218371
C8    C     C_R   0.403987 0.949429 0.387914 -0.360215
C9    C     C_R   0.408890 0.834610 0.399670 0.356957
C10   C     C_R   0.546123 0.859512 0.547175 -0.106040
C11   C     C_R   0.542770 0.975957 0.537768 0.053994
C12   C     C_3   0.120981 0.502484 0.502589 0.091650
C13   C     C_R   0.465549 0.021512 0.460176 0.044661
C14   C     C_R   0.449457 0.138602 0.456990 0.315228
C15   C     C_R   0.604400 0.163402 0.591192 -0.035965
C16   C     C_R   0.502567 0.477950 0.299817 0.905103
C17   C     C_R   0.613243 0.047961 0.603487 -0.323846
C18   C     C_R   0.257953 0.500360 0.503114 0.881395
C19   C     C_3   0.932169 0.446294 0.598535 -0.453818
C20   C     C_3   0.076347 0.440203 0.596046 -0.476711
C21   C     C_3   0.929294 0.436333 0.400765 0.014286
C22   C     C_3   0.921421 0.624248 0.505982 -0.415648
C23   C     C_3   0.073898 0.447239 0.397138 0.030018
C24   C     C_3   0.878034 0.502832 0.500661 0.083161
C25   C     C_3   0.819313 0.380799 0.235503 -0.804188
C26   C     C_3   0.158265 0.446938 0.218168 -0.770270
C27   C     C_3   0.224585 0.162966 0.424094 -0.871055
C28   C     C_3   0.330025 0.785697 0.221507 -0.835545
C29   C     C_3   0.064171 0.624156 0.515840 -0.390678
C30   C     C_R   0.504322 0.464257 0.188403 -0.048831
C31   C     C_R   0.498236 0.535261 0.811844 -0.050940
C32   C     C_R   0.539954 0.643362 0.971133 -0.226806
C33   C     C_R   0.529158 0.636105 0.863429 -0.209656
C34   C     C_R   0.474420 0.442803 0.867083 -0.289517
H1    H     H_    0.898552 0.360661 0.601706 0.182291
H2    H     H_    0.660672 0.217920 0.640973 0.142086
H3    H     H_    0.350074 0.982513 0.323656 0.195747
H4    H     H_    0.675490 0.015361 0.663246 0.146677
H5    H     H_    0.604124 0.822440 0.607251 0.131417
H6    H     H_    0.114810 0.477975 0.670586 0.180631
H7    H     H_    0.110504 0.352051 0.590666 0.178669
H8    H     H_    0.912970 0.346894 0.410792 0.139376
H9    H     H_    0.889665 0.666849 0.435028 0.173347
H10   H     H_    0.880058 0.672830 0.574467 0.181045
H11   H     H_    0.091823 0.662307 0.593599 0.179730
H12   H     H_    0.098842 0.677874 0.456728 0.168960
H13   H     H_    0.809743 0.541301 0.308030 0.223743
H14   H     H_    0.787190 0.414453 0.160452 0.249871
H15   H     H_    0.739313 0.343002 0.271703 0.254657
H16   H     H_    0.894653 0.315517 0.219377 0.238157
H17   H     H_    0.061325 0.582060 0.296217 0.244648
H18   H     H_    0.202381 0.503568 0.166322 0.240911
H19   H     H_    0.079380 0.407127 0.175103 0.254691
H20   H     H_    0.230451 0.382436 0.239655 0.229958
H21   H     H_    0.360271 0.261407 0.369792 0.275986
H22   H     H_    0.200739 0.216619 0.494110 0.250789
H23   H     H_    0.557766 0.633044 0.173514 0.168909
H24   H     H_    0.213428 0.076073 0.443995 0.251028
H25   H     H_    0.157146 0.179730 0.359275 0.233804
H26   H     H_    0.257853 0.738353 0.360697 0.225277
H27   H     H_    0.301160 0.710145 0.175219 0.254994
H28   H     H_    0.422027 0.809450 0.192638 0.242304
H29   H     H_    0.257283 0.853140 0.209929 0.224895
H30   H     H_    0.117438 0.362312 0.389281 0.131243
H31   H     H_    0.454875 0.291566 0.179592 0.158342
H32   H     H_    0.565067 0.721152 0.011027 0.136439
H33   H     H_    0.440096 0.277693 0.989303 0.139405
H34   H     H_    0.547946 0.707883 0.820630 0.155068
H35   H     H_    0.448616 0.365230 0.826915 0.160456
H36   H     H_    0.900235 0.494315 0.670691 0.181436
N1    N     N_R   0.523380 0.207800 0.519350 -0.130773
N2    N     N_R   0.476620 0.792180 0.480650 -0.125256
N3    N     N_2   0.866199 0.469408 0.304452 -0.299418
N4    N     N_2   0.112916 0.509838 0.310352 -0.291125
N5    N     N_2   0.351211 0.182582 0.392278 -0.322676
N6    N     N_2   0.340389 0.761997 0.330518 -0.252323
O1    O     O_R   0.506240 0.421700 0.658830 -0.625138
O2    O     O_R   0.491240 0.609310 0.646410 -0.629323
O3    O     O_R   0.692710 0.406190 0.506230 -0.628908
O4    O     O_R   0.677700 0.593810 0.493810 -0.634448
O5    O     O_R   0.508760 0.390690 0.353590 -0.659387
O6    O     O_R   0.493760 0.578300 0.341170 -0.586433
O7    O     O_R   0.322300 0.406190 0.506190 -0.637761
O8    O     O_R   0.307290 0.593810 0.493770 -0.628631
Zn1   Zn    Zn3+2 0.510020 0.374730 0.508290 0.920894
Zn2   Zn    Zn3+2 0.489980 0.625270 0.491710 0.940508

loop_
_geom_bond_atom_site_label_1
_geom_bond_atom_site_label_2
_ccdc_geom_bond_type
C8    C13   A    
C22   C29   S    
C12   C29   S    
C1    O1    A    
C14   N1    A    
C19   C20   S    
C9    N2    A    
C20   H7    S    
C12   C23   S    
O8    Zn2   S    
C4    O4    A    
C4    C24   S    
C16   C30   S    
C21   N3    S    
C1    C31   S    
C25   H16   S    
O4    Zn2   S    
N1    Zn1   S    
C6    H31   S    
C22   H10   S    
C2    C7    A    
C8    C9    A    
C18   O8    A    
H17   N4    S    
C9    N6    S    
H21   N5    S    
C28   H27   S    
O2    Zn2   S    
O1    Zn1   S    
C13   C14   A    
C1    O2    A    
C27   N5    S    
C26   H20   S    
C16   O6    A    
H13   N3    S    
C4    O3    A    
C27   H22   S    
O6    Zn2   S    
H26   N6    S    
C29   H11   S    
C10   H5    S    
C26   H18   S    
C22   H9    S    
C25   H14   S    
C12   C20   S    
C31   C33   A    
C18   O7    A    
C31   C34   A    
C34   H35   S    
C23   H30   S    
C6    C30   A    
C21   C23   S    
C22   C24   S    
C8    H3    S    
C23   N4    S    
C28   N6    S    
C26   H19   S    
C15   H2    S    
O3    Zn1   S    
C32   H32   S    
C5    C30   A    
C15   C17   A    
C11   C17   A    
O7    Zn1   S    
C3    C5    A    
C27   H24   S    
N2    Zn2   S    
C6    C7    A    
C15   N1    A    
C5    H23   S    
C29   H12   S    
C14   N5    S    
C19   C24   S    
C19   H1    S    
C32   C33   A    
C11   C13   A    
C2    C34   A    
C20   H6    S    
C16   O5    A    
C26   N4    S    
C2    C3    A    
C25   N3    S    
C17   H4    S    
C3    C32   A    
C25   H15   S    
C10   C11   A    
C7    H33   S    
C21   H8    S    
C28   H29   S    
C21   C24   S    
C12   C18   S    
C19   H36   S    
C27   H25   S    
O5    Zn1   S    
C33   H34   S    
C28   H28   S    
C10   N2    A    
