data_mof_unit_58282.cif
_audit_creation_date              2012-12-11T15:54:34-0500
_audit_creation_method            fapswitch 2.2
_symmetry_space_group_name_H-M    P1
_symmetry_Int_Tables_number       1
_space_group_crystal_system       triclinic
_cell_length_a                    6.966015
_cell_length_b                    14.527898
_cell_length_c                    16.140417
_cell_angle_alpha                 89.887295
_cell_angle_beta                  89.858505
_cell_angle_gamma                 90.225281
_cell_volume                      1633.41450634

loop_
_atom_site_label
_atom_site_type_symbol
_atom_type_description
_atom_site_fract_x
_atom_site_fract_y
_atom_site_fract_z
_atom_type_partial_charge
O1    O     O_R   0.638180 0.333920 0.163320 -0.547376
O2    O     O_R   0.361820 0.666080 0.836680 -0.547328
O3    O     O_R   0.308470 0.344960 0.336080 -0.541904
O4    O     O_R   0.691530 0.655040 0.663920 -0.540922
O5    O     O_R   0.138140 0.166110 0.336680 -0.540683
O6    O     O_R   0.861860 0.833890 0.663320 -0.540609
C1    C     C_R   0.477540 0.367403 0.364769 0.686771
C2    C     C_R   0.522459 0.632598 0.635231 0.692392
O7    O     O_R   0.308460 0.344950 0.163930 -0.517177
O8    O     O_R   0.691540 0.655050 0.836070 -0.513461
O9    O     O_R   0.138140 0.166100 0.163310 -0.521856
O10   O     O_R   0.861860 0.833900 0.836690 -0.508957
C3    C     C_R   0.478206 0.366849 0.134966 0.846827
C4    C     C_R   0.521792 0.633136 0.865023 0.847948
O11   O     O_R   0.638180 0.333930 0.336700 -0.546675
O12   O     O_R   0.361820 0.666070 0.663300 -0.544411
O13   O     O_3   0.471670 0.191340 0.250000 -0.362352
O14   O     O_3   0.528330 0.808660 0.750000 -0.369328
V1    V     V_3+5 0.196830 0.260900 0.250000 1.625648
V2    V     V_3+5 0.803170 0.739100 0.750000 1.625698
O15   O     O_R   0.808420 0.155070 0.163920 -0.504259
O16   O     O_R   0.191580 0.844930 0.836080 -0.534284
C5    C     C_R   0.977306 0.133332 0.134852 0.916673
C6    C     C_R   0.022507 0.867797 0.864482 0.883674
O17   O     O_R   0.808420 0.155080 0.336070 -0.534277
O18   O     O_R   0.191580 0.844920 0.663930 -0.534562
C7    C     C_R   0.976897 0.132780 0.364362 0.919623
C8    C     C_R   0.023111 0.867211 0.635618 0.922557
V3    V     V_3+5 0.696830 0.239130 0.250000 1.623409
V4    V     V_3+5 0.303170 0.760870 0.750000 1.585732
O19   O     O_3   0.971850 0.308690 0.250010 -0.384968
O20   O     O_3   0.028150 0.691310 0.749990 -0.379131
C9    C     C_R   0.982874 0.193050 0.538299 0.115504
C10   C     C_R   0.017371 0.806965 0.461649 0.116949
C11   C     C_R   0.992756 0.221129 0.621619 0.440890
C12   C     C_R   0.007900 0.778905 0.378316 0.438685
C13   C     C_R   0.009811 0.157108 0.684453 0.568726
C14   C     C_R   0.991015 0.842931 0.315474 0.567424
C15   C     C_R   0.016825 0.063863 0.666787 0.367962
C16   C     C_R   0.983679 0.936174 0.333136 0.380123
C17   C     C_R   0.008035 0.031046 0.583726 -0.205867
C18   C     C_R   0.992182 0.968967 0.416218 -0.211454
C19   C     C_R   0.992352 0.096842 0.517821 -0.110764
C20   C     C_R   0.007797 0.903166 0.482130 -0.111037
C21   C     C_R   0.014289 0.934795 0.566012 -0.007465
C22   C     C_R   0.985761 0.065204 0.433949 -0.007392
C23   C     C_R   0.176281 0.979723 0.965466 0.214239
C24   C     C_R   0.823268 0.037782 0.022683 0.238449
C25   C     C_R   0.164388 0.027031 0.041562 0.325760
C26   C     C_R   0.833403 0.962509 0.967141 0.278821
C27   C     C_R   0.988017 0.064711 0.066256 -0.161714
C28   C     C_R   0.010667 0.938374 0.931898 -0.193835
C29   C     C_R   0.321548 0.467047 0.473641 -0.082556
C30   C     C_R   0.678450 0.532955 0.526357 -0.082787
H1    H     H_    0.181571 0.442597 0.454591 0.127340
H2    H     H_    0.818428 0.557402 0.545409 0.127481
C31   C     C_R   0.332836 0.529798 0.539372 -0.097233
C32   C     C_R   0.667161 0.470206 0.460625 -0.097825
H3    H     H_    0.201069 0.551078 0.569252 0.133399
H4    H     H_    0.798927 0.448931 0.430742 0.132861
C33   C     C_R   0.511391 0.564037 0.566502 -0.049207
C34   C     C_R   0.488606 0.435965 0.433497 -0.047915
C35   C     C_R   0.344987 0.500781 0.055371 0.607229
C36   C     C_R   0.654988 0.499172 0.944595 0.607279
C37   C     C_R   0.351555 0.563991 0.989783 0.256981
C38   C     C_R   0.648395 0.435943 0.010173 0.262835
C39   C     C_R   0.508606 0.564544 0.933682 -0.414104
C40   C     C_R   0.491379 0.435417 0.066291 -0.414073
F1    F     F_    0.982246 0.814189 0.235595 -0.570639
F2    F     F_    0.018997 0.185851 0.764328 -0.569611
O21   O     O_3   0.206184 0.627272 0.984059 -0.580781
H5    H     H_    0.127344 0.607765 0.936091 0.338539
O22   O     O_3   0.793670 0.372604 0.015858 -0.575960
H6    H     H_    0.872608 0.392079 0.063807 0.336699
O23   O     O_3   0.962208 0.258843 0.476948 -0.650237
H7    H     H_    0.956925 0.321188 0.501350 0.327456
O24   O     O_3   0.037731 0.741162 0.523014 -0.649556
H8    H     H_    0.042935 0.678803 0.498608 0.327612
F3    F     F_    0.985358 0.311632 0.642430 -0.627159
F4    F     F_    0.015516 0.688410 0.357500 -0.627675
F5    F     F_    0.033273 0.007065 0.732973 -0.698668
F6    F     F_    0.967182 0.992981 0.266928 -0.680472
O25   O     O_3   0.346895 0.980765 0.923306 -0.620076
H9    H     H_    0.318494 0.993216 0.864179 0.352909
O26   O     O_3   0.658571 0.088562 0.031055 -0.602696
H10   H     H_    0.586225 0.083514 0.978617 0.365525
O27   O     O_3   0.322570 0.038374 0.091180 -0.585989
H11   H     H_    0.404096 0.983393 0.083918 0.332850
O28   O     O_3   0.674401 0.909945 0.950332 -0.597440
H12   H     H_    0.600009 0.905236 0.002481 0.325039
F7    F     F_    0.194781 0.504636 0.109096 -0.623529
F8    F     F_    0.805184 0.495314 0.890865 -0.622281

loop_
_geom_bond_atom_site_label_1
_geom_bond_atom_site_label_2
_ccdc_geom_bond_type
C6    C28   S    
C38   C40   A    
O27   H11   S    
C35   C37   A    
C32   C34   A    
O13   V3    S    
O22   H6    S    
C25   O27   S    
O4    C2    A    
V1    O19   S    
C15   C17   A    
O24   H8    S    
O9    V1    S    
C11   C13   A    
O3    C1    A    
C10   O24   S    
C30   C32   A    
C31   H3    S    
C32   H4    S    
C18   C22   A    
C11   F3    S    
O7    C3    A    
C9    C11   A    
O5    C7    A    
O7    V1    S    
C24   C27   A    
O6    C8    A    
O8    V2    S    
C37   C39   A    
C26   C28   A    
C4    C39   S    
O3    V1    S    
O14   V4    S    
C23   O25   S    
C10   C12   A    
C2    C33   S    
C16   C18   A    
C14   F1    S    
C2    O12   A    
C14   C16   A    
C13   F2    S    
C17   C19   A    
C18   C20   A    
C9    O23   S    
O11   V3    S    
C29   H1    S    
O17   V3    S    
C30   H2    S    
C8    C21   S    
C9    C19   A    
C36   C39   A    
C16   F6    S    
C10   C20   A    
C15   F5    S    
C23   C25   A    
C12   F4    S    
C29   C31   A    
C1    O11   A    
C25   C27   A    
C37   O21   S    
C38   O22   S    
O15   V3    S    
C36   C38   A    
O23   H7    S    
C1    C34   S    
C29   C34   A    
C26   O28   S    
C5    C27   S    
O25   H9    S    
O10   V2    S    
O1    V3    S    
C24   C26   A    
O26   H10   S    
C7    C22   S    
O18   V4    S    
O15   C5    A    
O8    C4    A    
O16   C6    A    
O1    C3    A    
C36   F8    S    
C20   C21   A    
V2    O20   S    
C35   C40   A    
O16   V4    S    
C31   C33   A    
C23   C28   A    
O5    V1    S    
C30   C33   A    
O17   C7    A    
O6    V2    S    
O10   C6    A    
O18   C8    A    
O2    V4    S    
C12   C14   A    
O21   H5    S    
V3    O19   S    
V4    O20   S    
O9    C5    A    
O13   V1    S    
O14   V2    S    
O2    C4    A    
C19   C22   A    
O4    V2    S    
C13   C15   A    
C35   F7    S    
C17   C21   A    
C24   O26   S    
O28   H12   S    
O12   V4    S    
C3    C40   S    
