data_mof_unit_67891.cif
_audit_creation_date              2012-12-10T17:21:07-0500
_audit_creation_method            fapswitch 2.2
_symmetry_space_group_name_H-M    P1
_symmetry_Int_Tables_number       1
_space_group_crystal_system       triclinic
_cell_length_a                    10.262044
_cell_length_b                    11.11175
_cell_length_c                    11.122093
_cell_angle_alpha                 89.83378
_cell_angle_beta                  93.348753
_cell_angle_gamma                 80.583456
_cell_volume                      1248.91816018

loop_
_atom_site_label
_atom_site_type_symbol
_atom_type_description
_atom_site_fract_x
_atom_site_fract_y
_atom_site_fract_z
_atom_type_partial_charge
C1    C     C_R   0.445794 0.509253 0.268186 0.873533
C2    C     C_3   0.493525 0.881851 0.508034 -0.101540
C3    C     C_3   0.538690 0.927408 0.644276 0.208031
C4    C     C_3   0.340868 0.948874 0.458086 0.085084
C5    C     C_2   0.417132 0.500478 0.138033 -0.316504
C6    C     C_2   0.516495 0.498256 0.061368 -0.053219
C7    C     C_2   0.593955 0.455320 0.856411 -0.101425
C8    C     C_2   0.495597 0.475497 0.932564 -0.223904
C9    C     C_2   0.076889 0.492636 0.488879 -0.025323
C10   C     C_2   0.927137 0.511701 0.501637 -0.236186
C11   C     C_R   0.497745 0.258516 0.496806 0.864488
C12   C     C_R   0.555941 0.481088 0.729835 0.873704
C13   C     C_R   0.499985 0.742952 0.504397 0.818630
C14   C     C_3   0.600562 0.057542 0.415946 -0.144618
C15   C     C_3   0.595106 0.918718 0.413611 -0.126843
C16   C     C_3   0.533142 0.073006 0.633084 -0.156865
C17   C     C_3   0.343803 0.097058 0.448158 -0.111242
C18   C     C_3   0.489788 0.123644 0.498474 -0.160094
H1    H     H_    0.695927 0.070321 0.462773 0.201642
H2    H     H_    0.394319 0.491877 0.895588 0.209680
H3    H     H_    0.887065 0.585753 0.558949 0.151600
H4    H     H_    0.120140 0.429089 0.423602 0.257446
H5    H     H_    0.116145 0.608308 0.616795 0.169215
H6    H     H_    0.548549 0.904176 0.327482 0.169023
H7    H     H_    0.636623 0.090202 0.648373 0.155651
N1    N     N_2   0.157300 0.551950 0.551120 -0.219507
N2    N     N_2   0.842730 0.448000 0.448950 -0.157037
O1    O     O_R   0.568940 0.489540 0.307530 -0.604573
O2    O     O_R   0.348880 0.522880 0.340350 -0.562511
O3    O     O_R   0.610030 0.298130 0.483570 -0.596614
O4    O     O_R   0.389960 0.331470 0.516390 -0.559081
O5    O     O_R   0.651120 0.477120 0.659650 -0.635183
O6    O     O_R   0.431060 0.510460 0.692470 -0.637213
O7    O     O_R   0.610040 0.668530 0.483610 -0.643006
O8    O     O_R   0.389970 0.701870 0.516430 -0.655329
Zn1   Zn    Zn3+2 0.646940 0.477740 0.478080 0.959121
Zn2   Zn    Zn3+2 0.353060 0.522260 0.521920 0.979256
C19   C     C_3   0.235702 0.919630 0.554061 -0.301512
C20   C     C_3   0.104151 0.878057 0.516488 -0.358780
C21   C     C_3   0.029400 0.857067 0.626805 -0.992829
H8    H     H_    0.095733 0.806951 0.699357 0.271494
H9    H     H_    0.981672 0.945626 0.662623 0.277724
H10   H     H_    0.953713 0.801059 0.599283 0.247244
H11   H     H_    0.037532 0.948224 0.461891 0.258369
H12   H     H_    0.123201 0.790229 0.468259 0.239424
H13   H     H_    0.279410 0.846913 0.614373 0.230002
H14   H     H_    0.209785 0.991494 0.619866 0.180005
C22   C     C_3   0.463200 0.153776 0.735459 -0.356686
C23   C     C_3   0.542692 0.152388 0.856831 -0.473373
C24   C     C_3   0.455807 0.155117 0.964357 -0.805391
H15   H     H_    0.352279 0.197330 0.939611 0.302350
H16   H     H_    0.455908 0.061187 0.998460 0.247341
H17   H     H_    0.493571 0.209226 0.038393 0.281805
H18   H     H_    0.624464 0.075957 0.865925 0.225766
H19   H     H_    0.591183 0.232250 0.861266 0.245089
H20   H     H_    0.442339 0.251238 0.710632 0.245615
H21   H     H_    0.365762 0.130507 0.750726 0.250061
C25   C     C_3   0.455238 0.899091 0.754350 -0.417153
C26   C     C_3   0.451094 0.769519 0.798494 -0.369165
C27   C     C_3   0.366664 0.776416 0.908526 -0.882651
H22   H     H_    0.420089 0.810820 0.987573 0.282907
H23   H     H_    0.270562 0.837528 0.889549 0.253985
H24   H     H_    0.341739 0.687103 0.931701 0.255675
H25   H     H_    0.403948 0.718966 0.729587 0.261214
H26   H     H_    0.551621 0.719881 0.823189 0.259904
H27   H     H_    0.491029 0.941607 0.834566 0.246677
H28   H     H_    0.355197 0.948552 0.750384 0.173696
C28   C     C_2   0.638686 0.548220 0.096167 0.913699
O9    O     O_2   0.648952 0.650590 0.061996 -0.699463
O10   O     O_R   0.746196 0.473348 0.155297 -0.803070
H29   H     H_    0.828605 0.512208 0.162070 0.357590
C29   C     C_3   0.738201 0.400202 0.897578 -0.406343
C30   C     C_3   0.820029 0.320682 0.805242 -0.327336
C31   C     C_3   0.933105 0.230670 0.866191 -0.904434
H30   H     H_    0.993032 0.278393 0.930618 0.279821
H31   H     H_    0.893297 0.158737 0.914700 0.255419
H32   H     H_    0.998022 0.186157 0.797024 0.261321
H33   H     H_    0.757282 0.268010 0.748537 0.226170
H34   H     H_    0.865085 0.380543 0.745224 0.255934
H35   H     H_    0.793709 0.474495 0.923966 0.221393
H36   H     H_    0.734857 0.341377 0.977871 0.250595
C32   C     C_2   0.278841 0.488208 0.097242 0.960181
O11   O     O_2   0.186113 0.557795 0.135803 -0.629253
O12   O     O_R   0.253900 0.396195 0.018368 -0.831166
H37   H     H_    0.155949 0.398548 0.998259 0.341362
C33   C     C_2   0.889771 0.339660 0.389311 1.096132
O13   O     O_2   0.852077 0.246779 0.419944 -0.683469
O14   O     O_R   0.971555 0.339330 0.292954 -0.797350
H38   H     H_    0.994103 0.255742 0.256052 0.349406
C34   C     C_3   0.604547 0.110941 0.283804 -0.338603
C35   C     C_3   0.743905 0.113093 0.238484 -0.262537
C36   C     C_3   0.763811 0.061930 0.112754 -0.998155
H39   H     H_    0.721921 0.977031 0.098544 0.283667
H40   H     H_    0.718521 0.131610 0.045607 0.277506
H41   H     H_    0.870801 0.043190 0.098109 0.255503
H42   H     H_    0.757406 0.209622 0.230661 0.269634
H43   H     H_    0.823754 0.064745 0.300282 0.243511
H44   H     H_    0.553641 0.058368 0.217706 0.247035
H45   H     H_    0.550336 0.205774 0.276109 0.200058
C37   C     C_3   0.738430 0.842653 0.400347 -0.412623
C38   C     C_3   0.751481 0.768077 0.283102 -0.296858
C39   C     C_3   0.891163 0.750584 0.239974 -0.838309
H46   H     H_    0.910854 0.839709 0.208414 0.259822
H47   H     H_    0.964612 0.711863 0.312968 0.268403
H48   H     H_    0.900047 0.689578 0.161398 0.281225
H49   H     H_    0.723903 0.677289 0.298226 0.272960
H50   H     H_    0.685069 0.813864 0.208700 0.242330
H51   H     H_    0.813792 0.903090 0.403725 0.203475
H52   H     H_    0.774647 0.779193 0.474971 0.211047
C40   C     C_3   0.686444 0.862826 0.679841 -0.415088
C41   C     C_3   0.752417 0.867301 0.809822 -0.381208
C42   C     C_3   0.846346 0.749166 0.845416 -0.837925
H53   H     H_    0.917988 0.720401 0.776767 0.250078
H54   H     H_    0.901769 0.761783 0.932046 0.264441
H55   H     H_    0.788626 0.674457 0.857297 0.270736
H56   H     H_    0.809518 0.944155 0.815234 0.214129
H57   H     H_    0.683772 0.878567 0.882632 0.247029
H58   H     H_    0.694067 0.765044 0.658392 0.226739
H59   H     H_    0.751883 0.903536 0.622543 0.182968
C43   C     C_2   0.223072 0.164723 0.512268 0.890300
O15   O     O_2   0.230690 0.226499 0.601708 -0.653403
O16   O     O_R   0.097992 0.146548 0.470762 -0.834990
H60   H     H_    0.035111 0.159522 0.538345 0.354570
C44   C     C_2   0.314844 0.158937 0.321081 0.847256
O17   O     O_2   0.280089 0.269681 0.312979 -0.607685
O18   O     O_R   0.328406 0.096102 0.213810 -0.867839
H61   H     H_    0.291756 0.149254 0.141539 0.361105
C45   C     C_3   0.299424 0.888779 0.330556 -0.307868
C46   C     C_3   0.164060 0.933124 0.260865 -0.276716
C47   C     C_3   0.168413 0.902495 0.126552 -0.900254
H62   H     H_    0.235872 0.953106 0.080567 0.289106
H63   H     H_    0.202031 0.803152 0.115812 0.287141
H64   H     H_    0.068844 0.926105 0.080676 0.241124
H65   H     H_    0.090420 0.881668 0.291599 0.194103
H66   H     H_    0.125547 0.030974 0.272564 0.266132
H67   H     H_    0.372182 0.889262 0.262865 0.210460
H68   H     H_    0.301461 0.789918 0.340994 0.202229

loop_
_geom_bond_atom_site_label_1
_geom_bond_atom_site_label_2
_ccdc_geom_bond_type
C10   N2    D    
C38   H50   S    
C11   C18   S    
O18   H61   S    
C30   C31   S    
C14   C18   S    
C2    C4    S    
C41   C42   S    
C15   C37   S    
C45   C46   S    
C16   C22   S    
C42   H54   S    
C22   H21   S    
C26   H25   S    
C38   C39   S    
C31   H31   S    
C27   H24   S    
C1    C5    S    
O5    Zn1   S    
O8    Zn2   S    
C13   O8    A    
C45   H67   S    
C5    C6    D    
C33   O14   S    
C9    H4    S    
C3    C40   S    
C23   H18   S    
C38   H49   S    
C39   H48   S    
C27   H23   S    
H5    N1    S    
C2    C13   S    
C40   C41   S    
C14   C34   S    
C17   C43   S    
C35   H42   S    
C46   H66   S    
C25   H27   S    
C21   H10   S    
C11   O3    A    
C28   O9    D    
C31   H32   S    
C1    O1    A    
C24   H16   S    
C30   H33   S    
O10   H29   S    
C9    C10   S    
C29   H36   S    
C20   H12   S    
C6    C28   S    
C11   O4    A    
C26   C27   S    
C12   O5    A    
C40   H58   S    
C36   H40   S    
C42   H53   S    
C43   O16   S    
C9    N1    D    
C24   H15   S    
C10   H3    S    
C7    C12   S    
C37   H51   S    
C24   H17   S    
C31   H30   S    
C4    C45   S    
C7    C8    D    
O12   H37   S    
C7    C29   S    
C33   O13   D    
C6    C8    S    
C25   C26   S    
C23   H19   S    
C36   H41   S    
O6    Zn2   S    
O4    Zn2   S    
C27   H22   S    
N2    C33   S    
C47   H63   S    
C45   H68   S    
C17   C44   S    
C1    O2    A    
C17   C18   S    
C30   H34   S    
C8    H2    S    
C35   H43   S    
C39   H47   S    
C2    C15   S    
C19   H14   S    
C41   H56   S    
C4    C17   S    
C28   O10   S    
C21   H8    S    
C4    C19   S    
C23   C24   S    
C32   O12   S    
C47   H64   S    
C34   H45   S    
C35   C36   S    
C43   O15   D    
C44   O18   S    
C46   C47   S    
C16   H7    S    
C22   H20   S    
C15   H6    S    
C14   H1    S    
C29   C30   S    
C40   H59   S    
N1    Zn2   S    
C20   H11   S    
N2    Zn1   S    
O3    Zn1   S    
C41   H57   S    
C2    C3    S    
C12   O6    A    
C13   O7    A    
C29   H35   S    
C26   H26   S    
C5    C32   S    
C34   C35   S    
C19   C20   S    
C22   C23   S    
C21   H9    S    
C36   H39   S    
C47   H62   S    
O7    Zn1   S    
C39   H46   S    
C19   H13   S    
C46   H65   S    
C20   C21   S    
C3    C25   S    
C25   H28   S    
C37   H52   S    
O14   H38   S    
O1    Zn1   S    
C16   C18   S    
C32   O11   D    
O2    Zn2   S    
C14   C15   S    
C37   C38   S    
O16   H60   S    
C34   H44   S    
C42   H55   S    
C3    C16   S    
C44   O17   D    
