data_mof_unit_61383.cif
_audit_creation_date              2013-03-05T16:46:17-0500
_audit_creation_method            fapswitch 2.2
_symmetry_space_group_name_H-M    P1
_symmetry_Int_Tables_number       1
_space_group_crystal_system       triclinic
_cell_length_a                    15.873402
_cell_length_b                    17.029701
_cell_length_c                    23.561605
_cell_angle_alpha                 92.189656
_cell_angle_beta                  91.237823
_cell_angle_gamma                 95.759599
_cell_volume                      6330.30314676

loop_
_atom_site_label
_atom_site_type_symbol
_atom_site_description
_atom_site_fract_x
_atom_site_fract_y
_atom_site_fract_z
_atom_type_partial_charge
O1    O     O_R   0.420530 0.382500 0.497430 -0.552435
O2    O     O_R   0.579470 0.617500 0.502570 -0.548093
O3    O     O_R   0.563720 0.388950 0.502070 -0.561851
O4    O     O_R   0.436280 0.611050 0.497930 -0.562745
C1    C     C_R   0.489609 0.348168 0.499891 0.864892
C2    C     C_R   0.510405 0.651848 0.500053 0.872047
O5    O     O_R   0.428390 0.496750 0.415560 -0.595603
O6    O     O_R   0.571610 0.503250 0.584440 -0.554388
O7    O     O_R   0.571580 0.503200 0.420200 -0.518043
O8    O     O_R   0.428420 0.496800 0.579800 -0.555782
C3    C     C_R   0.500948 0.500745 0.391018 0.863878
C4    C     C_R   0.499196 0.498508 0.609187 0.866359
Cu1   Cu    Cu3+1 0.415220 0.496180 0.497250 1.036624
Cu2   Cu    Cu3+1 0.584780 0.503820 0.502750 1.071075
C5    C     C_R   0.478574 0.560189 0.880992 0.658481
C6    C     C_R   0.507100 0.429439 0.119010 0.660601
N1    N     N_R   0.481286 0.490075 0.851757 -0.456952
N2    N     N_R   0.493593 0.497294 0.148228 -0.458462
C7    C     C_R   0.485480 0.421075 0.878467 0.657963
C8    C     C_R   0.478694 0.564151 0.121479 0.657442
C9    C     C_R   0.491288 0.420479 0.938462 -0.127382
C10   C     C_R   0.479419 0.566004 0.061515 -0.124502
C11   C     C_R   0.484601 0.492561 0.969870 -0.074791
C12   C     C_R   0.487631 0.494233 0.030110 -0.073049
C13   C     C_R   0.475130 0.563055 0.940925 -0.120683
C14   C     C_R   0.499159 0.424189 0.059074 -0.118706
C15   C     C_R   0.502341 0.350654 0.967799 0.250925
C16   C     C_R   0.470207 0.636172 0.032209 0.250122
C17   C     C_R   0.503097 0.351970 0.027516 0.258793
C18   C     C_R   0.464483 0.633907 0.972542 0.258504
O9    O     O_2   0.481513 0.626494 0.851425 -0.441210
O10   O     O_2   0.529463 0.368386 0.148643 -0.438234
O11   O     O_2   0.482790 0.353832 0.846230 -0.432945
O12   O     O_2   0.461316 0.627361 0.153565 -0.437657
C19   C     C_R   0.565039 0.536139 0.239267 -0.144991
C20   C     C_R   0.561274 0.482797 0.765105 -0.149383
H1    H     H_    0.616794 0.565113 0.216159 0.198314
H2    H     H_    0.616709 0.476077 0.791419 0.198273
C21   C     C_R   0.569265 0.537685 0.298490 0.274064
C22   C     C_R   0.568576 0.485131 0.706372 0.265147
C23   C     C_R   0.501745 0.499866 0.328513 -0.161152
C24   C     C_R   0.496361 0.495119 0.671933 -0.175374
C25   C     C_R   0.431216 0.461514 0.298150 -0.280656
C26   C     C_R   0.418215 0.500694 0.698236 -0.251057
H3    H     H_    0.379056 0.432683 0.320994 0.208129
H4    H     H_    0.361967 0.506369 0.672636 0.238502
C27   C     C_R   0.426230 0.460637 0.238732 0.381949
C28   C     C_R   0.410720 0.497748 0.757304 0.375248
C29   C     C_R   0.494440 0.498234 0.209212 0.169088
C30   C     C_R   0.483703 0.489355 0.790844 0.169676
C31   C     C_R   0.484227 0.260965 0.496756 -0.175572
C32   C     C_R   0.515784 0.739091 0.502912 -0.177930
C33   C     C_R   0.557850 0.224847 0.484211 -0.262665
C34   C     C_R   0.441745 0.775244 0.514172 -0.265869
C35   C     C_R   0.555949 0.142857 0.476567 0.319220
C36   C     C_R   0.443426 0.857232 0.521562 0.320524
C37   C     C_R   0.478924 0.095675 0.484159 0.234114
C38   C     C_R   0.520677 0.904458 0.514822 0.234418
C39   C     C_R   0.405567 0.130984 0.496374 -0.169646
C40   C     C_R   0.594430 0.869150 0.503815 -0.174022
C41   C     C_R   0.407210 0.212720 0.503315 0.249806
C42   C     C_R   0.593043 0.787381 0.497275 0.255621
N3    N     N_2   0.473904 0.012466 0.482569 -0.143224
N4    N     N_2   0.525709 0.987685 0.516288 -0.144311
H5    H     H_    0.382326 0.739523 0.518961 0.243710
H6    H     H_    0.617026 0.260621 0.478625 0.242241
H7    H     H_    0.346998 0.094086 0.502353 0.232091
H8    H     H_    0.653201 0.906066 0.498543 0.230734
N5    N     N_R   0.712130 0.509560 0.506880 -0.235550
N6    N     N_R   0.287870 0.490440 0.493120 -0.236060
C43   C     C_R   0.753349 0.462859 0.469741 0.359533
C44   C     C_R   0.246637 0.537634 0.529894 0.338508
C45   C     C_R   0.842499 0.467946 0.468976 0.139944
C46   C     C_R   0.157499 0.532313 0.530843 0.139432
C47   C     C_R   0.891131 0.520008 0.507984 0.176229
C48   C     C_R   0.108821 0.479610 0.492271 0.176805
C49   C     C_R   0.847162 0.567534 0.545140 0.177277
C50   C     C_R   0.152794 0.431779 0.455325 0.173508
C51   C     C_R   0.758007 0.561272 0.543895 0.016405
C52   C     C_R   0.241981 0.438295 0.456390 -0.021909
N7    N     N_2   0.982412 0.528698 0.509804 -0.095928
N8    N     N_2   0.017522 0.470828 0.490527 -0.095242
H9    H     H_    0.725287 0.598519 0.572354 0.198384
H10   H     H_    0.274705 0.400837 0.428080 0.189190
Br1   Br    Br    0.522493 0.251731 0.928864 -0.197686
Br2   Br    Br    0.471378 0.739117 0.071098 -0.200030
Br3   Br    Br    0.302296 0.251752 0.524782 -0.358068
Br4   Br    Br    0.698844 0.748453 0.477812 -0.334486
Br5   Br    Br    0.306817 0.611257 0.584214 -0.342575
Br6   Br    Br    0.693148 0.390692 0.414416 -0.312205
N9    N     N_R   0.117743 0.576699 0.573661 0.183923
O13   O     O_R   0.082384 0.540986 0.616213 -0.229942
O14   O     O_R   0.119719 0.653075 0.571359 -0.212029
N10   N     N_R   0.882358 0.424082 0.425912 0.183151
O15   O     O_R   0.918825 0.460471 0.384026 -0.236369
O16   O     O_R   0.879592 0.347571 0.427390 -0.214726
Br7   Br    Br    0.906747 0.642388 0.598116 -0.198985
Br8   Br    Br    0.093154 0.356139 0.402915 -0.204937
Br9   Br    Br    0.501829 0.251034 0.063634 -0.179094
Br10  Br    Br    0.434243 0.728566 0.936704 -0.179689
Br11  Br    Br    0.666457 0.596533 0.335067 -0.313530
Br12  Br    Br    0.679234 0.471873 0.677992 -0.376932
N11   N     N_R   0.351785 0.422242 0.209352 0.159094
O17   O     O_R   0.327163 0.446023 0.160440 -0.291098
O18   O     O_R   0.303931 0.367413 0.233658 -0.266493
N12   N     N_R   0.329210 0.503036 0.782222 0.162500
O19   O     O_R   0.311331 0.471737 0.830579 -0.284272
O20   O     O_R   0.269892 0.534290 0.754584 -0.240343
N13   N     N_R   0.367554 0.891251 0.537653 0.158465
O21   O     O_R   0.371799 0.953150 0.572136 -0.277304
O22   O     O_R   0.293486 0.855115 0.523526 -0.259318
N14   N     N_R   0.631348 0.108789 0.459487 0.157979
O23   O     O_R   0.626167 0.046376 0.425459 -0.276421
O24   O     O_R   0.705747 0.145156 0.472397 -0.258313

loop_
_geom_bond_atom_site_label_1
_geom_bond_atom_site_label_2
_geom_bond_distance
_ccdc_geom_bond_type
C35   N14   1.439904 S    
C15   C17   1.406125 A    
C45   C47   1.412942 A    
C33   C35   1.398199 A    
C31   C41   1.417645 A    
C52   H10   1.081946 S    
N14   O24   1.301555 A    
N7    N8    1.255019 D    
C27   C29   1.411870 A    
C34   H5    1.080317 S    
O5    C3    1.296749 A    
C46   C48   1.413040 A    
O1    C1    1.294638 A    
C19   H1    1.083183 S    
C12   C14   1.422195 A    
N13   O22   1.301546 A    
C50   C52   1.408498 A    
C37   C39   1.393576 A    
N12   O19   1.301087 A    
C38   C40   1.393509 A    
C18   Br10  1.945206 S    
C40   C42   1.393042 A    
O4    Cu1   1.950602 S    
C15   Br1   1.945399 S    
C4    C24   1.483211 S    
C41   Br3   1.924548 S    
C39   H7    1.083589 S    
C28   N12   1.441869 S    
C26   H4    1.081138 S    
C19   C29   1.399860 A    
C11   C12   1.418228 A    
C37   N3    1.410278 S    
C8    O12   1.346396 S    
C28   C30   1.410429 A    
C9    C15   1.421960 A    
N5    C43   1.379258 A    
C10   C16   1.421197 A    
Cu1   Cu2   2.681646 S    
C38   N4    1.410614 S    
C23   C25   1.405227 A    
O2    C2    1.294632 A    
C24   C26   1.408595 A    
C45   N10   1.432668 S    
N14   O23   1.301448 A    
C32   C34   1.406003 A    
C21   Br11  1.921838 S    
C49   C51   1.408087 A    
C6    C14   1.413713 A    
C34   C36   1.397947 A    
C39   C41   1.392866 A    
C27   N11   1.441571 S    
C17   Br9   1.945478 S    
N6    C52   1.360991 A    
C20   C22   1.392935 A    
C44   C46   1.409430 A    
C7    O11   1.346246 S    
C48   N8    1.441447 S    
N9    O13   1.300951 A    
C43   C45   1.409594 A    
C47   N7    1.441179 S    
C42   Br4   1.924510 S    
C31   C33   1.405962 A    
C46   N9    1.432622 S    
C19   C21   1.394662 A    
O7    Cu2   1.951273 S    
C50   Br8   1.914047 S    
N9    O14   1.301109 A    
C25   H3    1.083574 S    
O6    C4    1.296792 A    
N11   O18   1.301585 A    
N10   O16   1.301103 A    
C33   H6    1.080479 S    
O7    C3    1.298693 A    
C40   H8    1.083616 S    
O3    Cu2   1.950604 S    
O8    C4    1.304119 A    
O4    C2    1.303992 A    
C8    C10   1.414675 A    
C9    C11   1.423347 A    
C16   Br2   1.945096 S    
Cu2   N5    2.014076 S    
C10   C12   1.423172 A    
N5    C51   1.360741 A    
O1    Cu1   1.946364 S    
C20   H2    1.083443 S    
C36   N13   1.439720 S    
C20   C30   1.396809 A    
C13   C18   1.420223 A    
C5    N1    1.360433 A    
O6    Cu2   1.940839 S    
C7    C9    1.415066 A    
C48   C50   1.412321 A    
O3    C1    1.303672 A    
O8    Cu1   1.951271 S    
N1    C30   1.436157 S    
C5    O9    1.346642 S    
C6    O10   1.346597 S    
C35   C37   1.412707 A    
C16   C18   1.405631 A    
C32   C42   1.418044 A    
N13   O21   1.301442 A    
C51   H9    1.081841 S    
C44   Br5   1.925275 S    
C43   Br6   1.926355 S    
N12   O20   1.301718 A    
C22   C24   1.418034 A    
N1    C7    1.360755 A    
C36   C38   1.412757 A    
C3    C23   1.472572 S    
N2    C8    1.360831 A    
C11   C13   1.422412 A    
N10   O15   1.300968 A    
O2    Cu2   1.946366 S    
C5    C13   1.413525 A    
C22   Br12  1.924127 S    
N3    N4    1.246018 D    
O5    Cu1   1.940839 S    
C21   C23   1.411705 A    
C14   C17   1.420187 A    
C6    N2    1.360344 A    
Cu1   N6    2.014077 S    
C47   C49   1.412150 A    
N11   O17   1.301093 A    
C1    C31   1.477828 S    
N6    C44   1.379108 A    
C49   Br7   1.913886 S    
C2    C32   1.478454 S    
C25   C27   1.399947 A    
C26   C28   1.401751 A    
N2    C29   1.436121 S    
