data_mof_unit_32882.cif
_audit_creation_date              2012-12-10T17:08:15-0500
_audit_creation_method            fapswitch 2.2
_symmetry_space_group_name_H-M    P1
_symmetry_Int_Tables_number       1
_space_group_crystal_system       triclinic
_cell_length_a                    23.619105
_cell_length_b                    10.948321
_cell_length_c                    9.926086
_cell_angle_alpha                 111.145064
_cell_angle_beta                  96.635972
_cell_angle_gamma                 94.370398
_cell_volume                      2358.59041313

loop_
_atom_site_label
_atom_site_type_symbol
_atom_type_description
_atom_site_fract_x
_atom_site_fract_y
_atom_site_fract_z
_atom_type_partial_charge
C1    C     C_R   0.492726 0.252675 0.441119 0.838592
C2    C     C_R   0.504362 0.747050 0.559710 0.847372
C3    C     C_R   0.239042 0.578869 0.563037 -0.122175
C4    C     C_R   0.749318 0.370383 0.402035 -0.122897
C5    C     C_R   0.298545 0.595475 0.572397 0.353463
C6    C     C_R   0.690699 0.376721 0.402888 0.259672
C7    C     C_R   0.327292 0.486057 0.498568 -0.237409
C8    C     C_R   0.671314 0.494626 0.492040 -0.234851
C9    C     C_R   0.293290 0.361295 0.413218 0.239782
C10   C     C_R   0.712510 0.606245 0.578169 0.234238
C11   C     C_R   0.232873 0.348154 0.410859 -0.108507
C12   C     C_R   0.771652 0.598347 0.568631 -0.104292
C13   C     C_R   0.206289 0.457921 0.484547 0.174419
C14   C     C_R   0.789664 0.478912 0.483595 0.188699
C15   C     C_2   0.482974 0.109409 0.413314 0.270057
C16   C     C_2   0.503874 0.889603 0.591747 0.173567
C17   C     C_2   0.467873 0.068140 0.520701 -0.132639
C18   C     C_2   0.465726 0.929711 0.507202 -0.179059
C19   C     C_2   0.508150 0.514416 0.082749 0.403948
C20   C     C_2   0.487801 0.532086 0.942780 0.354460
C21   C     C_R   0.390915 0.499881 0.501572 0.936946
C22   C     C_R   0.608812 0.499233 0.497719 0.953036
C23   C     C_R   0.883876 0.476246 0.606979 0.556982
C24   C     C_R   0.109942 0.427918 0.353849 0.559040
C25   C     C_R   0.871336 0.441483 0.353847 0.563183
C26   C     C_R   0.123536 0.466208 0.607994 0.564169
C27   C     C_R   0.929791 0.423528 0.347350 -0.061498
C28   C     C_R   0.064194 0.473348 0.613380 -0.061398
C29   C     C_R   0.966946 0.449134 0.480203 -0.017451
C30   C     C_R   0.026850 0.446046 0.480329 -0.017820
C31   C     C_R   0.944106 0.478684 0.612904 -0.057937
C32   C     C_R   0.049557 0.416856 0.347419 -0.057533
C33   C     C_R   0.952048 0.381166 0.213331 -0.090134
C34   C     C_R   0.041403 0.508991 0.746792 -0.091135
C35   C     C_R   0.011496 0.377796 0.213355 -0.079708
C36   C     C_R   0.981892 0.511753 0.746529 -0.081702
Cu1   Cu    Cu3+1 0.509980 0.521810 0.644910 1.141101
Cu2   Cu    Cu3+1 0.490020 0.478190 0.355090 1.160149
H1    H     H_    0.563827 0.521294 0.878626 0.248271
H2    H     H_    0.436159 0.397583 0.075086 0.233676
H3    H     H_    0.217120 0.662286 0.617731 0.199475
H4    H     H_    0.764513 0.279398 0.338596 0.202939
N1    N     N_R   0.849861 0.465612 0.481450 -0.453952
N2    N     N_R   0.144919 0.448468 0.481353 -0.452083
N3    N     N_2   0.475010 0.445410 0.137370 -0.294496
N4    N     N_2   0.524990 0.554590 0.862630 -0.272365
O1    O     O_R   0.505330 0.332340 0.577400 -0.626973
O2    O     O_R   0.494670 0.667660 0.422600 -0.554770
O3    O     O_R   0.488470 0.295500 0.332650 -0.506116
O4    O     O_R   0.511530 0.704500 0.667350 -0.521296
O5    O     O_R   0.426310 0.518390 0.622390 -0.494072
O6    O     O_R   0.573690 0.481610 0.377610 -0.486904
O7    O     O_R   0.409450 0.481550 0.377650 -0.561606
O8    O     O_R   0.590550 0.518450 0.622350 -0.553865
O9    O     O_2   0.858886 0.483823 0.724800 -0.494613
O10   O     O_2   0.134085 0.421221 0.235073 -0.502555
O11   O     O_2   0.836109 0.437859 0.235002 -0.483680
O12   O     O_2   0.160124 0.476450 0.727538 -0.489723
C37   C     C_1   0.914286 0.333057 0.073356 0.373987
N5    N     N_1   0.884464 0.294399 0.961641 -0.158080
C38   C     C_1   0.078563 0.550844 0.887218 0.371300
N6    N     N_1   0.107867 0.584543 0.999331 -0.159844
C39   C     C_1   0.031995 0.325714 0.073364 0.340141
N7    N     N_1   0.047952 0.283528 0.961577 -0.218615
C40   C     C_1   0.961207 0.558446 0.886691 0.342783
N8    N     N_1   0.945136 0.596412 0.998643 -0.214435
S1    S     S_3+6 0.330499 0.759880 0.673288 0.049594
O13   O     O_2   0.304084 0.848242 0.604611 -0.269030
O14   O     O_2   0.316586 0.799144 0.826145 -0.183945
O15   O     O_3   0.401566 0.782107 0.680805 -0.579837
H5    H     H_    0.413949 0.872513 0.754205 0.382281
S2    S     S_3+6 0.643897 0.229573 0.301877 0.098574
O16   O     O_2   0.600693 0.253236 0.193592 -0.135240
O17   O     O_2   0.676306 0.120188 0.220069 -0.209215
O18   O     O_3   0.610183 0.183282 0.418761 -0.531694
H6    H     H_    0.641342 0.169753 0.485772 0.372597
S3    S     S_3+6 0.326710 0.221247 0.315653 0.043724
O19   O     O_2   0.369672 0.199368 0.424717 -0.333410
O20   O     O_2   0.285903 0.096155 0.240928 -0.213927
O21   O     O_3   0.360594 0.249778 0.188039 -0.491188
H7    H     H_    0.330653 0.273461 0.126640 0.359225
S4    S     S_3+6 0.689556 0.753756 0.696094 0.088687
O22   O     O_2   0.661762 0.724759 0.811799 -0.185559
O23   O     O_2   0.737321 0.865152 0.771565 -0.233358
O24   O     O_3   0.641366 0.803559 0.595948 -0.466248
H8    H     H_    0.664471 0.846039 0.543863 0.382997
C41   C     C_1   0.196753 0.222999 0.337419 0.449427
N9    N     N_1   0.167297 0.123588 0.279226 -0.202251
C42   C     C_1   0.815017 0.711345 0.641931 0.423790
N10   N     N_1   0.850159 0.800932 0.699872 -0.213705
C43   C     C_1   0.414343 0.843802 0.420457 0.476330
N11   N     N_1   0.372660 0.776676 0.353543 -0.143548
C44   C     C_1   0.444661 0.153032 0.645603 0.429646
N12   N     N_1   0.425806 0.219267 0.745360 -0.196511
S5    S     S_3+6 0.554360 0.003821 0.739823 0.102005
O25   O     O_2   0.596714 0.072126 0.680009 -0.212232
O26   O     O_2   0.524788 0.106286 0.843198 -0.299353
O27   O     O_3   0.590091 0.927303 0.836005 -0.350854
H9    H     H_    0.563737 0.913897 0.901565 0.403519
S6    S     S_3+6 0.488495 0.993236 0.237125 0.122890
O28   O     O_2   0.532063 0.904124 0.251846 -0.169142
O29   O     O_2   0.431232 0.911100 0.169890 -0.225899
O30   O     O_3   0.507980 0.066918 0.124679 -0.421048
H10   H     H_    0.471539 0.082066 0.076411 0.381998
S7    S     S_3+6 0.417042 0.572777 0.927361 0.078082
O31   O     O_2   0.418241 0.694433 0.891845 -0.152766
O32   O     O_2   0.377264 0.460920 0.812101 -0.290494
O33   O     O_3   0.391787 0.605147 0.086179 -0.535205
H11   H     H_    0.350428 0.611374 0.062942 0.402056
S8    S     S_3+6 0.579383 0.601362 0.168036 0.064841
O34   O     O_2   0.583322 0.688295 0.324932 -0.248080
O35   O     O_2   0.620913 0.501548 0.153159 -0.263277
O36   O     O_3   0.602229 0.704031 0.087834 -0.487422
H12   H     H_    0.643466 0.732180 0.128857 0.404917

loop_
_geom_bond_atom_site_label_1
_geom_bond_atom_site_label_2
_ccdc_geom_bond_type
C21   O7    A    
C41   N9    T    
C44   N12   T    
C27   C29   A    
S5    O25   D    
C15   S6    S    
C5    S1    S    
C25   N1    A    
S5    O27   S    
C26   N2    A    
C22   O8    A    
Cu2   O3    S    
O24   H8    S    
C27   C33   A    
C6    S2    S    
S7    O32   D    
Cu1   Cu2   S    
C18   C43   S    
O36   H12   S    
Cu1   O5    S    
C19   S8    S    
Cu2   O6    S    
C23   N1    A    
O33   H11   S    
C15   C17   D    
S8    O34   D    
Cu2   N3    S    
C2    O4    A    
C19   C20   S    
C11   C41   S    
C8    C22   S    
O15   H5    S    
C1    C15   S    
Cu1   O1    S    
C2    C16   S    
Cu2   O2    S    
C3    C13   A    
S3    O19   D    
S2    O16   D    
C28   C34   A    
C37   N5    T    
C33   C37   S    
C25   O11   S    
S2    O18   S    
S3    O20   D    
H2    N3    S    
S7    O33   S    
S1    O13   D    
C32   C35   A    
C12   C42   S    
S2    O17   D    
C43   N11   T    
C5    C7    A    
C36   C40   S    
C1    O1    A    
C6    C8    A    
C2    O2    A    
C7    C21   S    
C10   S4    S    
S6    O30   S    
S1    O14   D    
C23   C31   A    
O18   H6    S    
C24   C32   A    
C29   C30   A    
C26   O12   S    
S6    O29   D    
C17   C18   S    
C16   C18   D    
C9    S3    S    
C9    C11   A    
S8    O36   S    
C10   C12   A    
H1    N4    S    
Cu1   O8    S    
C4    C6    A    
C12   C14   A    
O27   H9    S    
S4    O23   D    
C24   N2    A    
C17   C44   S    
C21   O5    A    
C22   O6    A    
C20   S7    S    
S3    O21   S    
C7    C9    A    
S5    O26   D    
C3    H3    S    
C16   S5    S    
O21   H7    S    
C3    C5    A    
C19   N3    D    
C23   O9    S    
C25   C27   A    
S4    O24   S    
S7    O31   D    
C26   C28   A    
S1    O15   S    
C28   C30   A    
Cu1   N4    S    
C29   C31   A    
C30   C32   A    
Cu1   O4    S    
C11   C13   A    
Cu2   O7    S    
C4    H4    S    
C24   O10   S    
S6    O28   D    
C33   C35   A    
C34   C36   A    
C34   C38   S    
C4    C14   A    
C38   N6    T    
S8    O35   D    
C39   N7    T    
C8    C10   A    
C40   N8    T    
O30   H10   S    
C31   C36   A    
C35   C39   S    
S4    O22   D    
C42   N10   T    
C1    O3    A    
C13   N2    S    
C20   N4    D    
C14   N1    S    
