data_mof_unit_27157.cif
_audit_creation_date              2012-12-10T17:25:20-0500
_audit_creation_method            fapswitch 2.2
_symmetry_space_group_name_H-M    P1
_symmetry_Int_Tables_number       1
_space_group_crystal_system       triclinic
_cell_length_a                    27.737997
_cell_length_b                    10.888782
_cell_length_c                    9.633678
_cell_angle_alpha                 91.279835
_cell_angle_beta                  90.481484
_cell_angle_gamma                 95.743734
_cell_volume                      2894.19274039

loop_
_atom_site_label
_atom_site_type_symbol
_atom_type_description
_atom_site_fract_x
_atom_site_fract_y
_atom_site_fract_z
_atom_type_partial_charge
C1    C     C_R   0.496147 0.261985 0.497956 0.801979
C2    C     C_R   0.279759 0.526921 0.620795 -0.098994
C3    C     C_R   0.253235 0.504522 0.496884 0.308112
C4    C     C_R   0.100725 0.497108 0.500546 -0.049632
C5    C     C_R   0.124066 0.401463 0.560565 -0.014560
C6    C     C_R   0.096582 0.302593 0.621402 -0.128367
C7    C     C_R   0.128767 0.599029 0.443011 -0.075711
C8    C     C_R   0.354604 0.505567 0.497901 -0.031163
C9    C     C_R   0.644527 0.488793 0.499570 -0.071461
C10   C     C_R   0.970670 0.389845 0.571837 0.043122
C11   C     C_R   0.974649 0.559222 0.406857 0.039526
C12   C     C_R   0.407628 0.502495 0.499387 0.828604
C13   C     C_R   0.947221 0.469989 0.486321 0.076337
C14   C     C_R   0.941963 0.310144 0.659198 -0.199808
C15   C     C_R   0.891646 0.307207 0.658467 -0.130876
C16   C     C_R   0.868146 0.381379 0.568381 -0.023383
C17   C     C_R   0.895894 0.460905 0.479807 -0.047542
C18   C     C_R   0.872338 0.532122 0.385314 -0.024347
C19   C     C_R   0.821585 0.525829 0.384577 0.547284
C20   C     C_R   0.817452 0.380531 0.566988 0.552766
C21   C     C_R   0.710028 0.364344 0.441382 0.018323
C22   C     C_R   0.660503 0.378292 0.448540 -0.244505
C23   C     C_R   0.498845 0.737689 0.502852 0.823168
C24   C     C_R   0.678748 0.586980 0.542763 -0.058336
C25   C     C_R   0.728078 0.572026 0.537469 -0.135610
C26   C     C_R   0.744066 0.461824 0.486629 0.287222
C27   C     C_R   0.021852 0.391811 0.566268 0.051483
C28   C     C_R   0.049337 0.489894 0.498296 0.063704
C29   C     C_R   0.025657 0.580713 0.429057 -0.015442
C30   C     C_R   0.046478 0.298195 0.625354 -0.195699
C31   C     C_R   0.104759 0.698453 0.392130 -0.077093
C32   C     C_R   0.950276 0.619669 0.303247 -0.183902
C33   C     C_R   0.899946 0.607549 0.293759 -0.136200
C34   C     C_R   0.592264 0.499480 0.500402 0.810447
C35   C     C_R   0.053672 0.690954 0.389878 -0.082791
C36   C     C_R   0.438230 0.110099 0.705255 -0.011694
C37   C     C_R   0.430499 0.056567 0.834455 -0.194670
C38   C     C_R   0.451333 0.949587 0.865531 0.022520
C39   C     C_R   0.475770 0.889231 0.762459 -0.205257
C40   C     C_R   0.481798 0.938595 0.627554 0.070084
C41   C     C_R   0.469945 0.060400 0.608690 0.054814
C42   C     C_R   0.489323 0.126272 0.492739 -0.153972
C43   C     C_R   0.506563 0.060455 0.378536 -0.042063
C44   C     C_R   0.507400 0.934408 0.385432 -0.179194
C45   C     C_R   0.174649 0.405905 0.557741 0.551971
C46   C     C_R   0.497333 0.872275 0.509004 -0.096666
C47   C     C_R   0.579222 0.644954 0.137860 0.002240
C48   C     C_R   0.618886 0.686380 0.057194 -0.200754
C49   C     C_R   0.613834 0.693284 0.916895 -0.202176
C50   C     C_R   0.570940 0.647380 0.854028 -0.139704
C51   C     C_R   0.535370 0.573306 0.925933 0.183547
C52   C     C_R   0.536904 0.573249 0.075831 0.147694
C53   C     C_R   0.466718 0.427635 0.070594 0.063594
C54   C     C_R   0.466708 0.428592 0.923218 -0.072255
C55   C     C_R   0.179995 0.598767 0.443548 0.549659
C56   C     C_R   0.277589 0.483075 0.372351 0.013643
C57   C     C_R   0.328051 0.484596 0.373269 -0.218437
C58   C     C_R   0.330010 0.527207 0.621541 -0.186637
Cu1   Cu    Cu3+1 0.500000 0.499990 0.640660 0.954869
Cu2   Cu    Cu3+1 0.500000 0.500010 0.359340 0.987081
H1    H     H_    0.754578 0.647538 0.569649 0.153985
H2    H     H_    0.406899 0.095871 0.909027 0.153002
H3    H     H_    0.490689 0.807026 0.794177 0.174038
H4    H     H_    0.642512 0.741791 0.858927 0.188720
H5    H     H_    0.871217 0.246091 0.728757 0.191094
H6    H     H_    0.027727 0.217652 0.671048 0.148857
N1    N     N_R   0.201345 0.502821 0.498967 -0.467832
N2    N     N_R   0.795315 0.453201 0.476932 -0.465771
N3    N     N_R   0.500460 0.501210 0.147910 -0.215136
N4    N     N_R   0.500480 0.501290 0.852040 -0.204111
O1    O     O_R   0.500000 0.319640 0.618810 -0.566993
O2    O     O_2   0.790597 0.309594 0.656511 -0.525626
O3    O     O_2   0.208590 0.692720 0.389220 -0.520942
O4    O     O_2   0.798615 0.593130 0.293718 -0.529661
O5    O     O_R   0.500000 0.319660 0.381240 -0.569980
O6    O     O_R   0.430260 0.500010 0.618770 -0.583563
O7    O     O_R   0.430270 0.500030 0.381200 -0.581564
O8    O     O_R   0.500000 0.680340 0.618760 -0.629385
O9    O     O_R   0.500000 0.680360 0.381190 -0.577876
O10   O     O_R   0.569730 0.499970 0.618800 -0.584470
O11   O     O_R   0.569740 0.499990 0.381230 -0.578477
O12   O     O_2   0.197120 0.313467 0.612422 -0.517233
H7    H     H_    0.349572 0.544077 0.718977 0.164884
C59   C     C_1   0.251194 0.457102 0.243617 0.293792
N5    N     N_1   0.230002 0.436307 0.140390 -0.249927
C60   C     C_1   0.131564 0.811262 0.345207 0.369149
N6    N     N_1   0.152661 0.901398 0.307767 -0.213014
H8    H     H_    0.969764 0.674012 0.225463 0.159934
C61   C     C_1   0.665035 0.707062 0.582026 0.234359
N7    N     N_1   0.654775 0.804593 0.611886 -0.266796
H9    H     H_    0.882796 0.658477 0.215106 0.191452
C62   C     C_1   0.030972 0.803759 0.367528 0.230421
N8    N     N_1   0.013108 0.893910 0.350212 -0.263104
C63   C     C_1   0.524033 0.117603 0.251772 0.294091
N9    N     N_1   0.537998 0.162784 0.150159 -0.267798
C64   C     C_1   0.404278 0.193956 0.662482 0.237435
N10   N     N_1   0.375803 0.258169 0.628792 -0.267217
H10   H     H_    0.261257 0.543636 0.716896 0.156028
C65   C     C_1   0.443932 0.895246 0.999686 0.235043
N11   N     N_1   0.437839 0.851199 0.107131 -0.277870
H11   H     H_    0.518024 0.885316 0.293424 0.175734
C66   C     C_1   0.431804 0.342850 0.137832 0.279944
N12   N     N_1   0.403775 0.273908 0.191230 -0.287200
C67   C     C_1   0.584562 0.710743 0.268146 0.313433
N13   N     N_1   0.592469 0.768428 0.369441 -0.311484
H12   H     H_    0.652050 0.731937 0.103581 0.174902
H13   H     H_    0.567556 0.670475 0.748128 0.207249
H14   H     H_    0.439554 0.369838 0.865323 0.138972
H15   H     H_    0.113742 0.227664 0.666830 0.193470
H16   H     H_    0.634225 0.303333 0.413204 0.152672
C68   C     C_1   0.725362 0.251221 0.384215 0.310402
N14   N     N_1   0.737682 0.160456 0.338378 -0.241140
H17   H     H_    0.957584 0.252155 0.733124 0.146681
H18   H     H_    0.346427 0.467630 0.276949 0.169536

loop_
_geom_bond_atom_site_label_1
_geom_bond_atom_site_label_2
_ccdc_geom_bond_type
C10   C27   A    
C21   C26   A    
Cu2   O9    S    
C41   C42   A    
C68   N14   T    
C7    C55   A    
C53   N3    A    
C24   C61   S    
C37   H2    S    
C53   C54   A    
C40   C46   A    
C1    O1    A    
C28   C29   A    
C33   H9    S    
C5    C6    A    
C9    C22   A    
C45   O12   S    
C15   C16   A    
C32   H8    S    
C43   C63   S    
C56   C57   A    
C17   C18   A    
C18   C19   A    
C3    C56   A    
C52   N3    A    
C4    C28   A    
C48   H12   S    
C47   C48   A    
C16   C17   A    
C22   H16   S    
C45   N1    A    
C34   O11   A    
C8    C12   S    
C34   O10   A    
C35   C62   S    
Cu1   Cu2   S    
C23   C46   S    
C21   C22   A    
C64   N10   T    
C27   C30   A    
C36   C41   A    
C66   N12   T    
C4    C7    A    
Cu1   O8    S    
C67   N13   T    
C21   C68   S    
C44   C46   A    
C56   C59   S    
Cu2   O7    S    
C7    C31   A    
C51   C52   A    
C1    O5    A    
C24   C25   A    
C10   C14   A    
C39   C40   A    
C60   N6    T    
C38   C65   S    
C25   C26   A    
C5    C45   A    
C43   C44   A    
C37   C38   A    
C8    C57   A    
Cu2   O11   S    
C36   C64   S    
C65   N11   T    
C54   N4    A    
C53   C66   S    
C16   C20   A    
C12   O7    A    
C50   C51   A    
C19   N2    A    
C25   H1    S    
C59   N5    T    
C2    H10   S    
C30   H6    S    
C48   C49   A    
C51   N4    A    
C11   C32   A    
C12   O6    A    
C50   H13   S    
C6    H15   S    
C31   C35   A    
C49   H4    S    
C42   C43   A    
C40   C41   A    
C8    C58   A    
C47   C67   S    
C6    C30   A    
C20   N2    A    
C19   O4    S    
C3    N1    S    
C4    C5    A    
C10   C13   A    
Cu1   O10   S    
C55   N1    A    
C44   H11   S    
C2    C58   A    
C9    C24   A    
C47   C52   A    
C13   C17   A    
C14   H17   S    
C39   H3    S    
C29   C35   A    
Cu2   O5    S    
C54   H14   S    
C26   N2    S    
C32   C33   A    
C2    C3    A    
C58   H7    S    
C11   C13   A    
C38   C39   A    
C57   H18   S    
Cu2   N3    S    
C62   N8    T    
C9    C34   S    
C23   O8    A    
C63   N9    T    
C18   C33   A    
Cu1   N4    S    
C55   O3    S    
C1    C42   S    
C11   C29   A    
C36   C37   A    
C49   C50   A    
C27   C28   A    
C31   C60   S    
C14   C15   A    
C20   O2    S    
C23   O9    A    
C61   N7    T    
Cu1   O6    S    
Cu1   O1    S    
C15   H5    S    
