data_mof_unit_23003.cif
_audit_creation_date              2012-12-11T15:52:41-0500
_audit_creation_method            fapswitch 2.2
_symmetry_space_group_name_H-M    P1
_symmetry_Int_Tables_number       1
_space_group_crystal_system       triclinic
_cell_length_a                    6.951999
_cell_length_b                    14.55823
_cell_length_c                    16.039034
_cell_angle_alpha                 90.170183
_cell_angle_beta                  90.308127
_cell_angle_gamma                 90.36556
_cell_volume                      1623.22755054

loop_
_atom_site_label
_atom_site_type_symbol
_atom_type_description
_atom_site_fract_x
_atom_site_fract_y
_atom_site_fract_z
_atom_type_partial_charge
O1    O     O_R   0.494400 0.415640 0.412830 -0.504884
O2    O     O_R   0.823920 0.405510 0.586560 -0.537695
O3    O     O_R   0.994250 0.584360 0.587170 -0.532143
C1    C     C_R   0.654558 0.384746 0.616590 0.672775
O4    O     O_R   0.824110 0.404610 0.413450 -0.543807
O5    O     O_R   0.994440 0.583460 0.412820 -0.542235
C2    C     C_R   0.654309 0.382622 0.384278 0.739753
O6    O     O_R   0.494210 0.416540 0.587180 -0.540448
O7    O     O_3   0.660810 0.558680 0.500000 -0.370373
V1    V     V_3+5 0.935650 0.489110 0.500000 1.512902
O8    O     O_R   0.324150 0.594490 0.413440 -0.543049
C3    C     C_R   0.155097 0.616797 0.384553 0.717940
O9    O     O_R   0.323970 0.595390 0.586550 -0.542199
C4    C     C_R   0.156710 0.617069 0.616132 0.705225
V2    V     V_3+5 0.435660 0.510890 0.500000 1.523347
O10   O     O_3   0.160630 0.441320 0.500000 -0.357739
C5    C     C_3   0.992694 0.659300 0.750989 -0.330805
H1    H     H_    0.852849 0.647512 0.720457 0.180960
H2    H     H_    0.030748 0.591680 0.778514 0.166049
C6    C     C_3   0.972857 0.730246 0.822624 -0.455587
H3    H     H_    0.995349 0.695719 0.883687 0.159794
H4    H     H_    0.824032 0.757951 0.822518 0.157851
H5    H     H_    0.923868 0.876986 0.725328 0.076860
C7    C     C_3   0.119690 0.788780 0.653529 -0.245457
C8    C     C_3   0.341615 0.691504 0.739333 -0.170628
C9    C     C_3   0.150547 0.687929 0.686945 -0.037025
H6    H     H_    0.371121 0.622849 0.766790 0.114767
C10   C     C_3   0.121294 0.809006 0.812091 0.005839
C11   C     C_3   0.077582 0.855886 0.726810 0.472158
C12   C     C_3   0.324947 0.764213 0.810225 -0.332631
H7    H     H_    0.354041 0.730197 0.871034 0.121387
H8    H     H_    0.436177 0.819203 0.803598 0.181560
H9    H     H_    0.255548 0.812977 0.624849 0.168579
C13   C     C_R   0.953605 0.775058 0.217006 -0.147716
H10   H     H_    0.813084 0.794053 0.193561 0.115106
C14   C     C_R   0.964683 0.711979 0.282662 -0.122857
H11   H     H_    0.832117 0.684212 0.307559 0.120884
C15   C     C_R   0.143956 0.685016 0.315504 -0.043242
C16   C     C_R   0.311797 0.723208 0.280927 -0.137090
H12   H     H_    0.452319 0.704255 0.304403 0.119806
C17   C     C_R   0.300715 0.786303 0.215287 -0.139860
H13   H     H_    0.433278 0.814135 0.190447 0.118047
C18   C     C_R   0.121469 0.813027 0.182252 -0.044929
C19   C     C_R   0.797752 0.259051 0.702988 -0.127095
H14   H     H_    0.927451 0.263280 0.666067 0.145341
C20   C     C_R   0.788540 0.193605 0.766580 -0.137184
H15   H     H_    0.911607 0.149799 0.777136 0.146364
C21   C     C_R   0.621674 0.183721 0.814886 -0.053567
C22   C     C_R   0.465627 0.241798 0.799301 -0.171566
H16   H     H_    0.337099 0.236255 0.837058 0.124511
C23   C     C_R   0.474406 0.308746 0.736850 -0.026351
C24   C     C_R   0.641367 0.317259 0.686385 -0.090060
C25   C     C_R   0.798574 0.255645 0.299877 -0.235979
H17   H     H_    0.926736 0.260689 0.338537 0.178883
C26   C     C_R   0.791129 0.189602 0.236043 -0.034753
C27   C     C_R   0.624868 0.181373 0.184381 -0.174866
C28   C     C_R   0.468332 0.239360 0.200847 -0.211233
H18   H     H_    0.339274 0.235357 0.162850 0.160442
C29   C     C_R   0.475856 0.304217 0.265496 0.616433
C30   C     C_R   0.642158 0.313533 0.315639 -0.176713
O11   O     O_R   0.771300 0.080930 0.910090 -0.542949
O12   O     O_R   0.441270 0.092800 0.083770 -0.533563
O13   O     O_R   0.271080 0.913920 0.084380 -0.542135
C31   C     C_R   0.611200 0.113826 0.113938 0.720316
O14   O     O_R   0.441580 0.091910 0.910670 -0.536211
O15   O     O_R   0.271390 0.913020 0.910040 -0.530614
C32   C     C_R   0.610710 0.114102 0.882089 0.711437
O16   O     O_R   0.770990 0.081830 0.084440 -0.537743
O17   O     O_3   0.604750 0.938760 0.997250 -0.382833
V3    V     V_3+5 0.329850 0.008280 0.997210 1.471907
O18   O     O_R   0.941680 0.901940 0.910610 -0.555914
C33   C     C_R   0.110152 0.878635 0.882749 0.733690
O19   O     O_R   0.941370 0.902830 0.083720 -0.547238
C34   C     C_R   0.110395 0.880751 0.112795 0.707302
V4    V     V_3+5 0.829860 0.986420 0.997150 1.430189
O20   O     O_3   0.104830 0.056030 0.997180 -0.364217
F1    F     F_    0.188531 0.934851 0.718286 -0.696550
C35   C     C_1   0.311390 0.369249 0.728956 0.280137
N1    N     N_1   0.180595 0.417603 0.723005 -0.392044
C36   C     C_1   0.954638 0.129491 0.228001 0.343467
N2    N     N_1   0.085769 0.081389 0.221962 -0.358594
F2    F     F_    0.321093 0.359033 0.277425 -0.696931
C37   C     C_1   0.985154 0.798160 0.582987 0.329709
N3    N     N_1   0.884420 0.806535 0.525826 -0.308406
C38   C     C_1   0.505219 0.715845 0.686545 0.281503
N4    N     N_1   0.626819 0.736935 0.642041 -0.345510

loop_
_geom_bond_atom_site_label_1
_geom_bond_atom_site_label_2
_ccdc_geom_bond_type
O18   V4    S    
C26   C27   A    
O19   V4    S    
C17   H13   S    
C29   F2    S    
C1    O6    A    
C16   C17   A    
C25   H17   S    
O11   V4    S    
O16   V4    S    
C1    C24   S    
C5    C9    S    
H5    C11   S    
C10   C11   S    
C7    C37   S    
C7    C9    S    
O5    C3    A    
C12   H7    S    
C28   C29   A    
O14   V3    S    
C5    C6    S    
C27   C28   A    
O12   V3    S    
C13   H10   S    
O19   C34   A    
C7    C11   S    
O12   C31   A    
O8    V2    S    
O15   C33   A    
O14   C32   A    
C27   C31   S    
O1    V2    S    
O7    V1    S    
C19   C24   A    
C18   C34   S    
C29   C30   A    
O9    C4    A    
C17   C18   A    
C10   C33   S    
C25   C30   A    
C19   C20   A    
C25   C26   A    
C15   C16   A    
C20   C21   A    
C23   C24   A    
C16   H12   S    
O4    C2    A    
C35   N1    T    
C6    C10   S    
C22   C23   A    
C8    C9    S    
C38   N4    T    
O2    C1    A    
V4    O20   S    
O11   C32   A    
C37   N3    T    
O13   V3    S    
C8    C38   S    
C5    H1    S    
C4    C9    S    
O3    C4    A    
C21   C22   A    
C6    H4    S    
O6    V2    S    
O9    V2    S    
V3    O20   S    
O2    V1    S    
C31   O16   A    
C2    C30   S    
C19   H14   S    
C8    C12   S    
C20   H15   S    
C14   H11   S    
O1    C2    A    
C13   C18   A    
C36   N2    T    
O5    V1    S    
O8    C3    A    
O13   C34   A    
C8    H6    S    
C7    H9    S    
C10   C12   S    
O7    V2    S    
C23   C35   S    
O4    V1    S    
O3    V1    S    
V1    O10   S    
C12   H8    S    
C26   C36   S    
C28   H18   S    
O15   V3    S    
C14   C15   A    
C5    H2    S    
O17   V4    S    
C13   C14   A    
C21   C32   S    
C3    C15   S    
O17   V3    S    
O18   C33   A    
C11   F1    S    
C6    H3    S    
C22   H16   S    
V2    O10   S    
