data_mof_unit_52600.cif
_audit_creation_date              2012-12-11T15:11:50-0500
_audit_creation_method            fapswitch 2.2
_symmetry_space_group_name_H-M    P1
_symmetry_Int_Tables_number       1
_space_group_crystal_system       triclinic
_cell_length_a                    19.839232
_cell_length_b                    7.20057
_cell_length_c                    14.198268
_cell_angle_alpha                 89.990236
_cell_angle_beta                  102.671232
_cell_angle_gamma                 90.000775
_cell_volume                      1978.87714301

loop_
_atom_site_label
_atom_site_type_symbol
_atom_type_description
_atom_site_fract_x
_atom_site_fract_y
_atom_site_fract_z
_atom_type_partial_charge
O1    O     O_R   0.449830 0.506740 0.599960 -0.535052
O2    O     O_R   0.550170 0.006740 0.400040 -0.535390
O3    O     O_R   0.588980 0.179860 0.596720 -0.540443
O4    O     O_R   0.411020 0.679860 0.403280 -0.542086
C1    C     C_R   0.617025 0.344733 0.615607 0.714757
C2    C     C_R   0.383020 0.844730 0.384335 0.708959
O5    O     O_R   0.452740 0.177340 0.612040 -0.544481
O6    O     O_R   0.547260 0.677340 0.387960 -0.544628
O7    O     O_R   0.412960 0.002070 0.415460 -0.549270
O8    O     O_R   0.587040 0.502070 0.584540 -0.550468
C3    C     C_R   0.437119 0.346170 0.636831 0.711069
C4    C     C_R   0.562904 0.846182 0.363191 0.709603
O9    O     O_3   0.487110 0.337570 0.435490 -0.388980
O10   O     O_3   0.512890 0.837570 0.564510 -0.388079
V1    V     V_3+5 0.502390 0.064650 0.511970 1.473721
V2    V     V_3+5 0.497610 0.564650 0.488030 1.473520
C5    C     C_R   0.597407 0.838437 0.114590 -0.013610
C6    C     C_R   0.403009 0.338967 0.885658 -0.008392
C7    C     C_R   0.598068 0.854846 0.284149 -0.104955
C8    C     C_R   0.402084 0.354862 0.716002 -0.104336
C9    C     C_R   0.927354 0.878021 0.305500 -0.230622
C10   C     C_R   0.072935 0.378075 0.694672 -0.229598
C11   C     C_R   0.892875 0.850361 0.379519 0.216238
C12   C     C_R   0.107481 0.350347 0.620756 0.213961
C13   C     C_R   0.821374 0.814723 0.357653 0.003205
C14   C     C_R   0.178972 0.314649 0.642764 0.004987
C15   C     C_R   0.782390 0.831397 0.260265 -0.077450
C16   C     C_R   0.217901 0.331607 0.740185 -0.077685
C17   C     C_R   0.819327 0.836272 0.184559 0.039348
C18   C     C_R   0.180908 0.336310 0.815817 0.014736
C19   C     C_R   0.708211 0.842364 0.235630 0.068866
C20   C     C_R   0.292070 0.342778 0.764842 0.061115
C21   C     C_R   0.671430 0.822966 0.138111 -0.080566
C22   C     C_R   0.328921 0.323931 0.862393 -0.074831
C23   C     C_R   0.709174 0.785780 0.067229 -0.035767
C24   C     C_R   0.291180 0.287660 0.933464 0.025035
C25   C     C_R   0.781709 0.811193 0.087632 0.183547
C26   C     C_R   0.218506 0.311262 0.912791 0.158281
C27   C     C_R   0.669203 0.878957 0.305182 -0.240540
C28   C     C_R   0.330987 0.379288 0.695176 -0.239949
C29   C     C_R   0.561207 0.837084 0.188920 0.198230
C30   C     C_R   0.439055 0.337060 0.811153 0.205352
C31   C     C_R   0.893052 0.859922 0.209332 -0.072825
C32   C     C_R   0.107142 0.359879 0.790876 -0.075605
H1    H     H_    0.692688 0.925062 0.377102 0.154906
H2    H     H_    0.307435 0.425517 0.623292 0.155137
H3    H     H_    0.982713 0.901363 0.323642 0.144253
H4    H     H_    0.017582 0.401503 0.676410 0.146454
C33   C     C_3   0.230852 0.678234 0.176769 0.176032
C34   C     C_3   0.769126 0.178004 0.823050 0.200538
C35   C     C_3   0.302738 0.684441 0.249301 -0.301045
C36   C     C_3   0.697280 0.185408 0.751134 -0.388604
H5    H     H_    0.347079 0.682126 0.213287 0.169112
H6    H     H_    0.653635 0.186002 0.788981 0.108566
H7    H     H_    0.310549 0.559179 0.293801 0.191407
H8    H     H_    0.688571 0.059408 0.707250 0.208019
C37   C     C_3   0.175543 0.842321 0.308210 -0.078627
C38   C     C_3   0.824629 0.342187 0.691981 -0.109463
C39   C     C_3   0.227097 0.025479 0.186697 -0.370665
C40   C     C_3   0.772998 0.526477 0.812654 -0.377798
C41   C     C_3   0.184029 0.848543 0.198033 -0.038109
C42   C     C_3   0.816036 0.348929 0.802167 0.010016
H9    H     H_    0.199475 0.151896 0.199476 0.241663
H10   H     H_    0.800661 0.652331 0.799161 0.233995
H11   H     H_    0.232096 0.031300 0.110964 0.130275
H12   H     H_    0.767870 0.534945 0.887977 0.183546
C43   C     C_3   0.310628 0.851665 0.318262 -0.018306
C44   C     C_3   0.689458 0.351882 0.681664 0.019630
C45   C     C_3   0.251837 0.845156 0.377115 -0.061748
C46   C     C_3   0.748325 0.345026 0.622958 -0.056074
C47   C     C_3   0.300886 0.023432 0.251071 -0.165664
C48   C     C_3   0.699194 0.523972 0.748483 -0.178667
H13   H     H_    0.338001 0.008181 0.203094 0.118736
H14   H     H_    0.662146 0.508614 0.796527 0.115711
H15   H     H_    0.257640 0.974293 0.420425 0.197540
H16   H     H_    0.742595 0.474165 0.579621 0.195991
O11   O     O_R   0.912980 0.203550 0.915410 -0.536107
O12   O     O_R   0.087020 0.703550 0.084590 -0.554058
O13   O     O_R   0.047270 0.535570 0.887960 -0.555607
O14   O     O_R   0.952730 0.035570 0.112040 -0.538256
C49   C     C_R   0.062977 0.367826 0.861786 0.757541
C50   C     C_R   0.937041 0.867824 0.138212 0.777660
O15   O     O_R   0.911030 0.532970 0.903270 -0.525649
O16   O     O_R   0.088970 0.032970 0.096730 -0.521254
O17   O     O_R   0.949820 0.708150 0.099970 -0.508423
O18   O     O_R   0.050180 0.208150 0.900030 -0.516566
C51   C     C_R   0.885832 0.362806 0.877659 0.827626
C52   C     C_R   0.114238 0.862751 0.122289 0.715486
O19   O     O_3   0.012900 0.375230 0.064480 -0.364871
O20   O     O_3   0.987100 0.875230 0.935520 -0.373620
V3    V     V_3+5 0.997610 0.648190 0.988040 1.572341
V4    V     V_3+5 0.002390 0.148190 0.011960 1.601562
N1    N     N_3   0.486958 0.831781 0.166854 -0.606358
H17   H     H_    0.468574 0.950473 0.195474 0.214292
H18   H     H_    0.471120 0.714931 0.199973 0.222884
N2    N     N_3   0.513300 0.331267 0.832974 -0.626026
H19   H     H_    0.531730 0.449769 0.804227 0.216027
H20   H     H_    0.528961 0.214226 0.799834 0.217259
C53   C     C_2   0.240250 0.692164 0.072495 0.400657
H21   H     H_    0.196375 0.725094 0.014689 0.008612
O21   O     O_2   0.296111 0.671832 0.051004 -0.526548
C54   C     C_2   0.755198 0.183874 0.924977 0.287539
H22   H     H_    0.711561 0.108759 0.940401 0.124110
O22   O     O_2   0.792455 0.267048 0.991548 -0.557229
C55   C     C_2   0.130972 0.679501 0.327762 0.256520
H23   H     H_    0.140087 0.612567 0.397568 0.135290
O23   O     O_2   0.079025 0.633084 0.269222 -0.510455
C56   C     C_2   0.869243 0.179202 0.672754 0.247824
H24   H     H_    0.859502 0.109628 0.603659 0.142884
O24   O     O_2   0.921833 0.135272 0.730710 -0.517245
N3    N     N_3   0.265672 0.696699 0.449712 -0.684616
H25   H     H_    0.255100 0.567166 0.417570 0.302500
H26   H     H_    0.235109 0.716251 0.500290 0.218489
N4    N     N_3   0.734463 0.196601 0.550412 -0.685361
H27   H     H_    0.744498 0.067054 0.582718 0.303315
H28   H     H_    0.765363 0.215323 0.500189 0.219648
C57   C     C_2   0.319098 0.205288 0.302249 0.437904
H29   H     H_    0.361877 0.285408 0.287372 0.092100
O25   O     O_2   0.289620 0.258921 0.363906 -0.550203
C58   C     C_2   0.680707 0.705697 0.697291 0.433224
H30   H     H_    0.638063 0.785716 0.712651 0.091680
O26   O     O_2   0.709746 0.759234 0.635136 -0.549835
C59   C     C_2   0.135589 0.006019 0.337243 0.418551
H31   H     H_    0.128620 0.011297 0.410916 0.066458
O27   O     O_2   0.108263 0.126257 0.281249 -0.502191
C60   C     C_2   0.864660 0.505570 0.662730 0.409583
H32   H     H_    0.871346 0.510876 0.588925 0.073175
O28   O     O_2   0.892448 0.625258 0.718707 -0.506468
C61   C     C_2   0.673800 0.696554 0.975847 0.245926
H33   H     H_    0.656973 0.553229 0.976250 0.117273
O29   O     O_2   0.660175 0.785661 0.901029 -0.588396
C62   C     C_2   0.326923 0.203027 0.025953 0.258792
H34   H     H_    0.345874 0.061536 0.026996 0.118583
O30   O     O_2   0.338807 0.294631 0.100003 -0.550198
C63   C     C_2   0.558010 0.882529 0.015332 0.521497
H35   H     H_    0.579269 0.980027 0.971343 0.087949
O31   O     O_2   0.501857 0.812014 0.982100 -0.512598
C64   C     C_2   0.442796 0.382574 0.984776 0.505857
H36   H     H_    0.422102 0.481060 0.028835 0.136153
O32   O     O_2   0.498671 0.310389 0.017840 -0.523099
C65   C     C_2   0.791173 0.731933 0.434493 0.360058
H37   H     H_    0.753775 0.620158 0.417306 0.041262
O33   O     O_2   0.805457 0.793404 0.516432 -0.510211
C66   C     C_2   0.209207 0.231512 0.566048 0.358617
H38   H     H_    0.246596 0.119738 0.583382 0.040083
O34   O     O_2   0.194968 0.292745 0.484047 -0.509548
N5    N     N_3   0.931656 0.847982 0.477459 -0.602793
H39   H     H_    0.970228 0.747107 0.483496 0.216876
H40   H     H_    0.955706 0.976984 0.492486 0.223259
N6    N     N_3   0.068776 0.347936 0.522775 -0.602334
H41   H     H_    0.030197 0.247074 0.516702 0.217382
H42   H     H_    0.044734 0.476939 0.507672 0.223031
N7    N     N_3   0.817589 0.806254 0.010310 -0.649787
H43   H     H_    0.783454 0.802307 0.944360 0.256664
H44   H     H_    0.839613 0.936396 0.007688 0.229762
N8    N     N_3   0.182390 0.302968 0.989790 -0.662221
H45   H     H_    0.216286 0.300021 0.055887 0.271700
H46   H     H_    0.159577 0.431704 0.992774 0.198679
N9    N     N_3   0.201343 0.494496 0.189106 -0.687826
H47   H     H_    0.151673 0.469991 0.150036 0.277046
H48   H     H_    0.202501 0.462822 0.260852 0.287865
N10   N     N_3   0.798469 0.994473 0.809907 -0.697569
H49   H     H_    0.848218 0.970079 0.848814 0.283367
H50   H     H_    0.796939 0.963163 0.738036 0.287428

loop_
_geom_bond_atom_site_label_1
_geom_bond_atom_site_label_2
_ccdc_geom_bond_type
C38   C42   S    
O15   C51   A    
O11   V4    S    
O4    V2    S    
N1    H17   S    
C34   N10   S    
C48   H14   S    
C37   C55   S    
N3    H25   S    
O1    C3    A    
C26   N8    S    
O2    C4    A    
C2    O7    A    
N4    H27   S    
O17   V3    S    
C59   H31   S    
C46   N4    S    
O5    C3    A    
C8    C30   A    
C55   O23   D    
C60   H32   S    
C31   C50   S    
C30   N2    S    
N8    H45   S    
C23   C25   A    
C12   C14   A    
N10   H49   S    
C6    C30   A    
C8    C28   A    
C59   O27   D    
C15   C17   A    
C40   C48   S    
C56   H24   S    
C18   C26   A    
C40   C42   S    
C37   C41   S    
C6    C64   S    
C9    C31   A    
N8    H46   S    
C10   C32   A    
N5    H39   S    
C58   O26   D    
C62   H34   S    
C33   C35   S    
N2    H20   S    
C5    C63   S    
C34   C36   S    
C19   C21   A    
O19   V3    S    
C23   C61   S    
C43   C47   S    
C49   O18   A    
C36   C44   S    
C44   C48   S    
C27   H1    S    
C63   H35   S    
C40   H12   S    
O6    V2    S    
C17   C31   A    
C18   C32   A    
C5    C21   A    
C1    C44   S    
C14   C66   S    
C14   C16   A    
C36   H6    S    
N10   H50   S    
C29   N1    S    
C3    C8    S    
C39   C41   S    
C38   C56   S    
C33   C41   S    
C47   C57   S    
C15   C19   A    
C25   N7    S    
C16   C20   A    
O14   C50   A    
C32   C49   S    
C33   C53   S    
C47   H13   S    
C12   N6    S    
C38   C46   S    
C11   N5    S    
C43   C45   S    
C65   O33   D    
C20   C22   A    
O14   V4    S    
C28   H2    S    
C41   C52   S    
C37   C59   S    
O20   V4    S    
N9    H47   S    
O6    C4    A    
N2    H19   S    
C48   C58   S    
N9    H48   S    
N6    H42   S    
N3    H26   S    
O1    V2    S    
C35   C43   S    
C61   O29   D    
O19   V4    S    
C54   O22   D    
O2    V1    S    
C6    C22   A    
C7    C27   A    
C66   O34   D    
C2    C43   S    
C53   O21   D    
C10   H4    S    
C34   C54   S    
C9    C11   A    
C46   H16   S    
C34   C42   S    
C10   C12   A    
O4    C2    A    
N7    H44   S    
C24   C26   A    
O3    V1    S    
C58   H30   S    
O13   C49   A    
C61   H33   S    
C42   C51   S    
O12   C52   A    
C63   O31   D    
C60   O28   D    
C24   C62   S    
N5    H40   S    
O10   V1    S    
O13   V3    S    
C13   C65   S    
O16   C52   A    
C66   H38   S    
O3    C1    A    
N4    H28   S    
C38   C60   S    
C64   O32   D    
O12   V3    S    
C13   C15   A    
C50   O17   A    
O15   V3    S    
C55   H23   S    
C39   H9    S    
C53   H21   S    
C40   H10   S    
C57   O25   D    
O7    V1    S    
C16   C18   A    
O8    V2    S    
C57   H29   S    
C39   H11   S    
C45   N3    S    
O20   V3    S    
N1    H18   S    
C4    C7    S    
O5    V1    S    
C21   C23   A    
C22   C24   A    
C56   O24   D    
C45   H15   S    
C35   H7    S    
C20   C28   A    
C54   H22   S    
C5    C29   A    
C64   H36   S    
C35   H5    S    
C7    C29   A    
C1    O8    A    
C11   C13   A    
O11   C51   A    
C62   O30   D    
O9    V2    S    
C17   C25   A    
C19   C27   A    
C44   C46   S    
N6    H41   S    
C33   N9    S    
O18   V4    S    
O16   V4    S    
C37   C45   S    
N7    H43   S    
C65   H37   S    
C36   H8    S    
C39   C47   S    
C9    H3    S    
