data_mof_unit_63862.cif
_audit_creation_date              2013-03-05T16:44:52-0500
_audit_creation_method            fapswitch 2.2
_symmetry_space_group_name_H-M    P1
_symmetry_Int_Tables_number       1
_space_group_crystal_system       triclinic
_cell_length_a                    15.861179
_cell_length_b                    15.911029
_cell_length_c                    17.048259
_cell_angle_alpha                 84.127765
_cell_angle_beta                  89.447968
_cell_angle_gamma                 112.168275
_cell_volume                      3958.04667782

loop_
_atom_site_label
_atom_site_type_symbol
_atom_site_description
_atom_site_fract_x
_atom_site_fract_y
_atom_site_fract_z
_atom_type_partial_charge
O1    O     O_R   0.504130 0.580750 0.382440 -0.532837
O2    O     O_R   0.495870 0.419250 0.617560 -0.532873
O3    O     O_R   0.496670 0.435250 0.388990 -0.561874
O4    O     O_R   0.503330 0.564750 0.611010 -0.561920
C1    C     C_R   0.501677 0.510723 0.348782 0.960799
C2    C     C_R   0.498325 0.489284 0.651228 0.959821
O5    O     O_R   0.635650 0.613550 0.494890 -0.506587
O6    O     O_R   0.364350 0.386450 0.505110 -0.506526
O7    O     O_R   0.628200 0.468050 0.501440 -0.528679
O8    O     O_R   0.371800 0.531950 0.498560 -0.528635
C3    C     C_R   0.674952 0.555307 0.497292 0.993153
C4    C     C_R   0.325045 0.444690 0.502744 0.992847
Cu1   Cu    Cu3+1 0.504410 0.586150 0.496120 1.176686
Cu2   Cu    Cu3+1 0.495590 0.413850 0.503880 1.176653
C5    C     C_R   0.774949 0.588368 0.491654 -0.393141
C6    C     C_R   0.225046 0.411625 0.508440 -0.393537
C7    C     C_R   0.923058 0.707101 0.454990 0.698836
C8    C     C_R   0.076954 0.292873 0.545136 0.698821
C9    C     C_R   0.828565 0.678563 0.461264 0.538940
C10   C     C_R   0.171443 0.321407 0.538780 0.538667
C11   C     C_R   0.816974 0.527164 0.514122 0.687125
C12   C     C_R   0.183007 0.472846 0.486080 0.687512
C13   C     C_R   0.910200 0.550354 0.495165 -0.145593
C14   C     C_R   0.089789 0.449638 0.505096 -0.145836
C15   C     C_R   0.964701 0.643921 0.472987 -0.425390
C16   C     C_R   0.035300 0.356063 0.527246 -0.425380
C17   C     C_R   0.951600 0.484601 0.501482 -0.153715
C18   C     C_R   0.048382 0.515384 0.498831 -0.153764
C19   C     C_R   0.099967 0.610730 0.493162 0.668549
C20   C     C_R   0.900016 0.389251 0.507177 0.668587
C21   C     C_R   0.059465 0.673252 0.474359 0.686442
C22   C     C_R   0.940532 0.326733 0.525940 0.686403
C23   C     C_R   0.504514 0.517328 0.262489 -0.337372
C24   C     C_R   0.495532 0.482776 0.737536 -0.337744
C25   C     C_R   0.432747 0.455739 0.224097 0.167333
C26   C     C_R   0.566860 0.545043 0.775823 0.168123
C27   C     C_R   0.435578 0.463408 0.141651 0.580106
C28   C     C_R   0.563956 0.537729 0.858257 0.579795
C29   C     C_R   0.509870 0.531182 0.096926 0.072871
C30   C     C_R   0.489989 0.469637 0.903097 0.072967
C31   C     C_R   0.580495 0.593640 0.135058 0.155144
C32   C     C_R   0.419784 0.406502 0.865085 0.155189
C33   C     C_R   0.578564 0.586420 0.218084 0.163076
C34   C     C_R   0.421860 0.413329 0.782056 0.161950
N1    N     N_2   0.516141 0.538046 0.013343 -0.050664
N2    N     N_2   0.483715 0.462930 0.986678 -0.051342
N3    N     N_R   0.488960 0.284450 0.509710 -0.350143
N4    N     N_R   0.511040 0.715550 0.490290 -0.350016
C35   C     C_R   0.537724 0.261889 0.453602 0.310924
C36   C     C_R   0.462404 0.738171 0.546464 0.311263
C37   C     C_R   0.532500 0.171032 0.452858 0.075832
C38   C     C_R   0.467646 0.829036 0.547179 0.075895
C39   C     C_R   0.477954 0.101871 0.511544 0.045013
C40   C     C_R   0.522050 0.898134 0.488385 0.045041
C41   C     C_R   0.427952 0.126722 0.567055 0.495156
C42   C     C_R   0.571903 0.873222 0.432788 0.495160
C43   C     C_R   0.434105 0.217701 0.565187 0.674626
C44   C     C_R   0.565740 0.782236 0.434681 0.674520
N5    N     N_2   0.467675 0.007376 0.515264 -0.034115
N6    N     N_2   0.532334 0.992631 0.484645 -0.034073
F1    F     F_    0.113416 0.763582 0.463900 -0.487313
F2    F     F_    0.886583 0.236402 0.536406 -0.487303
N7    N     N_R   0.410923 0.671598 0.609658 0.191859
O9    O     O_R   0.325369 0.623391 0.601579 -0.220801
O10   O     O_R   0.440319 0.679124 0.680631 -0.274761
N8    N     N_R   0.589283 0.328507 0.390466 0.192045
O11   O     O_R   0.674856 0.376599 0.398592 -0.220117
O12   O     O_R   0.559937 0.321073 0.319472 -0.274626
N9    N     N_R   0.422302 0.850551 0.610827 0.219396
O13   O     O_R   0.469748 0.905095 0.660085 -0.200133
O14   O     O_R   0.334451 0.809913 0.623575 -0.149219
N10   N     N_R   0.577994 0.149594 0.389270 0.219361
O15   O     O_R   0.530669 0.095187 0.339869 -0.200074
O16   O     O_R   0.665872 0.190191 0.376711 -0.149250
F3    F     F_    0.372524 0.062296 0.623163 -0.479552
F4    F     F_    0.627177 0.937588 0.376559 -0.479670
F5    F     F_    0.383066 0.238350 0.618268 -0.498498
F6    F     F_    0.616577 0.761514 0.381454 -0.499158
F7    F     F_    0.230863 0.549404 0.436754 -0.554906
F8    F     F_    0.769086 0.450651 0.563486 -0.555234
F9    F     F_    0.209876 0.260000 0.560542 -0.488306
F10   F     F_    0.790135 0.739937 0.439359 -0.488575
F11   F     F_    0.973255 0.796199 0.429818 -0.464966
F12   F     F_    0.026772 0.203760 0.570264 -0.464921
F13   F     F_    0.188368 0.645433 0.512136 -0.522381
F14   F     F_    0.811600 0.354531 0.488253 -0.522328
N11   N     N_R   0.644115 0.613970 0.731769 0.190274
O17   O     O_R   0.686412 0.592570 0.676127 -0.342180
O18   O     O_R   0.678143 0.696203 0.752478 -0.161749
N12   N     N_R   0.355179 0.387156 0.268056 0.189910
O19   O     O_R   0.313366 0.408793 0.323903 -0.342384
O20   O     O_R   0.320389 0.305098 0.247052 -0.161800
F15   F     F_    0.635589 0.594428 0.894752 -0.518753
F16   F     F_    0.363622 0.407392 0.105026 -0.518791
N13   N     N_R   0.657170 0.660872 0.089135 0.218007
O21   O     O_R   0.739661 0.667437 0.103907 -0.184769
O22   O     O_R   0.644614 0.712488 0.029827 -0.172532
N14   N     N_R   0.343401 0.338888 0.911108 0.217970
O23   O     O_R   0.260641 0.330420 0.895444 -0.184371
O24   O     O_R   0.356377 0.288563 0.971176 -0.173261
N15   N     N_R   0.652527 0.648330 0.257068 0.214152
O25   O     O_R   0.694444 0.616834 0.310468 -0.305819
O26   O     O_R   0.682843 0.735785 0.234990 -0.136707
N16   N     N_R   0.348437 0.350605 0.743179 0.214771
O27   O     O_R   0.305843 0.381202 0.689776 -0.303775
O28   O     O_R   0.319264 0.263234 0.765369 -0.136832

loop_
_geom_bond_atom_site_label_1
_geom_bond_atom_site_label_2
_geom_bond_distance
_ccdc_geom_bond_type
C15   C21   1.396816 A    
N8    O12   1.301583 A    
N11   O17   1.300803 A    
N7    O10   1.301585 A    
C16   C22   1.396815 A    
N15   O25   1.300642 A    
C42   F4    1.357107 S    
C21   F1    1.358747 S    
N13   O21   1.301866 A    
C8    C16   1.408120 A    
N16   O28   1.301294 A    
C34   N16   1.436893 S    
C29   C31   1.403987 A    
C40   N6    1.444436 S    
N1    N2    1.245554 D    
O5    C3    1.295281 A    
O1    C1    1.292578 A    
C18   C19   1.418449 A    
C25   C27   1.397157 A    
C14   C16   1.419112 A    
C12   F7    1.359218 S    
C32   N14   1.437406 S    
O4    Cu1   1.952211 S    
C28   F15   1.358977 S    
C36   C38   1.417810 A    
N9    O14   1.300935 A    
C38   N9    1.434789 S    
C23   C25   1.410054 A    
C5    C9    1.403387 A    
C3    C5    1.469229 S    
C4    C6    1.469279 S    
C35   C37   1.417827 A    
C1    C23   1.463152 S    
C8    F12   1.358278 S    
C13   C17   1.426215 A    
C20   F14   1.355169 S    
C9    F10   1.357789 S    
C19   F13   1.355193 S    
C6    C10   1.403396 A    
C29   N1    1.417569 S    
C41   F3    1.357108 S    
N4    C36   1.381157 A    
N8    O11   1.299409 A    
N5    N6    1.255246 D    
N15   O26   1.301366 A    
Cu1   Cu2   2.681182 S    
C17   C20   1.418475 A    
C36   N7    1.430475 S    
C31   C33   1.407433 A    
O2    C2    1.292759 A    
C32   C34   1.407660 A    
N16   O27   1.300630 A    
C38   C40   1.414181 A    
C39   C41   1.407010 A    
C26   N11   1.438017 S    
C39   N5    1.444460 S    
C40   C42   1.407019 A    
C35   N8    1.430492 S    
C23   C33   1.413962 A    
C43   F5    1.352645 S    
C24   C34   1.413989 A    
N10   O16   1.300930 A    
O6    Cu2   1.958592 S    
C2    C24   1.463486 S    
C7    F11   1.358276 S    
C30   N2    1.417683 S    
O7    Cu2   1.947210 S    
C33   N15   1.437082 S    
C20   C22   1.387827 A    
N3    C43   1.364084 A    
N12   O20   1.301218 A    
C5    C11   1.399216 A    
O6    C4    1.295291 A    
O7    C3    1.297833 A    
O3    Cu2   1.952211 S    
O8    C4    1.297840 A    
O4    C2    1.294899 A    
N14   O24   1.301086 A    
C41   C43   1.410641 A    
C12   C14   1.407755 A    
O1    Cu1   1.948684 S    
C37   N10   1.434775 S    
C26   C28   1.397116 A    
C6    C12   1.399230 A    
C14   C18   1.426192 A    
N10   O15   1.301203 A    
O3    C1    1.294910 A    
O8    Cu1   1.947210 S    
Cu1   N4    2.013576 S    
N13   O22   1.301491 A    
N4    C44   1.364164 A    
Cu2   N3    2.013576 S    
N3    C35   1.381164 A    
C7    C15   1.408126 A    
C11   C13   1.407741 A    
C22   F2    1.358750 S    
C27   C29   1.410053 A    
C28   C30   1.410171 A    
N12   O19   1.300783 A    
C31   N13   1.436932 S    
C11   F8    1.359213 S    
C30   C32   1.404263 A    
C7    C9    1.391884 A    
C24   C26   1.410056 A    
C42   C44   1.410654 A    
C27   F16   1.358965 S    
C8    C10   1.391878 A    
C13   C15   1.419126 A    
N9    O13   1.301206 A    
O2    Cu2   1.948684 S    
C44   F6    1.352807 S    
N7    O9    1.299410 A    
C25   N12   1.437996 S    
O5    Cu1   1.958591 S    
C19   C21   1.387824 A    
N14   O23   1.301245 A    
C17   C18   1.423067 A    
N11   O18   1.301210 A    
C37   C39   1.414206 A    
C10   F9    1.357777 S    
