data_mof_unit_43399.cif
_audit_creation_date              2013-03-05T15:40:32-0500
_audit_creation_method            fapswitch 2.2
_symmetry_space_group_name_H-M    P1
_symmetry_Int_Tables_number       1
_space_group_crystal_system       triclinic
_cell_length_a                    12.152271
_cell_length_b                    12.352255
_cell_length_c                    23.498871
_cell_angle_alpha                 89.309192
_cell_angle_beta                  91.764705
_cell_angle_gamma                 89.770746
_cell_volume                      3525.40440215

loop_
_atom_site_label
_atom_site_type_symbol
_atom_site_description
_atom_site_fract_x
_atom_site_fract_y
_atom_site_fract_z
_atom_type_partial_charge
O1    O     O_R   0.621380 0.090460 0.561410 -0.630665
O2    O     O_R   0.378620 0.909540 0.438590 -0.639163
O3    O     O_R   0.617150 0.909540 0.438590 -0.625197
O4    O     O_R   0.382850 0.090460 0.561410 -0.605400
O5    O     O_R   0.619720 0.093230 0.440890 -0.574012
O6    O     O_R   0.380280 0.906770 0.559110 -0.583001
O7    O     O_R   0.618800 0.906770 0.559110 -0.583122
O8    O     O_R   0.381200 0.093230 0.440890 -0.613452
C1    C     C_R   0.659534 0.996519 0.577553 0.944351
C2    C     C_R   0.344764 0.003215 0.420382 0.963560
C3    C     C_R   0.656418 0.001642 0.422587 1.086077
C4    C     C_R   0.344416 0.998708 0.578494 0.980398
Zn1   Zn    Zn3+2 0.501730 0.123520 0.501540 1.001002
Zn2   Zn    Zn3+2 0.498270 0.876480 0.498460 0.993058
C5    C     C_R   0.084542 0.055537 0.339730 -0.303552
C6    C     C_R   0.838608 0.921429 0.703134 -0.128807
C7    C     C_R   0.167994 0.065162 0.380750 0.493287
C8    C     C_R   0.756718 0.914214 0.660807 0.398778
C9    C     C_R   0.890363 0.907245 0.336026 0.305670
C10   C     C_R   0.171105 0.097918 0.698256 0.472559
C11   C     C_R   0.805939 0.906959 0.375352 0.289049
C12   C     C_R   0.231353 0.099394 0.647660 0.243062
C13   C     C_R   0.066150 0.181939 0.210814 -0.044516
C14   C     C_R   0.914945 0.891262 0.832009 -0.182625
C15   C     C_R   0.072261 0.261072 0.167713 -0.122901
C16   C     C_R   0.911877 0.804926 0.871015 -0.120989
C17   C     C_R   0.911224 0.804218 0.205889 0.025020
C18   C     C_R   0.098298 0.108665 0.836994 -0.092727
C19   C     C_R   0.922371 0.720990 0.166309 -0.249435
C20   C     C_R   0.092553 0.180030 0.882669 -0.181376
C21   C     C_R   0.071205 0.896968 0.163595 0.326506
C22   C     C_R   0.917029 0.176848 0.800151 0.409720
C23   C     C_R   0.061272 0.825185 0.117831 0.347765
C24   C     C_R   0.929419 0.264033 0.837677 0.325985
C25   C     C_R   0.912276 0.092510 0.157626 0.449238
C26   C     C_R   0.091267 0.823023 0.797673 0.598917
C27   C     C_R   0.923117 0.173949 0.113702 -0.195742
C28   C     C_R   0.072083 0.726370 0.828738 -0.139083
C29   C     C_R   0.186627 0.916280 0.289897 -0.000905
C30   C     C_R   0.895070 0.097057 0.664940 -0.125631
C31   C     C_R   0.276902 0.936425 0.327529 -0.198609
C32   C     C_R   0.830882 0.075815 0.615854 -0.183826
C33   C     C_R   0.812569 0.075885 0.293882 0.377654
C34   C     C_R   0.114300 0.912847 0.672353 0.367140
C35   C     C_R   0.755404 0.088652 0.344257 0.254152
C36   C     C_R   0.205457 0.906074 0.636986 0.291282
C37   C     C_3   0.988872 0.990102 0.249005 0.056757
C38   C     C_3   0.007419 0.007166 0.752084 0.018016
C39   C     C_R   0.091833 0.987236 0.291326 0.046740
C40   C     C_R   0.907672 0.012849 0.708482 0.079386
C41   C     C_R   0.263925 0.005811 0.374005 -0.218194
C42   C     C_R   0.752204 0.993296 0.617905 -0.187196
C43   C     C_R   0.889528 0.987636 0.290281 -0.142464
C44   C     C_R   0.104793 0.004524 0.709684 -0.123535
C45   C     C_R   0.741399 0.999981 0.380483 -0.329678
C46   C     C_R   0.259354 0.001033 0.621724 -0.381019
C47   C     C_R   0.986973 0.094352 0.207392 0.102981
C48   C     C_R   0.004566 0.903864 0.793365 -0.077818
C49   C     C_R   0.999496 0.258963 0.120960 -0.211095
C50   C     C_R   0.994239 0.725612 0.871417 -0.284711
C51   C     C_R   0.990439 0.892045 0.207423 -0.005193
C52   C     C_R   0.009336 0.103278 0.794864 -0.045231
C53   C     C_R   0.992010 0.736163 0.121072 -0.254361
C54   C     C_R   0.009850 0.258743 0.881452 -0.205613
H1    H     H_    0.011587 0.103241 0.345709 0.128768
H2    H     H_    0.850937 0.850345 0.729497 0.166830
O9    O     O_R   0.087590 0.627480 0.058790 -0.577881
O10   O     O_R   0.912410 0.372520 0.941210 -0.577695
O11   O     O_R   0.905660 0.383870 0.059980 -0.599429
O12   O     O_R   0.094340 0.616130 0.940020 -0.581194
O13   O     O_R   0.092570 0.390420 0.063230 -0.609559
O14   O     O_R   0.907430 0.609580 0.936770 -0.627915
O15   O     O_R   0.900680 0.620930 0.055550 -0.623846
O16   O     O_R   0.099320 0.379070 0.944450 -0.616318
C55   C     C_R   0.992988 0.658826 0.075583 0.994040
C56   C     C_R   0.007328 0.339837 0.925077 0.984138
C57   C     C_R   0.999982 0.349135 0.079445 0.962135
C58   C     C_R   0.999315 0.643921 0.917101 0.901759
Zn3   Zn    Zn3+2 0.125690 0.504390 0.002180 1.075748
Zn4   Zn    Zn3+2 0.874310 0.495610 0.997820 1.060033
O17   O     O_3   0.150031 0.115148 0.432504 -0.649283
C59   C     C_3   0.121345 0.226000 0.425865 0.087823
H3    H     H_    0.079621 0.250809 0.464906 0.137951
H4    H     H_    0.060304 0.243576 0.391117 0.165683
C60   C     C_3   0.223304 0.296453 0.419400 -0.738545
H5    H     H_    0.267523 0.274296 0.380651 0.266399
H6    H     H_    0.198342 0.382902 0.415885 0.216081
H7    H     H_    0.280225 0.286115 0.456872 0.241776
O18   O     O_3   0.702090 0.817318 0.652151 -0.606738
C61   C     C_3   0.631198 0.794259 0.696967 0.109328
H8    H     H_    0.561291 0.852762 0.695773 0.144848
H9    H     H_    0.673978 0.796269 0.739444 0.187939
C62   C     C_3   0.586777 0.680347 0.688574 -0.832631
H10   H     H_    0.655825 0.621113 0.690414 0.259786
H11   H     H_    0.528353 0.658968 0.722185 0.203601
H12   H     H_    0.543863 0.674929 0.646347 0.266723
O19   O     O_3   0.966644 0.822529 0.337853 -0.570564
C63   C     C_3   0.026534 0.815317 0.391032 0.241146
H13   H     H_    0.995767 0.867704 0.425403 0.152579
H14   H     H_    0.111851 0.841111 0.384764 0.139481
C64   C     C_3   0.034624 0.698142 0.411992 -0.773119
H15   H     H_    0.055402 0.643883 0.376525 0.292112
H16   H     H_    0.100215 0.690815 0.445824 0.201241
H17   H     H_    0.956645 0.671497 0.430573 0.239076
O20   O     O_3   0.162405 0.189148 0.732868 -0.586246
C65   C     C_3   0.251562 0.262873 0.732328 0.231764
H18   H     H_    0.238162 0.322772 0.697326 0.185201
H19   H     H_    0.332582 0.221516 0.728594 0.173889
C66   C     C_3   0.253938 0.328048 0.786932 -0.827804
H20   H     H_    0.284081 0.277855 0.823519 0.305169
H21   H     H_    0.310168 0.398122 0.782566 0.216049
H22   H     H_    0.170039 0.358248 0.795637 0.260045
C67   C     C_2   0.143381 0.202829 0.258836 0.910284
O21   O     O_2   0.120474 0.272581 0.292981 -0.657773
O22   O     O_R   0.248451 0.156524 0.259868 -0.777948
H23   H     H_    0.297727 0.184771 0.291856 0.344609
C68   C     C_2   0.823701 0.968960 0.837632 0.977745
O23   O     O_2   0.739675 0.958941 0.808450 -0.646145
O24   O     O_R   0.825227 0.037203 0.884756 -0.789284
H24   H     H_    0.751592 0.073311 0.890689 0.337267
C69   C     C_2   0.810432 0.796118 0.239766 0.979124
O25   O     O_2   0.796095 0.715866 0.269418 -0.644093
O26   O     O_R   0.727318 0.873800 0.233842 -0.810987
H25   H     H_    0.658274 0.851383 0.253653 0.327593
C70   C     C_2   0.199218 0.041029 0.836383 1.050487
O27   O     O_2   0.211357 0.966833 0.870716 -0.687605
O28   O     O_R   0.288881 0.076471 0.805822 -0.794460
H26   H     H_    0.362164 0.054445 0.823885 0.341162
O29   O     O_3   0.150906 0.979486 0.166144 -0.645673
C71   C     C_3   0.248018 0.961869 0.135470 0.189865
H27   H     H_    0.236817 0.995001 0.091558 0.182559
H28   H     H_    0.272395 0.875183 0.134083 0.214439
C72   C     C_3   0.343563 0.023044 0.163030 -0.729527
H29   H     H_    0.356742 0.996363 0.207957 0.292458
H30   H     H_    0.419969 0.006937 0.139743 0.183428
H31   H     H_    0.326625 0.111351 0.161193 0.300469
O30   O     O_3   0.816597 0.154367 0.771135 -0.632727
C73   C     C_3   0.721682 0.214955 0.784561 0.260817
H32   H     H_    0.727073 0.298308 0.766928 0.210713
H33   H     H_    0.708629 0.216113 0.831109 0.155266
C74   C     C_3   0.620115 0.165930 0.755275 -0.821303
H34   H     H_    0.597456 0.088377 0.775831 0.275817
H35   H     H_    0.549176 0.222311 0.758390 0.197556
H36   H     H_    0.635400 0.152007 0.709561 0.275677
O31   O     O_3   0.830783 0.010737 0.157733 -0.619653
C75   C     C_3   0.768874 0.993228 0.106692 0.041605
H37   H     H_    0.824119 0.975443 0.071320 0.168627
H38   H     H_    0.711971 0.062014 0.098373 0.190612
C76   C     C_3   0.693057 0.896112 0.111113 -0.698115
H39   H     H_    0.628945 0.910702 0.142773 0.266054
H40   H     H_    0.650405 0.883355 0.069256 0.211377
H41   H     H_    0.740525 0.822015 0.121942 0.278303
O32   O     O_3   0.193576 0.842517 0.772993 -0.637602
C77   C     C_3   0.284893 0.784532 0.798113 0.141591
H42   H     H_    0.293869 0.705742 0.776631 0.142001
H43   H     H_    0.277127 0.770638 0.844750 0.186571
C78   C     C_3   0.392456 0.844528 0.789368 -0.841962
H44   H     H_    0.416802 0.888775 0.828418 0.259679
H45   H     H_    0.459680 0.785707 0.782752 0.211001
H46   H     H_    0.385852 0.900481 0.752038 0.261591
C79   C     C_2   0.188981 0.810087 0.260285 0.935525
O33   O     O_2   0.262582 0.789665 0.227758 -0.629730
O34   O     O_R   0.112422 0.730036 0.272872 -0.759098
H47   H     H_    0.124027 0.661087 0.250840 0.365791
C80   C     C_2   0.915008 0.214966 0.673706 1.038486
O35   O     O_2   0.835350 0.274876 0.677865 -0.613017
O36   O     O_R   0.017437 0.261383 0.667415 -0.812835
H48   H     H_    0.016274 0.342981 0.671601 0.328888
O37   O     O_3   0.805824 0.159551 0.254036 -0.611908
C81   C     C_3   0.696807 0.169591 0.230750 0.178513
H49   H     H_    0.632286 0.170913 0.263135 0.192774
H50   H     H_    0.677060 0.101161 0.202222 0.196140
C82   C     C_3   0.686319 0.275131 0.197034 -0.769302
H51   H     H_    0.748279 0.278384 0.163479 0.273959
H52   H     H_    0.602840 0.281616 0.176665 0.233989
H53   H     H_    0.699294 0.344678 0.225965 0.263434
O38   O     O_3   0.046432 0.823022 0.678518 -0.598453
C83   C     C_3   0.995190 0.792163 0.625992 0.115333
H54   H     H_    0.052593 0.775772 0.591663 0.192865
H55   H     H_    0.938803 0.856497 0.609410 0.144371
C84   C     C_3   0.931929 0.687456 0.634992 -0.717217
H56   H     H_    0.877156 0.694106 0.671633 0.270452
H57   H     H_    0.881447 0.668923 0.596153 0.217885
H58   H     H_    0.990642 0.619680 0.643689 0.253095
O39   O     O_3   0.800090 0.824826 0.416143 -0.594642
C85   C     C_3   0.745615 0.733700 0.393024 0.213450
H59   H     H_    0.804507 0.683892 0.369527 0.217846
H60   H     H_    0.674172 0.756502 0.364358 0.155881
C86   C     C_3   0.703326 0.663205 0.441239 -0.825969
H61   H     H_    0.643302 0.708654 0.466486 0.277117
H62   H     H_    0.661812 0.590730 0.423343 0.210325
H63   H     H_    0.772772 0.636321 0.469886 0.239308
O40   O     O_3   0.263591 0.197376 0.624340 -0.605865
C87   C     C_3   0.190802 0.227299 0.578485 0.194372
H64   H     H_    0.104442 0.201183 0.584341 0.175549
H65   H     H_    0.217365 0.189683 0.538683 0.186829
C88   C     C_3   0.193204 0.349882 0.570443 -0.851270
H66   H     H_    0.277775 0.376400 0.560533 0.249737
H67   H     H_    0.136069 0.375209 0.535008 0.211598
H68   H     H_    0.167397 0.390799 0.609599 0.254634
C89   C     C_2   0.157488 0.348243 0.171786 1.001027
O41   O     O_2   0.254833 0.325133 0.167662 -0.615098
O42   O     O_R   0.125788 0.455551 0.180149 -0.751256
H69   H     H_    0.190697 0.506845 0.181646 0.348928
C90   C     C_2   0.815958 0.795068 0.908997 1.009345
O43   O     O_2   0.825150 0.820131 0.959031 -0.649001
O44   O     O_R   0.715209 0.758412 0.886518 -0.805903
H70   H     H_    0.656122 0.755485 0.916026 0.339761
C91   C     C_2   0.855924 0.619641 0.169548 1.031615
O45   O     O_2   0.756288 0.622513 0.160484 -0.616215
O46   O     O_R   0.908696 0.521171 0.181756 -0.747473
H71   H     H_    0.855860 0.457942 0.182063 0.341767
C92   C     C_2   0.173404 0.172826 0.932110 0.962776
O47   O     O_2   0.140109 0.167894 0.980674 -0.622577
O48   O     O_R   0.286638 0.174017 0.923229 -0.813793
H72   H     H_    0.332026 0.168859 0.960094 0.342863
O49   O     O_3   0.116897 0.842325 0.068241 -0.642971
C93   C     C_3   0.052677 0.912201 0.032950 0.030150
H73   H     H_    0.051288 0.994956 0.050993 0.205252
H74   H     H_    0.967116 0.882252 0.027285 0.192738
C94   C     C_3   0.103104 0.917544 0.975109 -0.593881
H75   H     H_    0.110882 0.835083 0.957672 0.250271
H76   H     H_    0.050046 0.967452 0.945698 0.247723
H77   H     H_    0.186511 0.953426 0.979220 0.259967
O50   O     O_3   0.858580 0.352130 0.834457 -0.642046
C95   C     C_3   0.907190 0.434444 0.801822 0.075219
H78   H     H_    0.930211 0.404824 0.759241 0.168587
H79   H     H_    0.981347 0.464970 0.824767 0.157661
C96   C     C_3   0.826121 0.527832 0.793152 -0.761171
H80   H     H_    0.800402 0.558383 0.834945 0.282971
H81   H     H_    0.865316 0.594867 0.769380 0.224523
H82   H     H_    0.752192 0.500430 0.768515 0.238759
C97   C     C_2   0.862333 0.172367 0.057573 0.873093
O51   O     O_2   0.905705 0.132844 0.016376 -0.615931
O52   O     O_R   0.759613 0.223459 0.051015 -0.801541
H83   H     H_    0.728330 0.219283 0.010605 0.347851
C98   C     C_2   0.118494 0.622870 0.808531 0.802255
O53   O     O_2   0.169412 0.561568 0.841042 -0.642695
O54   O     O_R   0.106012 0.597733 0.750861 -0.823779
H84   H     H_    0.142552 0.526851 0.740984 0.320329
C99   C     C_2   0.385378 0.882201 0.321307 0.977972
O55   O     O_2   0.393457 0.783483 0.323244 -0.590939
O56   O     O_R   0.479465 0.946187 0.318196 -0.830503
H85   H     H_    0.549302 0.901640 0.321480 0.312946
C100  C     C_2   0.850618 0.134486 0.560753 0.926921
O57   O     O_2   0.844115 0.084676 0.516104 -0.665374
O58   O     O_R   0.878401 0.244221 0.559361 -0.791337
H86   H     H_    0.890484 0.272484 0.519362 0.318694
O59   O     O_3   0.708477 0.187752 0.356425 -0.569154
C101  C     C_3   0.792012 0.256148 0.378451 0.153308
H87   H     H_    0.853202 0.275277 0.345517 0.173272
H88   H     H_    0.835337 0.218191 0.416196 0.143841
C102  C     C_3   0.740644 0.361871 0.397060 -0.797459
H89   H     H_    0.680237 0.345808 0.430635 0.259995
H90   H     H_    0.805758 0.416231 0.414387 0.197719
H91   H     H_    0.698128 0.402703 0.360138 0.266331
O60   O     O_3   0.231609 0.810226 0.610315 -0.597076
C103  C     C_3   0.280240 0.736792 0.649984 0.180730
H92   H     H_    0.222091 0.715043 0.683557 0.231943
H93   H     H_    0.356833 0.771222 0.669440 0.140342
C104  C     C_3   0.309144 0.633059 0.619537 -0.872486
H94   H     H_    0.368012 0.650564 0.585427 0.263706
H95   H     H_    0.347190 0.574034 0.650351 0.208594
H96   H     H_    0.233452 0.596877 0.600248 0.259957

loop_
_geom_bond_atom_site_label_1
_geom_bond_atom_site_label_2
_geom_bond_distance
_ccdc_geom_bond_type
O10   Zn4   2.092081 S    
C87   H65   1.105802 S    
O42   H69   1.013767 S    
C19   C53   1.390376 A    
C32   C100  1.502377 S    
C80   O35   1.223153 D    
C27   C97   1.492108 S    
C20   C54   1.394979 A    
C17   C19   1.403572 A    
C68   O23   1.219890 D    
O15   C55   1.294627 A    
C89   O41   1.222817 D    
C21   C51   1.445335 A    
C75   C76   1.520019 S    
O11   C57   1.290807 A    
O34   H47   1.013628 S    
O13   C57   1.302891 A    
C49   C57   1.471923 S    
O13   Zn3   2.047765 S    
C83   H54   1.102646 S    
C17   C69   1.484293 S    
O9    C55   1.286599 A    
C8    C42   1.394992 A    
O26   H25   1.010044 S    
C29   C31   1.412511 A    
C90   O43   1.221325 D    
C88   H68   1.108222 S    
C38   C44   1.570705 S    
C50   C58   1.464181 S    
C14   C68   1.473638 S    
C62   H10   1.110579 S    
O16   C56   1.292331 A    
C61   C62   1.521953 S    
C9    C11   1.401751 A    
C36   O60   1.386600 S    
C6    C40   1.414176 A    
C67   O21   1.221537 D    
C94   H77   1.109835 S    
C15   C89   1.498853 S    
C76   H40   1.110831 S    
C60   H5    1.108030 S    
C102  H89   1.110764 S    
C65   H19   1.113750 S    
C83   H55   1.106613 S    
C60   H7    1.108701 S    
C87   C88   1.524169 S    
O12   C58   1.302089 A    
C65   H18   1.107516 S    
C5    C7    1.383935 A    
C101  H88   1.114874 S    
O22   H23   1.012732 S    
C5    H1    1.076314 S    
C98   O54   1.397770 S    
O19   C63   1.428278 S    
C88   H67   1.108896 S    
C99   O55   1.223139 D    
C25   O31   1.417439 S    
C72   H30   1.110683 S    
O4    Zn1   2.085464 S    
C86   H62   1.110139 S    
C95   C96   1.521715 S    
C62   H11   1.108442 S    
C65   C66   1.522558 S    
O14   C58   1.292762 A    
C17   C51   1.453294 A    
C66   H21   1.110663 S    
C35   O59   1.385034 S    
C61   H9    1.111748 S    
C33   C43   1.438406 A    
O7    Zn2   2.050674 S    
O54   H84   1.012804 S    
C72   H31   1.109306 S    
O52   H83   1.013902 S    
C21   C23   1.404675 A    
C12   O40   1.385505 S    
C29   C79   1.492840 S    
C97   O51   1.222335 D    
C77   H43   1.114170 S    
C37   C43   1.571893 S    
C95   H79   1.105757 S    
C9    C43   1.454390 A    
C101  C102  1.519989 S    
C38   C40   1.563684 S    
C87   H64   1.111273 S    
C14   C48   1.447019 A    
C64   H16   1.110949 S    
C94   H76   1.110187 S    
C100  O57   1.223318 D    
C78   H44   1.106784 S    
C89   O42   1.396717 S    
C7    C41   1.388880 A    
C86   H61   1.109335 S    
C1    C42   1.449788 S    
O59   C101  1.413239 S    
C2    C41   1.444560 S    
C37   C39   1.574152 S    
C79   O34   1.395718 S    
C34   C36   1.408010 A    
C26   O32   1.408369 S    
O31   C75   1.415388 S    
C75   H38   1.105116 S    
C82   H52   1.110481 S    
C9    O19   1.394588 S    
C84   H57   1.110588 S    
C91   O45   1.223221 D    
C69   O25   1.220953 D    
C75   H37   1.107912 S    
C26   C48   1.449163 A    
O44   H70   1.013885 S    
C64   H15   1.110239 S    
C24   O50   1.384739 S    
O9    Zn3   2.092080 S    
C77   C78   1.523366 S    
C10   C44   1.437240 A    
C66   H22   1.110025 S    
O18   C61   1.408190 S    
O36   H48   1.013977 S    
C104  H95   1.110670 S    
C102  H90   1.110760 S    
C12   C46   1.410942 A    
C101  H87   1.113625 S    
C82   H51   1.107408 S    
C74   H34   1.107245 S    
C59   H3    1.107621 S    
O17   C59   1.417191 S    
O14   Zn4   2.047764 S    
C31   C99   1.488246 S    
C99   O56   1.395820 S    
C74   H35   1.110788 S    
C22   C24   1.405731 A    
C84   H56   1.108027 S    
C86   H63   1.110416 S    
C71   H28   1.110975 S    
O48   H72   1.013756 S    
C96   H80   1.109718 S    
O6    Zn2   2.088431 S    
C94   H75   1.107253 S    
C33   C35   1.401074 A    
C38   C52   1.564651 S    
O46   H71   1.013153 S    
C92   O47   1.223392 D    
C23   C53   1.390238 A    
C33   O37   1.386633 S    
C93   H73   1.111622 S    
C24   C54   1.397751 A    
O50   C95   1.408825 S    
C54   C56   1.442806 S    
O1    C1    1.295999 A    
C103  C104  1.520229 S    
C95   H78   1.112932 S    
O37   C81   1.422078 S    
C4    C46   1.471889 S    
C38   C48   1.594678 S    
C97   O52   1.399915 S    
C77   H42   1.108286 S    
C27   C49   1.412703 A    
O3    Zn2   2.085465 S    
C73   H33   1.110333 S    
O38   C83   1.422133 S    
C13   C47   1.452045 A    
C6    C8    1.389042 A    
C29   C39   1.446160 A    
C10   C12   1.415323 A    
O40   C87   1.417460 S    
C62   H12   1.109543 S    
C59   H4    1.105098 S    
O16   Zn3   2.089767 S    
C100  O58   1.398440 S    
O5    C3    1.297410 A    
C70   O27   1.219178 D    
C96   H81   1.110385 S    
C28   C50   1.399674 A    
C76   H41   1.102866 S    
C71   C72   1.520228 S    
O4    C4    1.291740 A    
C85   H60   1.115489 S    
O28   H26   1.009598 S    
O2    C2    1.290202 A    
C103  H93   1.112611 S    
O60   C103  1.407970 S    
C3    C45   1.452260 S    
C18   C70   1.481697 S    
C53   C55   1.442451 S    
C93   C94   1.508895 S    
C11   C45   1.397116 A    
C10   O20   1.403226 S    
O30   C73   1.418192 S    
C82   H53   1.110677 S    
O7    C1    1.290206 A    
C84   H58   1.110771 S    
C25   C27   1.441894 A    
O12   Zn3   2.024038 S    
C8    O18   1.385101 S    
O5    Zn1   2.088431 S    
C30   C80   1.493088 S    
O8    C2    1.291629 A    
C14   C16   1.399189 A    
C30   C32   1.400472 A    
C73   C74   1.525599 S    
C34   O38   1.393946 S    
C37   C51   1.565795 S    
C104  H96   1.110755 S    
C78   H45   1.106902 S    
O24   H24   1.012454 S    
C60   H6    1.110343 S    
C19   C91   1.494868 S    
C74   H36   1.111081 S    
C23   O49   1.379637 S    
C78   H46   1.110958 S    
O10   C56   1.290000 A    
C59   C60   1.527311 S    
O20   C65   1.418389 S    
O39   C85   1.413837 S    
C63   C64   1.525076 S    
C93   H74   1.109698 S    
C25   C47   1.458606 A    
C102  H91   1.110792 S    
C68   O24   1.399492 S    
C103  H92   1.106639 S    
O29   C71   1.419053 S    
C92   O48   1.398238 S    
C22   C52   1.450075 A    
C18   C20   1.400321 A    
C21   O29   1.409403 S    
C79   O33   1.221795 D    
C76   H39   1.109407 S    
C28   C98   1.484375 S    
O6    C4    1.306848 A    
C11   O39   1.390830 S    
C61   H8    1.112576 S    
C72   H29   1.108873 S    
C67   O22   1.396418 S    
C81   H50   1.107639 S    
C85   C86   1.523702 S    
C30   C40   1.454554 A    
O49   C93   1.406875 S    
C26   C28   1.415729 A    
C91   O46   1.395353 S    
O15   Zn4   2.089766 S    
C71   H27   1.109733 S    
C7    O17   1.393301 S    
C5    C39   1.429047 A    
C88   H66   1.110557 S    
O2    Zn2   2.028704 S    
C63   H14   1.099576 S    
C98   O53   1.221928 D    
C69   O26   1.393065 S    
C83   C84   1.523124 S    
O3    C3    1.291702 A    
C73   H32   1.108154 S    
C96   H82   1.109949 S    
C16   C90   1.494231 S    
O8    Zn1   2.050672 S    
C34   C44   1.447209 A    
O1    Zn1   2.028706 S    
C22   O30   1.409827 S    
C13   C15   1.402889 A    
C6    H2    1.075784 S    
C35   C45   1.393264 A    
C80   O36   1.383836 S    
C63   H13   1.113619 S    
C81   H49   1.109549 S    
C36   C46   1.394234 A    
C37   C47   1.607158 S    
C70   O28   1.392502 S    
C20   C92   1.499865 S    
C104  H94   1.110581 S    
O11   Zn4   2.024038 S    
C64   H17   1.105208 S    
C15   C49   1.389487 A    
C13   C67   1.471246 S    
C85   H59   1.106612 S    
C66   H20   1.106208 S    
C90   O44   1.397645 S    
C16   C50   1.397506 A    
C31   C41   1.408641 A    
O56   H85   1.010037 S    
O58   H86   1.013860 S    
C32   C42   1.401758 A    
O32   C77   1.426883 S    
C81   C82   1.520198 S    
C18   C52   1.445520 A    
