data_mof_unit_20843.cif
_audit_creation_date              2012-12-10T18:44:22-0500
_audit_creation_method            fapswitch 2.2
_symmetry_space_group_name_H-M    P1
_symmetry_Int_Tables_number       1
_space_group_crystal_system       triclinic
_cell_length_a                    12.867565
_cell_length_b                    10.632155
_cell_length_c                    9.849893
_cell_angle_alpha                 89.979594
_cell_angle_beta                  97.860849
_cell_angle_gamma                 90.12458
_cell_volume                      1334.8973164

loop_
_atom_site_label
_atom_site_type_symbol
_atom_type_description
_atom_site_fract_x
_atom_site_fract_y
_atom_site_fract_z
_atom_type_partial_charge
C1    C     C_R   0.502588 0.260214 0.500508 0.910131
C2    C     C_R   0.497411 0.739786 0.499492 0.910136
C3    C     C_R   0.496746 0.872097 0.499301 -0.101849
C4    C     C_R   0.503254 0.127902 0.500699 -0.101843
C5    C     C_R   0.519359 0.608030 0.075212 -0.071859
C6    C     C_R   0.480638 0.391971 0.924787 -0.071896
C7    C     C_R   0.519145 0.608049 0.931531 -0.074482
C8    C     C_R   0.480850 0.391952 0.068469 -0.074424
C9    C     C_R   0.297875 0.499676 0.472105 0.931223
C10   C     C_R   0.702125 0.500325 0.527894 0.931238
C11   C     C_R   0.814911 0.502431 0.546724 -0.139162
C12   C     C_R   0.185087 0.497591 0.453267 -0.139142
C13   C     C_R   0.018427 0.435043 0.329683 -0.319920
C14   C     C_R   0.981566 0.565031 0.670288 -0.319905
C15   C     C_R   0.126687 0.449740 0.332664 0.489351
C16   C     C_R   0.873308 0.550312 0.667310 0.489293
C17   C     C_R   0.136145 0.539570 0.562642 -0.308044
C18   C     C_R   0.863854 0.460471 0.437345 -0.308034
C19   C     C_R   0.029499 0.526748 0.558357 0.131427
C20   C     C_R   0.970497 0.473312 0.441623 0.131457
C21   C     C_R   0.429914 0.066799 0.405683 -0.233787
C22   C     C_R   0.570086 0.933200 0.594317 -0.233780
C23   C     C_R   0.425695 0.937719 0.404595 0.154031
C24   C     C_R   0.574305 0.062280 0.595405 0.154033
H1    H     H_    0.818382 0.419959 0.346880 0.181530
H2    H     H_    0.181619 0.580079 0.653109 0.181533
H3    H     H_    0.972073 0.391839 0.241871 0.139874
H4    H     H_    0.027914 0.608259 0.758091 0.139932
H5    H     H_    0.374729 0.119680 0.334578 0.183376
H6    H     H_    0.625271 0.880320 0.665422 0.183386
H7    H     H_    0.535329 0.694557 0.131863 0.158841
H8    H     H_    0.464667 0.305444 0.868137 0.158844
H9    H     H_    0.535183 0.694538 0.880488 0.153599
H10   H     H_    0.464810 0.305461 0.119512 0.153579
N1    N     N_R   0.499970 0.499970 0.857200 -0.081204
N2    N     N_R   0.500030 0.500030 0.142800 -0.081188
O1    O     O_R   0.499990 0.316750 0.614620 -0.612258
O2    O     O_R   0.500010 0.683250 0.385380 -0.612258
O3    O     O_R   0.499990 0.316780 0.385290 -0.629958
O4    O     O_R   0.500010 0.683220 0.614710 -0.629952
O5    O     O_R   0.346360 0.499970 0.595710 -0.633612
O6    O     O_R   0.653640 0.500030 0.404290 -0.633617
O7    O     O_R   0.346360 0.499990 0.366380 -0.554794
O8    O     O_R   0.653640 0.500010 0.633620 -0.554815
Zn1   Zn    Zn3+2 0.500000 0.499980 0.653120 0.984286
Zn2   Zn    Zn3+2 0.500000 0.500020 0.346880 0.984302
O9    O     O_3   0.821954 0.593797 0.773402 -0.591777
C25   C     C_3   0.869495 0.546963 0.901399 0.094659
H11   H     H_    0.935849 0.608926 0.943255 0.137867
H12   H     H_    0.898034 0.448449 0.894204 0.135379
C26   C     C_3   0.789535 0.547388 0.001617 -0.760311
H13   H     H_    0.724519 0.481451 0.965859 0.267282
H14   H     H_    0.827313 0.516908 0.104338 0.191220
H15   H     H_    0.757467 0.643534 0.010026 0.253947
O10   O     O_3   0.178043 0.406242 0.226577 -0.591773
C27   C     C_3   0.130462 0.452985 0.098552 0.094648
H16   H     H_    0.101846 0.551472 0.105699 0.135331
H17   H     H_    0.064155 0.390933 0.056728 0.137915
C28   C     C_3   0.210419 0.452608 0.998328 -0.760347
H18   H     H_    0.242572 0.356495 0.989981 0.253947
H19   H     H_    0.172613 0.482993 0.895589 0.191240
H20   H     H_    0.275378 0.518632 0.034040 0.267273
I1    I     I_    0.306391 0.850151 0.264863 -0.385043
I2    I     I_    0.693609 0.149849 0.735135 -0.385078

loop_
_geom_bond_atom_site_label_1
_geom_bond_atom_site_label_2
_ccdc_geom_bond_type
C12   C17   A    
C5    H7    S    
C6    H8    S    
O10   C27   S    
C27   C28   S    
C11   C18   A    
N2    Zn2   S    
C14   C16   A    
C10   O6    A    
O1    Zn1   S    
C11   C16   A    
C2    O2    A    
C9    O5    A    
C19   C20   A    
C12   C15   A    
C1    O1    A    
C1    C4    S    
C26   H15   S    
C25   H12   S    
C2    C3    S    
C28   H18   S    
C24   I2    S    
C8    H10   S    
C6    N1    A    
C4    C21   A    
C7    H9    S    
C18   H1    S    
C7    N1    A    
O3    Zn2   S    
C17   H2    S    
C16   O9    S    
C23   I1    S    
C25   H11   S    
C17   C19   A    
C27   H17   S    
C18   C20   A    
C10   C11   S    
C13   C15   A    
C21   C23   A    
C8    N2    A    
O4    Zn1   S    
C4    C24   A    
O7    Zn2   S    
C22   C24   A    
C9    O7    A    
O2    Zn2   S    
C9    C12   S    
C1    O3    A    
C10   O8    A    
C26   H13   S    
N1    Zn1   S    
C5    N2    A    
C2    O4    A    
C27   H16   S    
O6    Zn2   S    
C28   H19   S    
C5    C7    A    
O5    Zn1   S    
C13   H3    S    
C28   H20   S    
C6    C8    A    
C22   H6    S    
C13   C20   A    
C14   H4    S    
C3    C23   A    
C21   H5    S    
C14   C19   A    
C25   C26   S    
C3    C22   A    
O8    Zn1   S    
O9    C25   S    
C26   H14   S    
C15   O10   S    
