data_mof_unit_38106.cif
_audit_creation_date              2012-12-10T17:46:27-0500
_audit_creation_method            fapswitch 2.2
_symmetry_space_group_name_H-M    P1
_symmetry_Int_Tables_number       1
_space_group_crystal_system       triclinic
_cell_length_a                    20.720172
_cell_length_b                    21.412738
_cell_length_c                    14.809691
_cell_angle_alpha                 90.000278
_cell_angle_beta                  128.685654
_cell_angle_gamma                 89.999947
_cell_volume                      5129.001595

loop_
_atom_site_label
_atom_site_type_symbol
_atom_type_description
_atom_site_fract_x
_atom_site_fract_y
_atom_site_fract_z
_atom_type_partial_charge
C1    C     C_R   0.603154 0.914007 0.631721 0.808479
C2    C     C_R   0.666723 0.227925 0.069608 -0.232204
C3    C     C_R   0.720903 0.773459 0.963209 0.021617
C4    C     C_R   0.214267 0.731939 0.954408 0.021187
C5    C     C_R   0.779094 0.273462 0.036787 0.021619
C6    C     C_R   0.785734 0.731941 0.045595 0.021188
C7    C     C_R   0.220902 0.273460 0.963210 0.021618
C8    C     C_R   0.339157 0.790803 0.022836 -0.061482
C9    C     C_R   0.653624 0.214953 0.967253 -0.060039
C10   C     C_R   0.660837 0.790797 0.977157 -0.061482
C11   C     C_R   0.346374 0.214953 0.032746 -0.060040
C12   C     C_R   0.839156 0.290804 0.022834 -0.061484
C13   C     C_R   0.675123 0.778599 0.080608 -0.225121
C14   C     C_R   0.153626 0.714950 0.967257 -0.060039
C15   C     C_R   0.160840 0.290801 0.977162 -0.061484
C16   C     C_R   0.846379 0.714957 0.032753 -0.060041
C17   C     C_1   0.421470 0.812795 0.116468 0.216877
C18   C     C_1   0.571981 0.192009 0.873183 0.228444
C19   C     C_1   0.578524 0.812785 0.883520 0.216881
C20   C     C_1   0.428017 0.192011 0.126819 0.228448
C21   C     C_1   0.921469 0.312796 0.116467 0.216880
C22   C     C_1   0.071984 0.692005 0.873187 0.228444
C23   C     C_1   0.078527 0.312791 0.883528 0.216881
C24   C     C_R   0.333276 0.227925 0.930392 -0.232204
C25   C     C_1   0.928022 0.692016 0.126829 0.228448
C26   C     C_1   0.264675 0.933420 0.792113 0.304074
C27   C     C_1   0.735327 0.933421 0.207887 0.304075
C28   C     C_1   0.764676 0.433415 0.792114 0.304075
C29   C     C_1   0.235326 0.433421 0.207887 0.304069
C30   C     C_R   0.824869 0.278606 0.919383 -0.225116
C31   C     C_R   0.166726 0.727922 0.069612 -0.232206
C32   C     C_R   0.175127 0.278603 0.080614 -0.225117
C33   C     C_R   0.833284 0.727931 0.930402 -0.232207
C34   C     C_R   0.320152 0.984612 0.663281 0.058800
C35   C     C_R   0.679848 0.984612 0.336720 0.058798
C36   C     C_R   0.820152 0.484605 0.663279 0.058803
C37   C     C_R   0.397624 0.086633 0.369261 0.813781
C38   C     C_R   0.179848 0.484613 0.336719 0.058798
C39   C     C_R   0.350001 0.998232 0.602727 0.268206
C40   C     C_R   0.649999 0.998233 0.397273 0.268200
C41   C     C_R   0.850001 0.498228 0.602725 0.268202
C42   C     C_R   0.149999 0.498233 0.397273 0.268201
C43   C     C_R   0.488906 0.996566 0.776886 0.317176
C44   C     C_R   0.511094 0.996565 0.223114 0.317180
C45   C     C_R   0.988906 0.496566 0.776886 0.317181
C46   C     C_R   0.011094 0.496566 0.223113 0.317178
C47   C     C_R   0.461904 0.981230 0.844338 -0.096300
C48   C     C_R   0.396846 0.914007 0.368280 0.808484
C49   C     C_R   0.538097 0.981230 0.155663 -0.096296
C50   C     C_R   0.961904 0.481229 0.844337 -0.096296
C51   C     C_R   0.038096 0.481230 0.155662 -0.096296
C52   C     C_R   0.375565 0.973749 0.783835 0.041450
C53   C     C_R   0.624436 0.973749 0.216166 0.041449
C54   C     C_R   0.875565 0.473744 0.783833 0.041451
C55   C     C_R   0.124436 0.473749 0.216166 0.041449
C56   C     C_R   0.516165 0.974469 0.969164 0.095944
C57   C     C_R   0.483836 0.974469 0.030837 0.095945
C58   C     C_R   0.016165 0.474469 0.969163 0.095943
C59   C     C_R   0.602376 0.086633 0.630738 0.813781
C60   C     C_R   0.983835 0.474468 0.030836 0.095944
C61   C     C_R   0.400428 0.958578 0.966872 -0.294355
C62   C     C_R   0.599574 0.958578 0.033128 -0.294353
C63   C     C_R   0.900427 0.458576 0.966872 -0.294352
C64   C     C_R   0.099573 0.458579 0.033128 -0.294352
C65   C     C_R   0.347222 0.956509 0.846552 0.010680
C66   C     C_R   0.652779 0.956509 0.153448 0.010681
C67   C     C_R   0.847222 0.456505 0.846552 0.010677
C68   C     C_R   0.152779 0.456510 0.153448 0.010681
C69   C     C_R   0.657801 0.138832 0.700323 -0.084741
C70   C     C_R   0.103154 0.414007 0.631720 0.808478
C71   C     C_R   0.338920 0.863680 0.295549 -0.085623
C72   C     C_R   0.342197 0.138831 0.299675 -0.084743
C73   C     C_R   0.661083 0.863683 0.704455 -0.085623
C74   C     C_R   0.157802 0.638832 0.700323 -0.084742
C75   C     C_R   0.838921 0.363680 0.295549 -0.085619
C76   C     C_R   0.842196 0.638830 0.299673 -0.084739
C77   C     C_R   0.161080 0.363681 0.704453 -0.085622
C78   C     C_R   0.751991 0.221349 0.737815 0.161491
C79   C     C_R   0.239536 0.784442 0.251863 0.155072
C80   C     C_R   0.248006 0.221347 0.262182 0.161485
C81   C     C_R   0.897624 0.586632 0.369261 0.813781
C82   C     C_R   0.760477 0.784452 0.748153 0.155061
C83   C     C_R   0.251989 0.721350 0.737813 0.161496
C84   C     C_R   0.739537 0.284442 0.251862 0.155060
C85   C     C_R   0.748000 0.721343 0.262176 0.161491
C86   C     C_R   0.260467 0.284444 0.748142 0.155071
C87   C     C_R   0.697961 0.172799 0.667641 -0.240393
C88   C     C_R   0.295640 0.831370 0.324781 -0.243115
C89   C     C_R   0.302036 0.172798 0.332355 -0.240396
C90   C     C_R   0.704372 0.831378 0.675234 -0.243115
C91   C     C_R   0.197960 0.672800 0.667640 -0.240396
C92   C     C_R   0.896847 0.414007 0.368280 0.808480
C93   C     C_R   0.795642 0.331368 0.324782 -0.243111
C94   C     C_R   0.802030 0.672794 0.332350 -0.240394
C95   C     C_R   0.204364 0.331372 0.675224 -0.243116
C96   C     C_R   0.667924 0.156165 0.799087 -0.227253
C97   C     C_R   0.328382 0.847216 0.196138 -0.225044
C98   C     C_R   0.332073 0.156164 0.200911 -0.227248
C99   C     C_R   0.671616 0.847215 0.803862 -0.225044
C100  C     C_R   0.167927 0.656164 0.799089 -0.227253
C101  C     C_R   0.828381 0.347217 0.196136 -0.225045
C102  C     C_R   0.832074 0.656164 0.200912 -0.227251
C103  C     C_R   0.102376 0.586633 0.630738 0.813783
C104  C     C_R   0.171617 0.347216 0.803862 -0.225041
C105  C     C_R   0.712390 0.209649 0.862097 0.037940
C106  C     C_R   0.281445 0.795220 0.129901 0.041526
C107  C     C_R   0.287607 0.209648 0.137900 0.037938
C108  C     C_R   0.718556 0.795221 0.870102 0.041523
C109  C     C_R   0.212391 0.709648 0.862099 0.037940
C110  C     C_R   0.781443 0.295222 0.129898 0.041525
C111  C     C_R   0.787607 0.709647 0.137900 0.037939
C112  C     C_R   0.218554 0.295220 0.870100 0.041524
C113  C     C_R   0.761725 0.238267 0.837920 0.155320
C114  C     C_R   0.324869 0.778605 0.919383 -0.225118
C115  C     C_R   0.230486 0.767528 0.152181 0.145528
C116  C     C_R   0.238272 0.238265 0.162077 0.155321
C117  C     C_R   0.769522 0.767534 0.847829 0.145537
C118  C     C_R   0.261725 0.738267 0.837920 0.155315
C119  C     C_R   0.730483 0.267530 0.152178 0.145532
C120  C     C_R   0.738268 0.738262 0.162073 0.155314
C121  C     C_R   0.269515 0.267529 0.847822 0.145529
C122  C     C_R   0.714265 0.231941 0.954405 0.021187
C123  C     C_R   0.279096 0.773460 0.036790 0.021619
C124  C     C_R   0.285732 0.231940 0.045593 0.021186
Cu1   Cu    Cu3+1 0.526640 0.000000 0.436960 0.961836
Cu2   Cu    Cu3+1 0.473360 0.000000 0.563040 0.961837
Cu3   Cu    Cu3+1 0.026640 0.500000 0.436960 0.961834
Cu4   Cu    Cu3+1 0.973360 0.500000 0.563040 0.961836
H1    H     H_    0.368614 0.795839 0.907961 0.186392
H2    H     H_    0.623132 0.941967 0.990277 0.142316
H3    H     H_    0.876870 0.441967 0.009723 0.142317
H4    H     H_    0.123131 0.441968 0.990276 0.142317
H5    H     H_    0.354002 0.877625 0.167973 0.154113
H6    H     H_    0.643964 0.125500 0.829453 0.179551
H7    H     H_    0.645992 0.877622 0.832022 0.154116
H8    H     H_    0.356034 0.125499 0.170545 0.179550
H9    H     H_    0.854000 0.377627 0.167971 0.154112
H10   H     H_    0.143968 0.625498 0.829456 0.179551
H11   H     H_    0.145997 0.377625 0.832027 0.154113
H12   H     H_    0.622081 0.211373 0.079759 0.186588
H13   H     H_    0.856037 0.625501 0.170546 0.179552
H14   H     H_    0.303312 0.843612 0.401992 0.163451
H15   H     H_    0.689347 0.160881 0.589710 0.154053
H16   H     H_    0.696704 0.843623 0.598028 0.163451
H17   H     H_    0.310650 0.160880 0.410285 0.154055
H18   H     H_    0.803317 0.343608 0.401995 0.163455
H19   H     H_    0.189344 0.660883 0.589707 0.154053
H20   H     H_    0.196693 0.343615 0.598015 0.163450
H21   H     H_    0.810642 0.660874 0.410279 0.154054
H22   H     H_    0.254573 0.772172 0.625177 0.227335
H23   H     H_    0.631375 0.795830 0.092025 0.186393
H24   H     H_    0.332234 0.719833 0.703455 0.225101
H25   H     H_    0.732292 0.234364 0.360881 0.223900
H26   H     H_    0.657472 0.288759 0.282766 0.227775
H27   H     H_    0.745409 0.772164 0.374806 0.227336
H28   H     H_    0.667753 0.719820 0.296531 0.225100
H29   H     H_    0.267721 0.234379 0.639116 0.223898
H30   H     H_    0.342549 0.288766 0.717269 0.227774
H31   H     H_    0.754581 0.272167 0.625184 0.227339
H32   H     H_    0.832237 0.219831 0.703462 0.225103
H33   H     H_    0.232286 0.734376 0.360891 0.223896
H34   H     H_    0.377918 0.211373 0.920243 0.186587
H35   H     H_    0.157456 0.788762 0.282739 0.227774
H36   H     H_    0.245424 0.272184 0.374800 0.227343
H37   H     H_    0.167782 0.219831 0.296574 0.225104
H38   H     H_    0.767742 0.734391 0.639139 0.223903
H39   H     H_    0.842561 0.788780 0.717290 0.227777
H40   H     H_    0.405891 0.044901 0.096505 0.204909
H41   H     H_    0.390167 0.979912 0.150863 0.206024
H42   H     H_    0.594110 0.044900 0.903496 0.204910
H43   H     H_    0.609832 0.979912 0.849135 0.206025
H44   H     H_    0.905891 0.544901 0.096505 0.204907
H45   H     H_    0.868615 0.295838 0.907962 0.186393
H46   H     H_    0.890167 0.479913 0.150863 0.206024
H47   H     H_    0.094108 0.544902 0.903496 0.204911
H48   H     H_    0.109833 0.479915 0.849135 0.206024
H49   H     H_    0.703844 0.062874 0.525323 0.233527
H50   H     H_    0.705586 0.988155 0.570103 0.259070
H51   H     H_    0.294407 0.988143 0.429897 0.259063
H52   H     H_    0.296151 0.062865 0.474663 0.233534
H53   H     H_    0.203844 0.562872 0.525327 0.233531
H54   H     H_    0.205588 0.488152 0.570103 0.259067
H55   H     H_    0.796147 0.562870 0.474685 0.233509
H56   H     H_    0.122084 0.711370 0.079763 0.186586
H57   H     H_    0.794420 0.488163 0.429896 0.259087
H58   H     H_    0.204695 0.952876 0.534370 0.242265
H59   H     H_    0.209752 0.029928 0.565957 0.241098
H60   H     H_    0.790246 0.029931 0.434038 0.241095
H61   H     H_    0.795306 0.952880 0.465636 0.242267
H62   H     H_    0.709749 0.529917 0.565951 0.241096
H63   H     H_    0.704698 0.452864 0.534366 0.242267
H64   H     H_    0.290245 0.529933 0.434037 0.241097
H65   H     H_    0.295306 0.452882 0.465634 0.242265
H66   H     H_    0.131382 0.295836 0.092035 0.186395
H67   H     H_    0.877929 0.711381 0.920257 0.186588
H68   H     H_    0.376870 0.941967 0.009724 0.142318
N1    N     N_R   0.433280 0.000000 0.657760 -0.185844
N2    N     N_3   0.191530 0.754460 0.278765 -0.598941
N3    N     N_3   0.202826 0.252987 0.292273 -0.598318
N4    N     N_3   0.808492 0.754476 0.721261 -0.598955
N5    N     N_1   0.487482 0.830170 0.191018 -0.279315
N6    N     N_1   0.506528 0.173859 0.798239 -0.270667
N7    N     N_1   0.512512 0.830158 0.808967 -0.279319
N8    N     N_1   0.493471 0.173864 0.201765 -0.270668
N9    N     N_1   0.987480 0.330171 0.191018 -0.279315
N10   N     N_1   0.006531 0.673855 0.798244 -0.270664
N11   N     N_1   0.012516 0.330166 0.808976 -0.279319
N12   N     N_R   0.566720 0.000000 0.342240 -0.185847
N13   N     N_1   0.993475 0.673870 0.201776 -0.270670
N14   N     N_1   0.198902 0.914690 0.749305 -0.266023
N15   N     N_1   0.801100 0.914692 0.250696 -0.266024
N16   N     N_1   0.698904 0.414684 0.749306 -0.266022
N17   N     N_1   0.301099 0.414691 0.250695 -0.266026
N18   N     N_3   0.428672 0.017418 0.169150 -0.549952
N19   N     N_3   0.571328 0.017418 0.830851 -0.549952
N20   N     N_3   0.928672 0.517419 0.169149 -0.549953
N21   N     N_3   0.071327 0.517420 0.830851 -0.549953
N22   N     N_3   0.710005 0.015459 0.516321 -0.615817
N23   N     N_R   0.933280 0.500000 0.657760 -0.185848
N24   N     N_3   0.289993 0.015452 0.483678 -0.615823
N25   N     N_3   0.210006 0.515458 0.516321 -0.615815
N26   N     N_3   0.789993 0.515454 0.483679 -0.615827
N27   N     N_3   0.232406 0.985509 0.601558 -0.573461
N28   N     N_3   0.767595 0.985510 0.398443 -0.573461
N29   N     N_3   0.732406 0.485498 0.601554 -0.573458
N30   N     N_3   0.267594 0.485512 0.398442 -0.573461
N31   N     N_R   0.066720 0.500000 0.342240 -0.185847
N32   N     N_3   0.297171 0.752989 0.707722 -0.598300
N33   N     N_3   0.691533 0.254457 0.278767 -0.598947
N34   N     N_3   0.702814 0.752979 0.292262 -0.598299
N35   N     N_3   0.308475 0.254463 0.721242 -0.598942
N36   N     N_3   0.797175 0.252986 0.707726 -0.598313
O1    O     O_R   0.600040 0.935040 0.546740 -0.597938
O2    O     O_R   0.444990 0.064930 0.346780 -0.540710
O3    O     O_R   0.444990 0.935070 0.346780 -0.569847
O4    O     O_R   0.555010 0.064930 0.653220 -0.540710
O5    O     O_R   0.055010 0.435070 0.653220 -0.569849
O6    O     O_R   0.944990 0.564930 0.346780 -0.540710
O7    O     O_R   0.944990 0.435070 0.346780 -0.569847
O8    O     O_R   0.055010 0.564930 0.653220 -0.540709
O9    O     O_R   0.399960 0.064960 0.453260 -0.600397
O10   O     O_R   0.399960 0.935040 0.453260 -0.597938
O11   O     O_R   0.600040 0.064960 0.546740 -0.600402
O12   O     O_R   0.100040 0.435040 0.546740 -0.597938
O13   O     O_R   0.899960 0.564960 0.453260 -0.600400
O14   O     O_R   0.899960 0.435040 0.453260 -0.597941
O15   O     O_R   0.100040 0.564960 0.546740 -0.600402
O16   O     O_R   0.555010 0.935070 0.653220 -0.569850

loop_
_geom_bond_atom_site_label_1
_geom_bond_atom_site_label_2
_ccdc_geom_bond_type
C44   C49   A    
C78   C87   A    
H58   N27   S    
C40   N12   A    
C92   O7    A    
Cu3   O7    S    
C36   N29   S    
C79   C115  A    
H51   N24   S    
C35   C53   A    
H62   N29   S    
C45   N21   S    
C6    C111  A    
C62   H2    S    
C23   N11   T    
C59   O4    A    
C97   H5    S    
H49   N22   S    
C96   C105  A    
C3    C6    A    
C43   N19   S    
C91   H19   S    
C55   C68   A    
C36   C41   A    
H61   N28   S    
C15   C32   A    
C72   C98   A    
C42   N31   A    
C7    C112  A    
C94   H21   S    
C89   H17   S    
C99   C108  A    
C71   C97   A    
C75   C93   A    
C50   C54   A    
H59   N27   S    
H33   N2    S    
C26   N14   T    
C60   C63   A    
C44   N18   S    
Cu4   O13   S    
C64   C68   A    
C83   C118  A    
C105  C113  A    
C73   C90   A    
C38   C42   A    
H37   N3    S    
C31   H56   S    
C5    C110  A    
C78   N36   S    
C98   H8    S    
C11   C24   A    
C44   N12   A    
C49   C57   A    
C56   C57   A    
C22   N10   T    
C59   O11   A    
C21   N9    T    
C80   C89   A    
C14   C31   A    
H55   N26   S    
Cu1   O2    S    
C70   O12   A    
H24   N32   S    
C38   C55   A    
C11   C124  A    
H35   N2    S    
C1    O1    A    
C103  O8    A    
C106  C123  A    
Cu2   O10   S    
H39   N4    S    
H32   N36   S    
C70   O5    A    
C63   H3    S    
C42   N25   S    
Cu2   O4    S    
C7    C124  A    
C30   H45   S    
H46   N20   S    
C41   N26   S    
C69   C87   A    
H36   N3    S    
C8    C114  A    
C38   N30   S    
H43   N19   S    
C69   C96   A    
C15   C23   S    
C39   N1    A    
C110  C119  A    
C100  C109  A    
H63   N29   S    
C79   N2    S    
C10   C13   A    
C70   C77   S    
Cu3   N31   S    
H47   N21   S    
H25   N33   S    
C102  C111  A    
C107  C124  A    
Cu2   O9    S    
C28   N16   T    
C19   N7    T    
C88   H14   S    
C79   C88   A    
C41   N23   A    
C109  C118  A    
C83   N32   S    
C76   C102  A    
C33   C117  A    
C63   C67   A    
C11   C20   S    
H22   N32   S    
C62   C66   A    
H53   N25   S    
C34   C39   A    
C50   C58   A    
C81   O13   A    
C39   N24   S    
C37   O2    A    
C28   C67   S    
C37   O9    A    
C20   N8    T    
C5    C12   A    
C43   N1    A    
C104  C112  A    
C101  H9    S    
C96   H6    S    
H42   N19   S    
C58   C64   A    
Cu4   O5    S    
C80   N3    S    
Cu2   O16   S    
C46   C51   A    
C77   C95   A    
C103  O15   A    
C98   C107  A    
C4    C123  A    
C111  C120  A    
C74   C91   A    
H30   N35   S    
C85   C120  A    
C17   N5    T    
C51   C60   A    
C82   N4    S    
Cu1   O3    S    
C61   C65   A    
C16   C33   A    
C29   C68   S    
C85   C94   A    
C29   N17   T    
Cu4   N23   S    
C10   C19   S    
C46   N31   A    
C86   C121  A    
C27   N15   T    
C9    C122  A    
C99   H7    S    
C93   H18   S    
C18   N6    T    
C32   C116  A    
C25   N13   T    
C84   N33   S    
C61   H68   S    
C13   H23   S    
C114  C118  A    
C100  H10   S    
C75   C92   S    
C59   C69   S    
H65   N30   S    
C97   C106  A    
H60   N28   S    
Cu2   N1    S    
C48   O10   A    
C102  H13   S    
C46   N20   S    
H48   N21   S    
H26   N33   S    
Cu1   Cu2   S    
C45   N23   A    
C114  H1    S    
C56   C62   A    
H52   N24   S    
C78   C113  A    
Cu3   O15   S    
C86   N35   S    
C48   C71   S    
Cu3   Cu4   S    
H41   N18   S    
C13   C120  A    
C34   N27   S    
H29   N35   S    
C75   C101  A    
C16   C25   S    
C73   C99   A    
H54   N25   S    
C92   O14   A    
Cu1   N12   S    
C40   N22   S    
C26   C65   S    
C34   C52   A    
C108  C117  A    
H50   N22   S    
C80   C116  A    
C95   H20   S    
C43   C47   A    
C1    O16   A    
C76   C81   S    
C85   N34   S    
C74   C100  A    
C2    C119  A    
C8    C123  A    
C57   C61   A    
C47   C52   A    
C54   C67   A    
C76   C94   A    
C3    C108  A    
Cu4   O8    S    
C4    C109  A    
C83   C91   A    
C81   O6    A    
Cu3   O12   S    
H27   N34   S    
C64   H4    S    
C8    C17   S    
C82   C90   A    
C104  H11   S    
C106  C115  A    
H57   N26   S    
Cu4   O14   S    
H31   N36   S    
C14   C22   S    
C32   H66   S    
C12   C30   A    
C35   C40   A    
C101  C110  A    
C1    C73   S    
C112  C121  A    
C3    C10   A    
C53   C66   A    
C35   N28   S    
C72   C89   A    
H40   N18   S    
C45   C50   A    
C84   C119  A    
C49   C53   A    
C12   C21   S    
C7    C15   A    
H64   N30   S    
C24   C121  A    
C24   H34   S    
C105  C122  A    
Cu1   O11   S    
C51   C55   A    
C84   C93   A    
C31   C115  A    
C4    C14   A    
H38   N4    S    
C107  C116  A    
C48   O3    A    
Cu1   O1    S    
C86   C95   A    
C6    C16   A    
C71   C88   A    
H28   N34   S    
C9    C18   S    
C33   H67   S    
Cu3   O6    S    
C37   C72   S    
C27   C66   S    
C74   C103  S    
C77   C104  A    
C2    H12   S    
C36   C54   A    
C82   C117  A    
C87   H15   S    
H44   N20   S    
C2    C9    A    
C58   C60   A    
C5    C122  A    
C90   H16   S    
C52   C65   A    
C47   C56   A    
C30   C113  A    
