data_mof_unit_61481.cif
_audit_creation_date              2012-10-26T19:44:25-0400
_audit_creation_method            fapswitch 2.2
_symmetry_space_group_name_H-M    P1
_symmetry_Int_Tables_number       1
_space_group_crystal_system       triclinic
_cell_length_a                    10.765005
_cell_length_b                    11.726866
_cell_length_c                    10.472517
_cell_angle_alpha                 90.000352
_cell_angle_beta                  89.999984
_cell_angle_gamma                 90.0
_cell_volume                      1322.04814915

loop_
_atom_site_label
_atom_site_type_symbol
_atom_type_description
_atom_site_fract_x
_atom_site_fract_y
_atom_site_fract_z
_atom_type_partial_charge
C1    C     C_R   0.500000 0.283346 0.500000 0.573759
C2    C     C_R   0.500000 0.716674 0.500000 0.546638
C3    C     C_1   0.500000 0.161996 0.499999 0.041351
C4    C     C_3   0.072518 0.425315 0.623449 -0.124796
C5    C     C_3   0.072517 0.425370 0.376513 -0.124795
C6    C     C_3   0.927482 0.425314 0.623448 -0.124797
C7    C     C_3   0.927483 0.425371 0.376512 -0.124795
C8    C     C_1   0.500000 0.059777 0.500000 0.008744
C9    C     C_3   0.071446 0.610073 0.500034 -0.271816
C10   C     C_3   0.928554 0.610073 0.500035 -0.271816
C11   C     C_1   0.129225 0.311397 0.643498 0.226640
C12   C     C_3   0.122079 0.486222 0.499998 -0.001112
C13   C     C_1   0.129222 0.311460 0.356400 0.226650
C14   C     C_1   0.870776 0.311396 0.643495 0.226639
C15   C     C_1   0.870776 0.311462 0.356397 0.226651
C16   C     C_3   0.877921 0.486222 0.499998 -0.001112
C17   C     C_1   0.500000 0.838069 0.500000 -0.009144
C18   C     C_1   0.500000 0.940304 0.500000 -0.014209
C19   C     C_R   0.259650 0.493948 0.500000 0.545338
C20   C     C_R   0.740350 0.493948 0.500000 0.545337
C21   C     C_1   0.500000 0.499968 0.072075 0.111108
C22   C     C_1   0.500000 0.499968 0.927925 0.111104
Cu1   Cu    Cu3+1 0.500000 0.500000 0.625300 1.014525
Cu2   Cu    Cu3+1 0.500000 0.500000 0.374700 1.014541
H1    H     H_    0.102401 0.476804 0.707405 0.115520
H2    H     H_    0.102402 0.476895 0.292585 0.115517
H3    H     H_    0.897597 0.476801 0.707405 0.115520
H4    H     H_    0.897599 0.476897 0.292585 0.115516
H5    H     H_    0.105687 0.656981 0.585538 0.136003
H6    H     H_    0.105687 0.657019 0.414556 0.135994
H7    H     H_    0.894314 0.656980 0.585540 0.136003
H8    H     H_    0.894313 0.657020 0.414558 0.135994
N1    N     N_1   0.500000 0.499990 0.186410 -0.188755
N2    N     N_1   0.500000 0.499990 0.813590 -0.188759
N3    N     N_1   0.173724 0.222691 0.659521 -0.256661
N4    N     N_1   0.173720 0.222760 0.340328 -0.256642
N5    N     N_1   0.826278 0.222688 0.659516 -0.256661
N6    N     N_1   0.826278 0.222762 0.340323 -0.256642
O1    O     O_R   0.500000 0.337200 0.605810 -0.480525
O2    O     O_R   0.500000 0.337200 0.394190 -0.480514
O3    O     O_R   0.317690 0.499990 0.605810 -0.503018
O4    O     O_R   0.317690 0.499990 0.394190 -0.503015
O5    O     O_R   0.682310 0.499990 0.605810 -0.503018
O6    O     O_R   0.682310 0.499990 0.394190 -0.503014
O7    O     O_R   0.500000 0.662810 0.605810 -0.489738
O8    O     O_R   0.500000 0.662810 0.394190 -0.489740

loop_
_geom_bond_atom_site_label_1
_geom_bond_atom_site_label_2
_ccdc_geom_bond_type
Cu1   Cu2   S    
C15   N6    T    
Cu1   O7    S    
C4    C12   S    
Cu2   O4    S    
C9    C10   S    
C5    C13   S    
Cu2   N1    S    
Cu1   O3    S    
C19   O4    A    
C9    H5    S    
C16   C20   S    
Cu1   N2    S    
Cu2   O8    S    
C7    C15   S    
C17   C18   T    
Cu1   O5    S    
C10   C16   S    
C21   C22   S    
C2    O8    A    
C2    C17   S    
C6    H3    S    
C9    H6    S    
C5    C12   S    
Cu1   O1    S    
C12   C19   S    
C11   N3    T    
C7    C16   S    
C20   O6    A    
C4    H1    S    
C1    C3    S    
C2    O7    A    
C4    C11   S    
Cu2   O6    S    
C9    C12   S    
C6    C14   S    
C1    O1    A    
C6    C16   S    
C5    H2    S    
C10   H8    S    
C20   O5    A    
C21   N1    T    
C13   N4    T    
C4    C6    S    
C3    C8    T    
C5    C7    S    
C22   N2    T    
C1    O2    A    
Cu2   O2    S    
C10   H7    S    
C8    C18   S    
C7    H4    S    
C19   O3    A    
C14   N5    T    
