data_mof_unit_67969.cif
_audit_creation_date              2013-03-05T16:49:25-0500
_audit_creation_method            fapswitch 2.2
_symmetry_space_group_name_H-M    P1
_symmetry_Int_Tables_number       1
_space_group_crystal_system       triclinic
_cell_length_a                    10.906205
_cell_length_b                    9.070656
_cell_length_c                    8.217549
_cell_angle_alpha                 91.030334
_cell_angle_beta                  94.113596
_cell_angle_gamma                 92.169736
_cell_volume                      810.082482733

loop_
_atom_site_label
_atom_site_type_symbol
_atom_site_description
_atom_site_fract_x
_atom_site_fract_y
_atom_site_fract_z
_atom_type_partial_charge
O1    O     O_R   0.499990 0.285340 0.636850 -0.633549
O2    O     O_R   0.500010 0.714660 0.363150 -0.633549
O3    O     O_R   0.500010 0.285350 0.363100 -0.603409
O4    O     O_R   0.499990 0.714650 0.636900 -0.603409
C1    C     C_R   0.500758 0.218235 0.498987 0.931494
C2    C     C_R   0.499242 0.781765 0.501013 0.931494
O5    O     O_R   0.316750 0.500000 0.636870 -0.648853
O6    O     O_R   0.683250 0.500000 0.363130 -0.648854
O7    O     O_R   0.316770 0.500020 0.363120 -0.619824
O8    O     O_R   0.683230 0.499980 0.636880 -0.619825
C3    C     C_R   0.259112 0.497177 0.493963 0.854264
C4    C     C_R   0.740888 0.502823 0.506037 0.854264
Zn1   Zn    Zn3+2 0.499990 0.499990 0.682780 0.958860
Zn2   Zn    Zn3+2 0.500010 0.500010 0.317220 0.958860
H1    H     H_    0.210063 0.296872 0.776517 0.164954
H2    H     H_    0.789937 0.703128 0.223483 0.164954
C5    C     C_R   0.208197 0.458536 0.970563 -0.131447
C6    C     C_R   0.791803 0.541464 0.029437 -0.131447
H3    H     H_    0.270952 0.536560 0.920046 0.168035
H4    H     H_    0.729048 0.463440 0.079954 0.168035
C7    C     C_R   0.156486 0.497123 0.112844 -0.093474
C8    C     C_R   0.843514 0.502877 0.887156 -0.093474
H5    H     H_    0.177548 0.605937 0.165264 0.136899
H6    H     H_    0.822452 0.394063 0.834736 0.136899
C9    C     C_R   0.085270 0.394670 0.194031 0.079728
C10   C     C_R   0.914730 0.605330 0.805969 0.079728
C11   C     C_R   0.041311 0.262727 0.107302 0.028072
C12   C     C_R   0.958689 0.737273 0.892698 0.028072
C13   C     C_R   0.086691 0.231923 0.955226 -0.193822
C14   C     C_R   0.913309 0.768077 0.044774 -0.193822
H7    H     H_    0.052461 0.136346 0.883936 0.169370
H8    H     H_    0.947539 0.863654 0.116064 0.169370
C15   C     C_R   0.174185 0.325091 0.891531 -0.114830
C16   C     C_R   0.825815 0.674909 0.108469 -0.114830
C17   C     C_R   0.921804 0.440850 0.375510 -0.207784
C18   C     C_R   0.078196 0.559150 0.624490 -0.207784
H9    H     H_    0.860156 0.393816 0.279573 0.180996
H10   H     H_    0.139844 0.606184 0.720427 0.180996
C19   C     C_R   0.874014 0.498841 0.514293 -0.114775
C20   C     C_R   0.125986 0.501159 0.485707 -0.114776
C21   C     C_R   0.953995 0.558099 0.644122 -0.009497
C22   C     C_R   0.046005 0.441900 0.355878 -0.009497
C23   C     C_1   0.500615 0.065007 0.498278 -0.234669
C24   C     C_1   0.499384 0.934993 0.501722 -0.234669
N1    N     N_1   0.500020 0.500030 0.073640 -0.066762
N2    N     N_1   0.499980 0.499970 0.926360 -0.066762
C25   C     C_R   0.938790 0.164923 0.157657 0.074284
C26   C     C_R   0.935338 0.114049 0.318027 -0.175342
C27   C     C_R   0.832181 0.033044 0.364082 -0.171594
C28   C     C_R   0.733941 0.998728 0.249568 -0.115221
C29   C     C_R   0.736662 0.046996 0.090137 -0.102955
C30   C     C_R   0.838619 0.128643 0.043926 -0.185919
H11   H     H_    0.010269 0.141069 0.408051 0.135813
H12   H     H_    0.827932 0.996798 0.488229 0.128979
H13   H     H_    0.657074 0.930644 0.281850 0.150439
H14   H     H_    0.660727 0.018822 0.001527 0.140573
H15   H     H_    0.838964 0.162698 0.918727 0.120969
C31   C     C_R   0.061210 0.835077 0.842342 0.074284
C32   C     C_R   0.064662 0.885951 0.681973 -0.175341
C33   C     C_R   0.167819 0.966955 0.635918 -0.171594
C34   C     C_R   0.266059 0.001272 0.750432 -0.115221
C35   C     C_R   0.263338 0.953004 0.909863 -0.102955
C36   C     C_R   0.161381 0.871357 0.956074 -0.185919
H16   H     H_    0.989731 0.858931 0.591948 0.135813
H17   H     H_    0.172068 0.003202 0.511771 0.128979
H18   H     H_    0.342926 0.069356 0.718150 0.150439
H19   H     H_    0.339273 0.981178 0.998473 0.140573
H20   H     H_    0.161036 0.837302 0.081273 0.120969

loop_
_geom_bond_atom_site_label_1
_geom_bond_atom_site_label_2
_geom_bond_distance
_ccdc_geom_bond_type
C9    C22   1.486907 S    
O5    Zn1   2.006986 S    
C17   C19   1.390490 A    
O7    Zn2   2.060155 S    
C25   C30   1.410860 A    
C12   C31   1.487580 S    
C26   H11   1.080166 S    
C11   C13   1.404064 A    
C6    C16   1.388417 A    
C36   H20   1.079731 S    
C10   C12   1.430736 A    
C28   H13   1.073846 S    
O6    C4    1.291003 A    
C23   C24   1.179758 T    
H2    C16   1.078818 S    
C4    C19   1.450461 S    
C12   C14   1.404064 A    
C28   C29   1.390770 A    
C1    C23   1.389724 S    
C32   C33   1.399054 A    
C19   C21   1.413642 A    
O2    C2    1.277095 A    
N1    N2    1.210239 T    
C14   H8    1.077044 S    
O7    C3    1.284111 A    
C3    C20   1.450461 S    
C18   C21   1.375278 A    
C35   C36   1.391940 A    
O3    Zn2   1.989917 S    
C5    C15   1.388416 A    
C35   H19   1.082654 S    
C13   H7    1.077044 S    
O1    C1    1.277096 A    
O8    C4    1.284110 A    
C18   H10   1.070383 S    
C26   C27   1.399052 A    
C17   H9    1.070383 S    
C33   H17   1.081070 S    
O5    C3    1.291003 A    
Zn2   N1    2.001642 S    
C6    H4    1.075316 S    
C7    H5    1.079749 S    
C31   C36   1.410861 A    
C34   C35   1.390770 A    
O2    Zn2   1.976589 S    
C8    H6    1.079748 S    
O1    Zn1   1.976587 S    
C30   H15   1.079731 S    
C14   C16   1.387514 A    
C27   H12   1.081070 S    
C25   C26   1.406683 A    
C32   H16   1.080166 S    
C18   C20   1.390490 A    
C10   C21   1.486907 S    
O4    C2    1.281061 A    
C29   H14   1.082654 S    
C8    C10   1.397844 A    
C11   C25   1.487580 S    
O4    Zn1   1.989917 S    
C27   C28   1.396395 A    
C17   C22   1.375278 A    
C7    C9    1.397843 A    
Zn1   N2    2.001642 S    
C33   C34   1.396394 A    
C2    C24   1.389724 S    
O6    Zn2   2.006986 S    
C5    H3    1.075316 S    
C31   C32   1.406682 A    
C6    C8    1.379286 A    
C9    C11   1.430737 A    
C34   H18   1.073846 S    
H1    C15   1.078818 S    
C5    C7    1.379287 A    
C29   C30   1.391940 A    
C13   C15   1.387514 A    
C20   C22   1.413642 A    
O3    C1    1.281060 A    
O8    Zn1   2.060155 S    
