data_mof_unit_26423.cif
_audit_creation_date              2012-12-10T18:09:56-0500
_audit_creation_method            fapswitch 2.2
_symmetry_space_group_name_H-M    P1
_symmetry_Int_Tables_number       1
_space_group_crystal_system       triclinic
_cell_length_a                    10.634949
_cell_length_b                    12.590002
_cell_length_c                    13.125694
_cell_angle_alpha                 82.328356
_cell_angle_beta                  90.390959
_cell_angle_gamma                 102.336674
_cell_volume                      1701.07632797

loop_
_atom_site_label
_atom_site_type_symbol
_atom_type_description
_atom_site_fract_x
_atom_site_fract_y
_atom_site_fract_z
_atom_type_partial_charge
C1    C     C_R   0.480671 0.438772 0.691182 0.849254
C2    C     C_R   0.468841 0.447177 0.973574 0.084542
C3    C     C_R   0.435613 0.466835 0.869846 0.086813
C4    C     C_R   0.741927 0.500450 0.499884 0.827445
C5    C     C_R   0.466519 0.529471 0.036462 0.081217
C6    C     C_R   0.411668 0.620675 0.000734 0.178279
C7    C     C_R   0.362139 0.630084 0.902278 -0.252163
C8    C     C_R   0.373964 0.554168 0.837395 -0.206643
C9    C     C_R   0.519410 0.524282 0.133648 -0.260761
C10   C     C_R   0.447932 0.686983 0.165566 -0.208611
C11   C     C_R   0.467003 0.399406 0.800809 -0.115568
C12   C     C_3   0.121810 0.500038 0.500866 0.133999
C13   C     C_R   0.321574 0.088139 0.346890 -0.315724
C14   C     C_R   0.654169 0.799515 0.628416 -0.013601
C15   C     C_R   0.689553 0.905258 0.655199 0.194454
C16   C     C_R   0.512984 0.561085 0.308793 0.849673
C17   C     C_R   0.629407 0.986484 0.606835 -0.295929
C18   C     C_R   0.537476 0.962890 0.530086 -0.011133
C19   C     C_R   0.508288 0.854793 0.504475 0.221424
C20   C     C_R   0.474176 0.041980 0.477382 0.009900
C21   C     C_R   0.384576 0.011521 0.399907 0.201745
C22   C     C_R   0.358978 0.905045 0.375715 -0.310831
C23   C     C_3   0.073352 0.495772 0.389736 -0.394922
C24   C     C_R   0.420255 0.828080 0.427211 -0.211608
C25   C     C_R   0.495786 0.150804 0.497997 -0.073782
C26   C     C_R   0.347774 0.194344 0.370751 0.006248
C27   C     C_R   0.258141 0.499401 0.501222 0.826531
C28   C     C_3   0.903714 0.401566 0.575440 -0.388024
C29   C     C_3   0.047252 0.399352 0.573265 -0.402019
C30   C     C_3   0.929463 0.499939 0.387611 0.086495
C31   C     C_3   0.955203 0.606358 0.539104 -0.466154
C32   C     C_3   0.878634 0.500442 0.499663 0.140419
C33   C     C_3   0.909114 0.912445 0.710452 -0.805376
C34   C     C_3   0.098334 0.606468 0.538942 -0.395750
C35   C     C_3   0.843167 0.301034 0.358840 -0.737075
C36   C     C_R   0.405192 0.700062 0.064994 -0.200336
C37   C     C_R   0.501625 0.596760 0.200240 -0.050380
C38   C     C_R   0.503341 0.300839 0.837874 -0.199502
C39   C     C_R   0.516900 0.272837 0.942592 -0.151101
C40   C     C_R   0.503038 0.346098 0.010057 -0.193154
H1    H     H_    0.845799 0.322077 0.558198 0.182359
H2    H     H_    0.516452 0.320329 0.090384 0.135163
H3    H     H_    0.543721 0.196220 0.971201 0.141422
H4    H     H_    0.874235 0.409450 0.654869 0.155268
H5    H     H_    0.332969 0.563844 0.761912 0.163209
H6    H     H_    0.291287 0.881005 0.316499 0.147698
H7    H     H_    0.253211 0.066151 0.287592 0.143840
H8    H     H_    0.561347 0.181837 0.555232 0.123039
H9    H     H_    0.696406 0.734292 0.666371 0.149452
H10   H     H_    0.657774 0.067059 0.629767 0.128485
H11   H     H_    0.397221 0.748162 0.404442 0.209453
H12   H     H_    0.150126 0.680540 0.487869 0.188214
H13   H     H_    0.085309 0.400270 0.652470 0.157927
H14   H     H_    0.059705 0.321742 0.546926 0.181232
H15   H     H_    0.091800 0.421964 0.359818 0.187691
H16   H     H_    0.939592 0.681106 0.489296 0.184874
H17   H     H_    0.922456 0.611161 0.618504 0.186445
H18   H     H_    0.135192 0.612282 0.618108 0.181385
H19   H     H_    0.300521 0.255130 0.330451 0.134761
H20   H     H_    0.785082 0.003039 0.759524 0.223880
H21   H     H_    0.973250 0.932781 0.775400 0.240586
H22   H     H_    0.950609 0.966516 0.639401 0.241750
H23   H     H_    0.924429 0.581181 0.343909 0.087555
H24   H     H_    0.905350 0.825490 0.701094 0.236863
H25   H     H_    0.771837 0.438206 0.296852 0.223793
H26   H     H_    0.832688 0.260193 0.288458 0.227887
H27   H     H_    0.756152 0.265529 0.408078 0.245157
H28   H     H_    0.928963 0.282176 0.399305 0.230649
H29   H     H_    0.129101 0.567481 0.337910 0.126674
H30   H     H_    0.433008 0.743624 0.217164 0.147421
H31   H     H_    0.316231 0.697179 0.874735 0.146815
H32   H     H_    0.362361 0.769385 0.038902 0.134074
H33   H     H_    0.570598 0.461238 0.161554 0.141581
H34   H     H_    0.525459 0.247219 0.785673 0.149650
N1    N     N_R   0.433240 0.222190 0.444680 -0.101135
N2    N     N_R   0.566070 0.776970 0.554790 -0.151919
N3    N     N_2   0.782137 0.929280 0.732489 -0.304385
N4    N     N_2   0.853505 0.417898 0.329547 -0.296653
O1    O     O_R   0.468120 0.366740 0.627160 -0.613498
O2    O     O_R   0.510770 0.544830 0.662520 -0.612842
O3    O     O_R   0.663880 0.410950 0.482330 -0.619664
O4    O     O_R   0.706530 0.589040 0.517700 -0.627961
O5    O     O_R   0.489230 0.455170 0.337480 -0.615177
O6    O     O_R   0.531880 0.633260 0.372840 -0.629752
O7    O     O_R   0.293470 0.410960 0.482300 -0.621213
O8    O     O_R   0.336120 0.589050 0.517670 -0.648989
Zn1   Zn    Zn3+2 0.471520 0.381090 0.476390 0.923838
Zn2   Zn    Zn3+2 0.528480 0.618910 0.523610 0.914809

loop_
_geom_bond_atom_site_label_1
_geom_bond_atom_site_label_2
_ccdc_geom_bond_type
O5    Zn1   S    
C12   C29   S    
C27   O8    A    
C23   H29   S    
C1    C11   S    
O1    Zn1   S    
C7    C8    A    
C12   C23   S    
C10   C37   A    
C5    C6    A    
C19   N2    A    
C7    H31   S    
C38   C39   A    
O8    Zn2   S    
C14   H9    S    
C20   C25   A    
C28   H1    S    
C16   O6    A    
C18   C19   A    
C27   O7    A    
C8    H5    S    
C4    O3    A    
C33   H22   S    
C31   H16   S    
C26   H19   S    
N2    Zn2   S    
C16   C37   S    
C24   H11   S    
C40   H2    S    
C21   C22   A    
C9    H33   S    
C26   N1    A    
O7    Zn1   S    
H20   N3    S    
C12   C27   S    
C23   C30   S    
C28   C32   S    
C3    C8    A    
C39   C40   A    
C13   H7    S    
C39   H3    S    
C35   H26   S    
C28   H4    S    
C16   O5    A    
C25   N1    A    
C14   N2    A    
C11   C38   A    
C5    C9    A    
C31   C32   S    
C35   H27   S    
C9    C37   A    
C17   C18   A    
C31   C34   S    
C13   C21   A    
C4    C32   S    
C25   H8    S    
O3    Zn1   S    
C10   H30   S    
N1    Zn1   S    
C22   H6    S    
C1    O1    A    
C22   C24   A    
C13   C26   A    
C2    C5    A    
C12   C34   S    
C38   H34   S    
C15   C17   A    
C28   C29   S    
H25   N4    S    
O6    Zn2   S    
C17   H10   S    
C23   H15   S    
C6    C7    A    
C35   N4    S    
C34   H12   S    
C31   H17   S    
C2    C3    A    
O2    Zn2   S    
C30   C32   S    
C33   N3    S    
C15   N3    S    
C29   H13   S    
C35   H28   S    
C33   H24   S    
O4    Zn2   S    
C6    C36   A    
C19   C24   A    
C18   C20   A    
C3    C11   A    
C30   N4    S    
C2    C40   A    
C4    O4    A    
C20   C21   A    
C33   H21   S    
C29   H14   S    
C34   H18   S    
C1    O2    A    
C14   C15   A    
C10   C36   A    
C30   H23   S    
C36   H32   S    
