data_mof_unit_31207.cif
_audit_creation_date              2012-12-10T20:42:38-0500
_audit_creation_method            fapswitch 2.2
_symmetry_space_group_name_H-M    P1
_symmetry_Int_Tables_number       1
_space_group_crystal_system       triclinic
_cell_length_a                    8.886239
_cell_length_b                    10.676442
_cell_length_c                    9.956343
_cell_angle_alpha                 89.727715
_cell_angle_beta                  88.873856
_cell_angle_gamma                 90.644974
_cell_volume                      944.338292561

loop_
_atom_site_label
_atom_site_type_symbol
_atom_type_description
_atom_site_fract_x
_atom_site_fract_y
_atom_site_fract_z
_atom_type_partial_charge
C1    C     C_R   0.504477 0.260310 0.500167 0.870620
C2    C     C_R   0.553917 0.936545 0.378727 -0.238623
C3    C     C_R   0.526516 0.871652 0.499652 -0.098478
C4    C     C_R   0.527126 0.935716 0.621165 0.138240
C5    C     C_3   0.420319 0.927132 0.738893 -0.481656
C6    C     C_3   0.420761 0.069148 0.739188 -0.481581
C7    C     C_R   0.376831 0.458874 0.073564 0.191013
C8    C     C_R   0.628243 0.530217 0.065047 0.112198
C9    C     C_R   0.624697 0.530655 0.922600 -0.169222
C10   C     C_R   0.376918 0.458821 0.931677 0.208867
C11   C     C_3   0.223604 0.513978 0.928748 -0.508931
C12   C     C_R   0.219032 0.500013 0.500804 0.938026
C13   C     C_3   0.224032 0.514511 0.081121 -0.506121
C14   C     C_R   0.503993 0.739812 0.499705 0.859011
C15   C     C_R   0.780973 0.500207 0.499198 0.930849
C16   C     C_1   0.065478 0.500097 0.501180 -0.226246
C17   C     C_1   0.934515 0.500167 0.498825 -0.214177
C18   C     C_R   0.527568 0.063523 0.621515 0.133435
C19   C     C_R   0.527725 0.129002 0.500332 -0.102488
C20   C     C_R   0.555176 0.065960 0.379140 -0.221245
H1    H     H_    0.566778 0.115439 0.284193 0.172220
H2    H     H_    0.139175 0.447832 0.887205 0.203171
H3    H     H_    0.226603 0.610150 0.124463 0.220195
H4    H     H_    0.139253 0.449378 0.127476 0.205825
H5    H     H_    0.563737 0.888622 0.283463 0.163926
H6    H     H_    0.309608 0.885142 0.712883 0.201826
H7    H     H_    0.473654 0.885872 0.828712 0.204897
H8    H     H_    0.310329 0.109869 0.713264 0.203056
H9    H     H_    0.474296 0.110017 0.829200 0.204575
H10   H     H_    0.722458 0.558798 0.862945 0.161652
H11   H     H_    0.223663 0.609493 0.883633 0.213613
N1    N     N_R   0.499010 0.499140 0.142800 -0.117869
N2    N     N_R   0.499010 0.499180 0.857150 -0.117852
O1    O     O_R   0.500020 0.316790 0.614690 -0.613415
O2    O     O_R   0.500000 0.316760 0.385350 -0.622615
O3    O     O_R   0.285350 0.500020 0.614650 -0.614364
O4    O     O_R   0.285340 0.499980 0.385310 -0.613769
O5    O     O_R   0.500000 0.683240 0.614650 -0.611956
O6    O     O_R   0.499980 0.683210 0.385310 -0.640234
O7    O     O_R   0.714660 0.500020 0.614690 -0.622485
O8    O     O_R   0.714650 0.499980 0.385350 -0.634455
Zn1   Zn    Zn3+2 0.500010 0.500020 0.653130 0.935854
Zn2   Zn    Zn3+2 0.499990 0.499980 0.346870 0.926143
C21   C     C_3   0.781899 0.565383 0.119138 -0.355613
C22   C     C_3   0.788255 0.699535 0.173893 -0.303567
C23   C     C_3   0.949668 0.744731 0.193878 -0.929105
H12   H     H_    0.011589 0.749145 0.095998 0.263538
H13   H     H_    0.948886 0.840080 0.237935 0.254936
H14   H     H_    0.008186 0.680966 0.263516 0.274739
H15   H     H_    0.732928 0.764505 0.103064 0.201272
H16   H     H_    0.729784 0.704829 0.271635 0.263724
H17   H     H_    0.826221 0.492517 0.185579 0.217213
H18   H     H_    0.867768 0.562416 0.036310 0.171435

loop_
_geom_bond_atom_site_label_1
_geom_bond_atom_site_label_2
_ccdc_geom_bond_type
O4    Zn2   S    
C7    C10   A    
C12   O3    A    
O2    Zn2   S    
C11   H2    S    
O3    Zn1   S    
C19   C20   A    
O1    Zn1   S    
C7    C13   S    
C4    C18   A    
C21   H17   S    
O7    Zn1   S    
C2    C3    A    
C11   H11   S    
C22   C23   S    
C21   C22   S    
C9    N2    A    
O8    Zn2   S    
C23   H14   S    
C15   O8    A    
C2    H5    S    
C16   C17   T    
C3    C14   S    
C22   H15   S    
N2    Zn1   S    
C9    H10   S    
N1    Zn2   S    
C1    O1    A    
O5    Zn1   S    
C10   N2    A    
C5    C6    S    
C6    C18   S    
C23   H13   S    
C15   O7    A    
C1    C19   S    
C14   O5    A    
C10   C11   S    
C22   H16   S    
C2    C20   A    
C5    H6    S    
C8    N1    A    
C12   C16   S    
C11   C13   S    
C6    H9    S    
C20   H1    S    
C13   H3    S    
C18   C19   A    
C12   O4    A    
C15   C17   S    
C1    O2    A    
C23   H12   S    
C4    C5    S    
O6    Zn2   S    
C7    N1    A    
C14   O6    A    
C5    H7    S    
C21   H18   S    
C6    H8    S    
C3    C4    A    
C8    C21   S    
C13   H4    S    
C8    C9    A    
