data_mof_unit_54623.cif
_audit_creation_date              2012-12-10T20:27:14-0500
_audit_creation_method            fapswitch 2.2
_symmetry_space_group_name_H-M    P1
_symmetry_Int_Tables_number       1
_space_group_crystal_system       triclinic
_cell_length_a                    10.883366
_cell_length_b                    10.686194
_cell_length_c                    9.948589
_cell_angle_alpha                 89.124444
_cell_angle_beta                  104.112138
_cell_angle_gamma                 92.573551
_cell_volume                      1120.97646481

loop_
_atom_site_label
_atom_site_type_symbol
_atom_type_description
_atom_site_fract_x
_atom_site_fract_y
_atom_site_fract_z
_atom_type_partial_charge
C1    C     C_R   0.507109 0.260182 0.503131 0.901178
C2    C     C_R   0.583862 0.576039 0.093091 0.009280
C3    C     C_R   0.590520 0.567248 0.950746 -0.038383
C4    C     C_R   0.260054 0.503602 0.441895 0.976992
C5    C     C_R   0.396867 0.454103 0.901554 0.106609
C6    C     C_3   0.335002 0.327621 0.873606 -0.330769
C7    C     C_3   0.343477 0.315640 0.030092 -0.170356
C8    C     C_R   0.506154 0.739928 0.500902 0.908672
C9    C     C_R   0.741092 0.505954 0.557972 0.862613
C10   C     C_2   0.125182 0.516817 0.408730 -0.238462
C11   C     C_2   0.072398 0.552006 0.509074 -0.193848
C12   C     C_R   0.534735 0.129821 0.513878 -0.072436
C13   C     C_2   0.877867 0.531591 0.591329 -0.351717
C14   C     C_2   0.936237 0.546093 0.486072 0.649488
C15   C     C_R   0.531150 0.061156 0.633380 0.015870
C16   C     C_2   0.655951 0.679354 0.180631 0.572753
C17   C     C_2   0.697254 0.629904 0.904993 0.541458
C18   C     C_2   0.204144 0.332723 0.779694 0.481285
C19   C     C_2   0.217788 0.300212 0.069951 0.462254
C20   C     C_2   0.436118 0.218624 0.094522 0.372369
C21   C     C_2   0.943851 0.545117 0.740237 0.338402
C22   C     C_R   0.570514 0.069742 0.405609 -0.121907
C23   C     C_R   0.565732 0.939670 0.401081 -0.148333
C24   C     C_R   0.531220 0.871884 0.508747 -0.070765
C25   C     C_R   0.528770 0.933441 0.629940 -0.020260
C26   C     C_3   0.439606 0.918365 0.722007 0.539266
C27   C     C_3   0.443065 0.059746 0.727541 -0.475985
C28   C     C_R   0.400224 0.447482 0.043769 0.175460
F1    F     F_    0.870394 0.539361 0.350773 -0.656928
F2    F     F_    0.321684 0.868574 0.653174 -0.606841
H1    H     H_    0.492347 0.093985 0.832514 0.170390
H2    H     H_    0.681736 0.679541 0.807513 0.081635
H3    H     H_    0.136491 0.394699 0.803101 0.080973
H4    H     H_    0.171474 0.207910 0.067440 0.122583
H5    H     H_    0.536442 0.244410 0.128122 0.085920
H6    H     H_    0.916336 0.482983 0.816120 0.144739
H7    H     H_    0.397076 0.267267 0.833997 0.189769
H8    H     H_    0.130876 0.575317 0.610863 0.207075
H9    H     H_    0.069619 0.494596 0.304841 0.249551
H10   H     H_    0.594060 0.121934 0.321215 0.177229
H11   H     H_    0.580971 0.893678 0.310881 0.195817
H12   H     H_    0.481509 0.872072 0.822581 0.096423
H13   H     H_    0.350522 0.100452 0.678631 0.268166
H14   H     H_    0.681215 0.673809 0.291363 0.137339
N1    N     N_R   0.499160 0.499140 0.142600 -0.186294
N2    N     N_R   0.499160 0.499180 0.856960 -0.166752
O1    O     O_R   0.500020 0.316790 0.614700 -0.611724
O2    O     O_2   0.805176 0.626895 0.977601 -0.506514
O3    O     O_2   0.173422 0.267186 0.676571 -0.566395
O4    O     O_2   0.165232 0.390213 0.100788 -0.565232
O5    O     O_2   0.400828 0.108967 0.100089 -0.565237
O6    O     O_2   0.022891 0.629712 0.780403 -0.500958
O7    O     O_R   0.500000 0.316760 0.385350 -0.633622
O8    O     O_R   0.317820 0.500020 0.571850 -0.598526
O9    O     O_R   0.317800 0.499980 0.342510 -0.560324
O10   O     O_R   0.500000 0.683240 0.614650 -0.632313
O11   O     O_R   0.499980 0.683210 0.385300 -0.660420
O12   O     O_R   0.682200 0.500020 0.657490 -0.662640
O13   O     O_R   0.682180 0.499980 0.428150 -0.576497
O14   O     O_2   0.683668 0.777586 0.128620 -0.594302
Zn1   Zn    Zn3+2 0.500010 0.500020 0.653140 0.967253
Zn2   Zn    Zn3+2 0.499990 0.499980 0.346860 0.995928

loop_
_geom_bond_atom_site_label_1
_geom_bond_atom_site_label_2
_ccdc_geom_bond_type
O1    Zn1   S    
C11   H8    S    
C23   C24   A    
C17   O2    D    
C26   F2    S    
C6    C7    S    
O8    Zn1   S    
C12   C22   A    
C8    O11   A    
C5    C28   A    
C2    C16   S    
C5    N2    A    
C16   H14   S    
C3    N2    A    
C15   C27   S    
C23   H11   S    
C12   C15   A    
C22   H10   S    
C8    O10   A    
O12   Zn1   S    
C2    C3    A    
C6    H7    S    
C13   C21   S    
O11   Zn2   S    
C4    O9    A    
C21   H6    S    
C13   C14   D    
C19   O4    D    
C26   C27   S    
C1    C12   S    
C8    C24   S    
C3    C17   S    
C20   O5    D    
C7    C19   S    
C2    N1    A    
C16   O14   D    
C5    C6    S    
C6    C18   S    
C11   C14   S    
C28   N1    A    
C15   C25   A    
C18   H3    S    
N2    Zn1   S    
C4    C10   S    
O9    Zn2   S    
C27   H13   S    
N1    Zn2   S    
C24   C25   A    
C26   H12   S    
O7    Zn2   S    
C9    O12   A    
C10   C11   D    
C17   H2    S    
C1    O7    A    
C22   C23   A    
C1    O1    A    
O13   Zn2   S    
C9    C13   S    
C14   F1    S    
C4    O8    A    
C25   C26   S    
O10   Zn1   S    
C20   H5    S    
C27   H1    S    
C7    C20   S    
C21   O6    D    
C7    C28   S    
C18   O3    D    
C10   H9    S    
C9    O13   A    
C19   H4    S    
