data_mof_unit_62918.cif
_audit_creation_date              2013-03-05T16:26:21-0500
_audit_creation_method            fapswitch 2.2
_symmetry_space_group_name_H-M    P1
_symmetry_Int_Tables_number       1
_space_group_crystal_system       triclinic
_cell_length_a                    30.677109
_cell_length_b                    30.580272
_cell_length_c                    22.288277
_cell_angle_alpha                 89.85635
_cell_angle_beta                  45.961358
_cell_angle_gamma                 89.964874
_cell_volume                      15030.7764708

loop_
_atom_site_label
_atom_site_type_symbol
_atom_site_description
_atom_site_fract_x
_atom_site_fract_y
_atom_site_fract_z
_atom_type_partial_charge
O1    O     O_R   0.178350 0.230070 0.500010 -0.622820
O2    O     O_R   0.821650 0.230070 0.499990 -0.621744
O3    O     O_R   0.678350 0.730070 0.500010 -0.619396
O4    O     O_R   0.321650 0.730070 0.499990 -0.621242
O5    O     O_R   0.230030 0.178320 0.500020 -0.596656
O6    O     O_R   0.769970 0.178320 0.499980 -0.596178
O7    O     O_R   0.730030 0.678320 0.500020 -0.597790
O8    O     O_R   0.269970 0.678320 0.499980 -0.596218
C1    C     C_R   0.190697 0.189986 0.498958 0.955846
C2    C     C_R   0.809388 0.189992 0.500859 0.955661
C3    C     C_R   0.690585 0.690133 0.499272 0.955993
C4    C     C_R   0.309383 0.689993 0.500868 0.956587
O9    O     O_R   0.285150 0.275890 0.378020 -0.582191
O10   O     O_R   0.714850 0.275890 0.621980 -0.594932
O11   O     O_R   0.785150 0.775890 0.378020 -0.593957
O12   O     O_R   0.214850 0.775890 0.621980 -0.598718
O13   O     O_R   0.336840 0.224130 0.378040 -0.607721
O14   O     O_R   0.663160 0.224130 0.621960 -0.601741
O15   O     O_R   0.836840 0.724130 0.378040 -0.602478
O16   O     O_R   0.163160 0.724130 0.621960 -0.601659
C5    C     C_R   0.330918 0.250247 0.338926 0.964019
C6    C     C_R   0.669072 0.250149 0.661061 0.956147
C7    C     C_R   0.830909 0.750233 0.338925 0.956318
C8    C     C_R   0.169080 0.750138 0.661061 0.956249
Zn1   Zn    Zn3+2 0.215490 0.284560 0.500000 1.064954
Zn2   Zn    Zn3+2 0.784510 0.284560 0.500000 1.078279
Zn3   Zn    Zn3+2 0.715490 0.784560 0.500000 1.082187
Zn4   Zn    Zn3+2 0.284510 0.784560 0.500000 1.076733
Zn5   Zn    Zn3+2 0.284510 0.215440 0.500020 1.099601
Zn6   Zn    Zn3+2 0.715490 0.215440 0.499980 1.097458
Zn7   Zn    Zn3+2 0.784510 0.715440 0.500020 1.092657
Zn8   Zn    Zn3+2 0.215490 0.715440 0.499980 1.095677
O17   O     O_R   0.269970 0.321680 0.499990 -0.594963
O18   O     O_R   0.730030 0.321680 0.500010 -0.578594
O19   O     O_R   0.769970 0.821680 0.499990 -0.577738
O20   O     O_R   0.230030 0.821680 0.500010 -0.580648
O21   O     O_R   0.321650 0.269930 0.500010 -0.585111
O22   O     O_R   0.678350 0.269930 0.499990 -0.592057
O23   O     O_R   0.821650 0.769930 0.500010 -0.594150
O24   O     O_R   0.178350 0.769930 0.499990 -0.594228
O25   O     O_R   0.163160 0.275870 0.621980 -0.625430
O26   O     O_R   0.836840 0.275870 0.378020 -0.619421
O27   O     O_R   0.663160 0.775870 0.621980 -0.618483
O28   O     O_R   0.336840 0.775870 0.378020 -0.617886
O29   O     O_R   0.214850 0.224110 0.621990 -0.594063
O30   O     O_R   0.785150 0.224110 0.378010 -0.593603
O31   O     O_R   0.714850 0.724110 0.621990 -0.594980
O32   O     O_R   0.285150 0.724110 0.378010 -0.595573
C9    C     C_R   0.309428 0.310034 0.501064 0.927870
C10   C     C_R   0.690883 0.309924 0.498340 0.918176
C11   C     C_R   0.809149 0.809921 0.501607 0.916490
C12   C     C_R   0.191042 0.809939 0.497949 0.915133
C13   C     C_R   0.169366 0.250041 0.661091 0.906202
C14   C     C_R   0.830646 0.250132 0.338926 0.898131
C15   C     C_R   0.669398 0.750069 0.661088 0.897724
C16   C     C_R   0.330654 0.750125 0.338923 0.900781
H1    H     H_    0.459835 0.179274 0.077505 0.181622
H2    H     H_    0.536339 0.179174 0.923704 0.180368
H3    H     H_    0.949040 0.680211 0.077798 0.184652
H4    H     H_    0.025593 0.680107 0.923986 0.176480
C17   C     C_R   0.520474 0.209998 0.956859 -0.126135
C18   C     C_R   0.477239 0.210054 0.043829 -0.130683
C19   C     C_R   0.014437 0.710475 0.957017 -0.132652
C20   C     C_R   0.971172 0.710530 0.043991 -0.124069
C21   C     C_R   0.542960 0.249689 0.913249 0.140540
C22   C     C_R   0.456756 0.249800 0.086772 0.133749
C23   C     C_R   0.043010 0.749584 0.913245 0.143377
C24   C     C_R   0.956744 0.749685 0.086767 0.139479
C25   C     C_R   0.522443 0.289424 0.956212 -0.168828
C26   C     C_R   0.479259 0.289479 0.043151 -0.153983
C27   C     C_R   0.028551 0.788725 0.956048 -0.162248
C28   C     C_R   0.985337 0.788775 0.042981 -0.166905
H5    H     H_    0.539813 0.320213 0.922568 0.153544
H6    H     H_    0.463445 0.320309 0.076283 0.168445
H7    H     H_    0.050634 0.819059 0.922281 0.151119
H8    H     H_    0.974220 0.819149 0.075981 0.150096
C29   C     C_1   0.587241 0.249698 0.824330 -0.016216
C30   C     C_1   0.412538 0.249907 0.175680 -0.005541
C31   C     C_1   0.087279 0.749610 0.824328 -0.017376
C32   C     C_1   0.912501 0.749809 0.175676 -0.015625
C33   C     C_1   0.375303 0.250072 0.250356 -0.039136
C34   C     C_1   0.624556 0.249862 0.749645 -0.060375
C35   C     C_1   0.875271 0.750013 0.250352 -0.057218
C36   C     C_1   0.124584 0.749811 0.749643 -0.062309
C37   C     C_R   0.108564 0.138384 0.571541 0.061161
C38   C     C_R   0.891427 0.138500 0.428211 0.063083
C39   C     C_R   0.605248 0.642042 0.569097 0.054366
C40   C     C_R   0.391566 0.638626 0.428184 0.063387
C41   C     C_R   0.160080 0.156474 0.496276 -0.209119
C42   C     C_R   0.840030 0.156473 0.503480 -0.210083
C43   C     C_R   0.660055 0.657461 0.495635 -0.201834
C44   C     C_R   0.340035 0.656478 0.503479 -0.210537
C45   C     C_R   0.185644 0.137456 0.420123 0.357003
C46   C     C_R   0.814530 0.137318 0.579655 0.354750
C47   C     C_R   0.684105 0.639824 0.419085 0.355532
C48   C     C_R   0.314451 0.637220 0.579621 0.354612
C49   C     C_R   0.153404 0.104454 0.421827 -0.264499
C50   C     C_R   0.846754 0.104292 0.577945 -0.261894
C51   C     C_R   0.650965 0.607354 0.420687 -0.267861
C52   C     C_R   0.346685 0.604200 0.577903 -0.265446
H9    H     H_    0.171039 0.090910 0.363671 0.220504
H10   H     H_    0.829163 0.090643 0.636129 0.221443
H11   H     H_    0.668763 0.593753 0.362480 0.222156
H12   H     H_    0.329020 0.590468 0.636076 0.220595
C53   C     C_R   0.096813 0.090829 0.498229 -0.182116
C54   C     C_R   0.903278 0.090795 0.501515 -0.182035
C55   C     C_R   0.594862 0.592710 0.497440 -0.178887
C56   C     C_R   0.403302 0.590811 0.501496 -0.181749
C57   C     C_R   0.076996 0.106108 0.572627 0.157809
C58   C     C_R   0.923005 0.106194 0.427115 0.159710
C59   C     C_R   0.574027 0.611000 0.570132 0.147150
C60   C     C_R   0.423151 0.606324 0.427082 0.164417
C61   C     C_3   0.017056 0.124752 0.647745 -0.420311
C62   C     C_3   0.982939 0.124949 0.351812 -0.422420
C63   C     C_3   0.523394 0.611113 0.662873 -0.410521
C64   C     C_3   0.483084 0.625202 0.352024 -0.422111
C65   C     C_3   0.052061 0.160407 0.646566 -0.503768
C66   C     C_3   0.947927 0.160637 0.352996 -0.504849
C67   C     C_3   0.559505 0.646818 0.661471 -0.499824
C68   C     C_3   0.448066 0.660887 0.353215 -0.502866
H13   H     H_    0.990536 0.136993 0.634106 0.203038
H14   H     H_    0.009582 0.137128 0.365239 0.203023
H15   H     H_    0.480261 0.623095 0.684255 0.206824
H16   H     H_    0.509566 0.637359 0.365726 0.203072
H17   H     H_    0.991822 0.102738 0.702853 0.212044
H18   H     H_    0.008049 0.103036 0.296817 0.211948
H19   H     H_    0.520154 0.579799 0.691220 0.207918
H20   H     H_    0.508360 0.603380 0.296882 0.213903
H21   H     H_    0.045877 0.193416 0.632346 0.217570
H22   H     H_    0.954230 0.193608 0.367001 0.217755
H23   H     H_    0.537266 0.679410 0.681980 0.210599
H24   H     H_    0.454204 0.693835 0.367499 0.217939
H25   H     H_    0.047136 0.158925 0.700880 0.210087
H26   H     H_    0.952721 0.159277 0.298799 0.209635
H27   H     H_    0.577265 0.636145 0.688825 0.213702
H28   H     H_    0.453023 0.659615 0.298873 0.211712
H29   H     H_    0.108814 0.240648 0.921674 0.171093
H30   H     H_    0.891482 0.261277 0.078348 0.177707
H31   H     H_    0.607848 0.766486 0.921501 0.179967
H32   H     H_    0.392357 0.735423 0.078461 0.169377
C69   C     C_R   0.018051 0.245243 0.042663 -0.177715
C70   C     C_R   0.982254 0.256722 0.957354 -0.175845
C71   C     C_R   0.517460 0.759767 0.042568 -0.172554
C72   C     C_R   0.482728 0.742175 0.957418 -0.176825
H33   H     H_    0.032090 0.240740 0.075424 0.151699
H34   H     H_    0.968200 0.261135 0.924596 0.155163
H35   H     H_    0.531103 0.766546 0.075267 0.157149
H36   H     H_    0.469099 0.735313 0.924723 0.151261
C73   C     C_R   0.956857 0.251024 0.086768 0.145469
C74   C     C_R   0.043439 0.250876 0.913248 0.145787
C75   C     C_R   0.456793 0.750993 0.086753 0.145861
C76   C     C_R   0.543405 0.750890 0.913231 0.144284
C77   C     C_R   0.938867 0.256803 0.044307 -0.126201
C78   C     C_R   0.061439 0.245180 0.955711 -0.131450
C79   C     C_R   0.439327 0.742236 0.044366 -0.131745
C80   C     C_R   0.560864 0.759725 0.955608 -0.125039
C81   C     C_1   0.912440 0.250810 0.175681 -0.029599
C82   C     C_1   0.087785 0.250600 0.824336 -0.032857
C83   C     C_1   0.412432 0.750791 0.175670 -0.029911
C84   C     C_1   0.587816 0.750634 0.824322 -0.028373
C85   C     C_1   0.125072 0.250336 0.749654 -0.107930
C86   C     C_1   0.875067 0.250533 0.250365 -0.107789
C87   C     C_1   0.625121 0.750374 0.749643 -0.107009
C88   C     C_1   0.375080 0.750521 0.250356 -0.106809
C89   C     C_R   0.359980 0.380060 0.458477 0.086211
C90   C     C_R   0.616385 0.367378 0.565593 -0.056745
C91   C     C_R   0.883939 0.867337 0.434298 -0.060090
C92   C     C_R   0.120959 0.870419 0.561931 -0.063652
C93   C     C_R   0.338536 0.343057 0.507993 -0.308349
C94   C     C_R   0.658720 0.341915 0.495516 -0.197014
C95   C     C_R   0.841241 0.841894 0.504551 -0.192464
C96   C     C_R   0.158683 0.841949 0.495314 -0.185046
C97   C     C_R   0.344112 0.338801 0.565357 0.205474
C98   C     C_R   0.660724 0.341403 0.430411 0.196607
C99   C     C_R   0.838686 0.841438 0.570167 0.211245
C100  C     C_R   0.155590 0.838945 0.435206 0.205933
C101  C     C_R   0.379133 0.369492 0.563899 0.343398
C102  C     C_R   0.623858 0.370560 0.432919 0.351502
C103  C     C_R   0.875281 0.870704 0.568005 0.277018
C104  C     C_R   0.119354 0.868778 0.437594 0.237888
C105  C     C_R   0.407042 0.404234 0.504443 -0.264213
C106  C     C_R   0.588583 0.401501 0.499140 -0.209643
C107  C     C_R   0.911100 0.901560 0.501323 -0.217083
C108  C     C_R   0.088640 0.901978 0.499635 -0.214488
C109  C     C_R   0.394271 0.410018 0.456103 0.010320
C110  C     C_R   0.581969 0.396743 0.567247 0.072198
C111  C     C_R   0.918219 0.896719 0.432825 0.095377
C112  C     C_R   0.086205 0.899777 0.564271 0.080826
C113  C     C_3   0.436331 0.417147 0.364022 -0.479926
C114  C     C_3   0.583354 0.430031 0.614938 -0.499272
C115  C     C_3   0.917433 0.929946 0.384239 -0.490367
C116  C     C_3   0.093871 0.934887 0.602910 -0.498164
C117  C     C_3   0.398406 0.383616 0.366652 0.127579
C118  C     C_3   0.622252 0.397627 0.612555 0.153780
C119  C     C_3   0.878699 0.897512 0.386408 0.146088
C120  C     C_3   0.133288 0.902506 0.599475 0.159707
H37   H     H_    0.433369 0.451004 0.348808 0.235924
H38   H     H_    0.606904 0.460719 0.578926 0.221008
H39   H     H_    0.893907 0.960653 0.419741 0.219909
H40   H     H_    0.118249 0.964063 0.561863 0.219674
H41   H     H_    0.483190 0.405660 0.328662 0.191533
H42   H     H_    0.537822 0.434871 0.678784 0.192987
H43   H     H_    0.963169 0.934755 0.320557 0.199139
H44   H     H_    0.050538 0.942269 0.667677 0.196697
H45   H     H_    0.423107 0.352950 0.331930 0.096442
H46   H     H_    0.600214 0.384695 0.674957 0.108364
H47   H     H_    0.901052 0.884522 0.324024 0.109987
H48   H     H_    0.113946 0.892187 0.661908 0.109464
O33   O     O_R   0.580260 0.454160 0.431100 -0.563916
O34   O     O_R   0.419740 0.454160 0.568900 -0.567338
O35   O     O_R   0.080260 0.954160 0.431100 -0.559855
O36   O     O_R   0.919740 0.954160 0.568900 -0.556851
O37   O     O_R   0.511410 0.454120 0.568820 -0.614654
O38   O     O_R   0.488590 0.454120 0.431180 -0.619166
O39   O     O_R   0.011410 0.954120 0.568820 -0.588175
O40   O     O_R   0.988590 0.954120 0.431180 -0.593841
C121  C     C_R   0.558911 0.438142 0.499527 1.004953
C122  C     C_R   0.441064 0.438114 0.500842 1.032685
C123  C     C_R   0.058983 0.938316 0.499611 0.986455
C124  C     C_R   0.940998 0.938141 0.500638 0.985456
O41   O     O_R   0.080260 0.045800 0.431140 -0.627206
O42   O     O_R   0.919740 0.045800 0.568860 -0.625866
O43   O     O_R   0.580260 0.545800 0.431140 -0.625590
O44   O     O_R   0.419740 0.545800 0.568860 -0.625917
O45   O     O_R   0.011410 0.045760 0.568860 -0.632964
O46   O     O_R   0.988590 0.045760 0.431140 -0.632957
O47   O     O_R   0.511410 0.545760 0.568860 -0.634761
O48   O     O_R   0.488590 0.545760 0.431140 -0.629831
C125  C     C_R   0.060729 0.060092 0.499598 0.885150
C126  C     C_R   0.939328 0.060085 0.500274 0.887418
C127  C     C_R   0.560598 0.560062 0.499518 0.900336
C128  C     C_R   0.439336 0.560092 0.500272 0.898610
Zn9   Zn    Zn3+2 0.045990 0.000000 0.408050 1.068633
Zn10  Zn    Zn3+2 0.954010 0.000000 0.591950 1.074964
Zn11  Zn    Zn3+2 0.545990 0.500000 0.408050 1.052164
Zn12  Zn    Zn3+2 0.454010 0.500000 0.591950 1.032285
N1    N     N_R   0.314244 0.303471 0.624224 0.255360
O49   O     O_R   0.256567 0.306124 0.690974 -0.368367
O50   O     O_R   0.342112 0.266368 0.604929 -0.303533
N2    N     N_R   0.704350 0.314497 0.358595 0.230646
O51   O     O_R   0.751928 0.332258 0.288524 -0.329848
O52   O     O_R   0.695134 0.272678 0.361831 -0.321779
N3    N     N_R   0.794865 0.814401 0.642002 0.230312
O53   O     O_R   0.746749 0.831952 0.711558 -0.329066
O54   O     O_R   0.804180 0.772630 0.639158 -0.328592
N4    N     N_R   0.193613 0.808460 0.367897 0.233810
O55   O     O_R   0.246772 0.820659 0.297999 -0.376701
O56   O     O_R   0.176139 0.768164 0.377370 -0.312791
S1    S     S_3+6 0.390366 0.363155 0.632195 0.094006
O57   O     O_2   0.372399 0.318620 0.671770 -0.201994
O58   O     O_2   0.456085 0.370312 0.583920 -0.303688
O59   O     O_3   0.348298 0.400673 0.708440 -0.520477
H49   H     H_    0.363963 0.400849 0.735106 0.375414
S2    S     S_3+6 0.621417 0.366934 0.355399 0.103649
O60   O     O_2   0.662764 0.401021 0.289408 -0.255076
O61   O     O_2   0.641166 0.322586 0.315220 -0.212392
O62   O     O_3   0.550323 0.375399 0.399169 -0.548908
H50   H     H_    0.552510 0.372349 0.352896 0.370449
S3    S     S_3+6 0.876602 0.867409 0.646681 0.112028
O63   O     O_2   0.835500 0.901880 0.711349 -0.210292
O64   O     O_2   0.855611 0.823467 0.688957 -0.214109
O65   O     O_3   0.947307 0.875752 0.604515 -0.539492
H51   H     H_    0.970131 0.849258 0.570906 0.364772
S4    S     S_3+6 0.113604 0.864455 0.363411 0.092355
O66   O     O_2   0.129879 0.819551 0.325949 -0.201800
O67   O     O_2   0.049807 0.873996 0.405064 -0.298732
O68   O     O_3   0.160458 0.901052 0.286416 -0.493361
H52   H     H_    0.201129 0.894061 0.263723 0.372698
N5    N     N_R   0.365123 0.402123 0.347663 0.247528
O69   O     O_R   0.367676 0.382984 0.293241 -0.382687
O70   O     O_R   0.331358 0.436698 0.386365 -0.343543
N6    N     N_R   0.684324 0.413214 0.562891 0.249502
O71   O     O_R   0.707745 0.411425 0.593977 -0.360113
O72   O     O_R   0.716610 0.428763 0.487887 -0.346913
N7    N     N_R   0.816791 0.913096 0.435217 0.249778
O73   O     O_R   0.793835 0.911216 0.403504 -0.359292
O74   O     O_R   0.784186 0.928720 0.510089 -0.345383
N8    N     N_R   0.196935 0.916080 0.542017 0.251428
O75   O     O_R   0.224507 0.915950 0.567212 -0.358218
O76   O     O_R   0.226483 0.928286 0.465944 -0.349096
S5    S     S_3+6 0.254721 0.156344 0.322779 0.029647
O77   O     O_2   0.304760 0.149967 0.319793 -0.260392
O78   O     O_2   0.270143 0.131754 0.251745 -0.274962
O79   O     O_3   0.248784 0.209881 0.312320 -0.552578
H53   H     H_    0.212950 0.212129 0.319991 0.353591
S6    S     S_3+6 0.745564 0.156060 0.677009 0.032597
O80   O     O_2   0.695393 0.149686 0.680278 -0.257848
O81   O     O_2   0.730257 0.131358 0.748070 -0.272294
O82   O     O_3   0.751619 0.209582 0.687133 -0.551370
H54   H     H_    0.787629 0.211860 0.679049 0.352749
S7    S     S_3+6 0.753798 0.658080 0.321891 0.030176
O83   O     O_2   0.803399 0.650863 0.319564 -0.259870
O84   O     O_2   0.769047 0.633677 0.250824 -0.276025
O85   O     O_3   0.749081 0.711771 0.310865 -0.551819
H55   H     H_    0.713887 0.714509 0.317183 0.354397
S8    S     S_3+6 0.245380 0.655850 0.676973 0.031970
O86   O     O_2   0.195321 0.649509 0.680002 -0.259662
O87   O     O_2   0.229983 0.631044 0.748010 -0.273799
O88   O     O_3   0.251318 0.709350 0.687385 -0.550654
H56   H     H_    0.287230 0.711607 0.679531 0.353113

loop_
_geom_bond_atom_site_label_1
_geom_bond_atom_site_label_2
_geom_bond_distance
_ccdc_geom_bond_type
C99   N3    1.434061 S    
C51   H11   1.082523 S    
C39   C43   1.378343 A    
C70   H34   1.083627 S    
S7    O83   1.502208 D    
C65   H25   1.111660 S    
S5    O79   1.680680 S    
O46   Zn9   2.016034 S    
C6    C34   1.419334 S    
O79   H53   0.990458 S    
C38   C58   1.371514 A    
C55   C127  1.427284 S    
C104  S4    1.785753 S    
C47   C51   1.404022 A    
C69   C78   1.393292 A    
C52   H12   1.082504 S    
Zn6   O22   2.017935 S    
C73   C77   1.398771 A    
S2    O61   1.502989 D    
O38   Zn11  2.017976 S    
N6    O71   1.300427 A    
C26   H6    1.083690 S    
C75   C79   1.398760 A    
O4    C4    1.278356 A    
C64   H16   1.112352 S    
O5    Zn5   2.020910 S    
C69   H33   1.083641 S    
C49   C53   1.405180 A    
H2    C17   1.083663 S    
C71   C75   1.398805 A    
O40   Zn9   2.017976 S    
C115  H43   1.111435 S    
C32   C35   1.196629 T    
C19   C23   1.398904 A    
C89   C93   1.384368 A    
C63   H15   1.111665 S    
C84   C87   1.196659 T    
C23   C31   1.424795 S    
C38   C42   1.388745 A    
Zn1   O25   1.992039 S    
C91   C95   1.384395 A    
O36   C124  1.266469 A    
Zn3   O19   2.020778 S    
C50   H10   1.082504 S    
Zn4   O28   1.993597 S    
O13   C5    1.283506 A    
C54   C126  1.436007 S    
Zn5   O29   1.988326 S    
C110  C114  1.495381 S    
O15   C7    1.283430 A    
O33   Zn11  2.019830 S    
O11   Zn3   1.988462 S    
C24   C28   1.398611 A    
C116  H44   1.111434 S    
O9    C5    1.283224 A    
O2    Zn2   2.017935 S    
O10   Zn2   1.986992 S    
C37   C65   1.492895 S    
C102  C106  1.424747 A    
S8    O86   1.502171 D    
O6    Zn6   2.019759 S    
N5    O70   1.302280 A    
O19   C11   1.278597 A    
C94   C98   1.409147 A    
C113  H37   1.111812 S    
O42   Zn10  2.019524 S    
O37   C121  1.273352 A    
S6    O82   1.680698 S    
C90   C110  1.366491 A    
C91   C119  1.500039 S    
S3    O64   1.503121 D    
O36   Zn10  2.022509 S    
C16   C88   1.419095 S    
C50   C54   1.405333 A    
O33   C121  1.266039 A    
C15   C87   1.418981 S    
S6    O81   1.503354 D    
C22   C26   1.398638 A    
C29   C34   1.196709 T    
C116  H40   1.112574 S    
C25   C26   1.393140 A    
O3    C3    1.274232 A    
C17   C21   1.398861 A    
C81   C86   1.196670 T    
C107  C111  1.392109 A    
C104  C108  1.423067 A    
O59   H49   0.990604 S    
O47   C127  1.269625 A    
C117  N5    1.463165 S    
C12   C96   1.423621 S    
O5    C1    1.273936 A    
S1    O57   1.501841 D    
O45   Zn10  2.015744 S    
C20   C24   1.398916 A    
S7    O84   1.503340 D    
C31   C36   1.196698 T    
C62   H18   1.111583 S    
C97   N1    1.432113 S    
C44   C48   1.409493 A    
O62   H50   0.990543 S    
S8    O88   1.680697 S    
S4    O66   1.502463 D    
C67   H23   1.111600 S    
C47   S7    1.769679 S    
C65   H21   1.112279 S    
C58   C62   1.494171 S    
C66   H26   1.111659 S    
O29   C13   1.283233 A    
N1    O49   1.300505 A    
C52   C56   1.405301 A    
C117  H45   1.113565 S    
C18   C22   1.398910 A    
C76   C80   1.398808 A    
Zn4   O20   2.019631 S    
O38   C122  1.275072 A    
C103  S3    1.784542 S    
C114  H42   1.111438 S    
S2    O62   1.678652 S    
O46   C126  1.270873 A    
O35   Zn9   2.019830 S    
C75   C83   1.424755 S    
C120  H48   1.112701 S    
C39   C67   1.487939 S    
C3    C43   1.410323 S    
C83   C88   1.196721 T    
O8    C4    1.274179 A    
O82   H54   0.990448 S    
O25   C13   1.283415 A    
C61   C65   1.518108 S    
O27   C15   1.283428 A    
C90   C94   1.384630 A    
C63   C67   1.540631 S    
C119  N7    1.465082 S    
C118  N6    1.465085 S    
O41   C125  1.268898 A    
C45   C49   1.395333 A    
C60   C64   1.494169 S    
Zn2   O26   1.993597 S    
C56   C128  1.435992 S    
C53   C57   1.392673 A    
N4    O55   1.300508 A    
S1    O59   1.681837 S    
O41   Zn9   2.022210 S    
O14   C6    1.284096 A    
C55   C59   1.382291 A    
Zn6   O30   1.986857 S    
C90   C118  1.500219 S    
O18   C10   1.278906 A    
O68   H52   0.990489 S    
C109  C113  1.496973 S    
O65   H51   0.990415 S    
C102  S2    1.784379 S    
S5    O78   1.503355 D    
O35   C123  1.266291 A    
O20   C12   1.280037 A    
C112  C116  1.495397 S    
O10   C6    1.283652 A    
O3    Zn3   2.019090 S    
C27   C28   1.393043 A    
C72   C76   1.398717 A    
S4    O68   1.681200 S    
C101  C105  1.426368 A    
C48   C52   1.394697 A    
N2    O51   1.300764 A    
C41   C45   1.409934 A    
C17   C18   1.393630 A    
C115  C119  1.522942 S    
C43   C47   1.414324 A    
C19   C20   1.393686 A    
C113  C117  1.521414 S    
C100  C104  1.409825 A    
C61   H13   1.112351 S    
O42   C126  1.268305 A    
C106  C121  1.439448 S    
N6    O72   1.302427 A    
C93   C97   1.408562 A    
N8    O75   1.300429 A    
C96   C100  1.410523 A    
Zn1   O17   2.020778 S    
O12   Zn4   1.986992 S    
C92   C112  1.366436 A    
O13   Zn5   1.992042 S    
O23   C11   1.274579 A    
N7    O73   1.300427 A    
O15   Zn7   1.992042 S    
O47   Zn12  2.015744 S    
C7    C35   1.419235 S    
C116  C120  1.522756 S    
C37   C57   1.371538 A    
O16   Zn8   1.993597 S    
O85   H55   0.990482 S    
C64   C68   1.518104 S    
C39   C59   1.337632 A    
C46   C50   1.394707 A    
O17   C9    1.277622 A    
N3    O53   1.300759 A    
C106  C110  1.391886 A    
O48   Zn11  2.016034 S    
C82   C85   1.196712 T    
C25   H5    1.083643 S    
O34   Zn12  2.022509 S    
C40   C68   1.492933 S    
C98   C102  1.410061 A    
C72   H36   1.083655 S    
S8    O87   1.503352 D    
C74   C78   1.398778 A    
Zn7   O31   1.988326 S    
N5    O69   1.300539 A    
Zn8   O32   1.986857 S    
O39   Zn10  2.018272 S    
O43   C127  1.265580 A    
C42   C46   1.409493 A    
C22   C30   1.424689 S    
O40   C124  1.273468 A    
C21   C29   1.424815 S    
C1    C41   1.419698 S    
C37   C41   1.388624 A    
C67   H27   1.111593 S    
C56   C60   1.392475 A    
C68   H28   1.111649 S    
C53   C125  1.436646 S    
C71   H35   1.083621 S    
O88   H56   0.990442 S    
S2    O60   1.502984 D    
C66   H22   1.112282 S    
C98   N2    1.434282 S    
O21   C9    1.277688 A    
O28   C16   1.284019 A    
C101  S1    1.789160 S    
O30   C14   1.283577 A    
O1    C1    1.278182 A    
C10   C94   1.421057 S    
H30   C77   1.083681 S    
O48   C128  1.270847 A    
C114  H38   1.112522 S    
C74   C82   1.424740 S    
O6    C2    1.274160 A    
C100  N4    1.432865 S    
C51   C55   1.411699 A    
C70   C74   1.398776 A    
O44   Zn12  2.019524 S    
O26   C14   1.283997 A    
C9    C93   1.426410 S    
C30   C33   1.196614 T    
C21   C25   1.398753 A    
H29   C78   1.083651 S    
C23   C27   1.398683 A    
O45   C125  1.270629 A    
C120  N8    1.465138 S    
H32   C79   1.083655 S    
C40   C60   1.371524 A    
Zn3   O27   1.992039 S    
C92   C96   1.384962 A    
C4    C44   1.418652 S    
C119  H47   1.112735 S    
C2    C42   1.418667 S    
S4    O67   1.500631 D    
Zn5   O21   2.019087 S    
C73   C81   1.424679 S    
C24   C32   1.424681 S    
C76   C84   1.424666 S    
C107  C124  1.440321 S    
C28   H8    1.083653 S    
S3    O65   1.678820 S    
C45   S5    1.770478 S    
C69   C73   1.398754 A    
H1    C18   1.083670 S    
C46   S6    1.770650 S    
O7    C3    1.273766 A    
H3    C20   1.083689 S    
H4    C19   1.083629 S    
N7    O74   1.302431 A    
C115  H39   1.112520 S    
O39   C123  1.271206 A    
O44   C128  1.268327 A    
S6    O80   1.502169 D    
C61   H17   1.111599 S    
C63   H19   1.111668 S    
Zn2   O18   2.019631 S    
C108  C123  1.435951 S    
C40   C44   1.388730 A    
N3    O54   1.300822 A    
O14   Zn6   1.993597 S    
O37   Zn12  2.018272 S    
C111  C115  1.495495 S    
C57   C61   1.494210 S    
O11   C7    1.283308 A    
O12   C8    1.283711 A    
O1    Zn1   2.019090 S    
O9    Zn1   1.988462 S    
O4    Zn4   2.017935 S    
C103  C107  1.424929 A    
C118  H46   1.112734 S    
N4    O56   1.300975 A    
S1    O58   1.501218 D    
O7    Zn7   2.020910 S    
O8    Zn8   2.019759 S    
O16   C8    1.284027 A    
S7    O85   1.680557 S    
C38   C66   1.492931 S    
C105  C109  1.389737 A    
C99   C103  1.410458 A    
C113  H41   1.112050 S    
S5    O77   1.502160 D    
O24   C12   1.275243 A    
C95   C99   1.409166 A    
C89   C109  1.368304 A    
C108  C112  1.391204 A    
C48   S8    1.770622 S    
C97   C101  1.410207 A    
C91   C111  1.366493 A    
N2    O52   1.300834 A    
C14   C86   1.419003 S    
C62   C66   1.518119 S    
O43   Zn11  2.022210 S    
C5    C33   1.419170 S    
N1    O50   1.301270 A    
C64   H20   1.111578 S    
N8    O76   1.302429 A    
S3    O63   1.502594 D    
O2    C2    1.278384 A    
O31   C15   1.283182 A    
C54   C58   1.392477 A    
O32   C16   1.283600 A    
C68   H24   1.112286 S    
C89   C117  1.494974 S    
O22   C10   1.275014 A    
O34   C122  1.262321 A    
C72   C79   1.393207 A    
C11   C95   1.421539 S    
C8    C36   1.419327 S    
C27   H7    1.083638 S    
C13   C85   1.419104 S    
C71   C80   1.393386 A    
H31   C80   1.083681 S    
Zn7   O23   2.019087 S    
Zn8   O24   2.017935 S    
C70   C77   1.393301 A    
C114  C118  1.522918 S    
C62   H14   1.112347 S    
C92   C120  1.500227 S    
C105  C122  1.433029 S    
C59   C63   1.490496 S    
C49   H9    1.082515 S    
