data_mof_unit_28156.cif
_audit_creation_date              2012-12-10T20:53:09-0500
_audit_creation_method            fapswitch 2.2
_symmetry_space_group_name_H-M    P1
_symmetry_Int_Tables_number       1
_space_group_crystal_system       triclinic
_cell_length_a                    18.330419
_cell_length_b                    18.334072
_cell_length_c                    18.331138
_cell_angle_alpha                 60.257747
_cell_angle_beta                  60.258883
_cell_angle_gamma                 60.261598
_cell_volume                      4381.75781175

loop_
_atom_site_label
_atom_site_type_symbol
_atom_type_description
_atom_site_fract_x
_atom_site_fract_y
_atom_site_fract_z
_atom_type_partial_charge
C1    C     C_R   0.389717 0.110161 0.110100 0.784531
C2    C     C_R   0.338370 0.801904 0.811234 0.116582
C3    C     C_R   0.034336 0.553940 0.911538 0.070773
C4    C     C_R   0.445112 0.088022 0.966073 0.070509
C5    C     C_R   0.554888 0.911976 0.033928 0.070505
C6    C     C_R   0.946070 0.945899 0.554409 -0.163093
C7    C     C_R   0.053930 0.054101 0.445592 -0.163093
C8    C     C_R   0.945881 0.554419 0.946085 -0.163057
C9    C     C_R   0.054104 0.445576 0.053927 -0.163053
C10   C     C_R   0.554380 0.946069 0.945904 -0.163317
C11   C     C_R   0.445621 0.053930 0.054096 -0.163315
C12   C     C_R   0.198333 0.192324 0.658850 0.172489
C13   C     C_R   0.801669 0.807675 0.341159 0.172490
C14   C     C_R   0.152110 0.614579 0.288167 0.082235
C15   C     C_R   0.847972 0.385349 0.711839 0.082222
C16   C     C_R   0.614713 0.287982 0.151438 0.081945
C17   C     C_R   0.385169 0.712026 0.848659 0.081951
C18   C     C_R   0.287909 0.155101 0.612034 0.085796
C19   C     C_R   0.712092 0.844899 0.387970 0.085816
C20   C     C_R   0.080339 0.588233 0.313665 0.102556
C21   C     C_R   0.610283 0.889837 0.889902 0.784526
C22   C     C_R   0.919702 0.411754 0.686341 0.102548
C23   C     C_R   0.588411 0.313575 0.079617 0.103212
C24   C     C_R   0.411580 0.686437 0.920407 0.103213
C25   C     C_R   0.313925 0.081347 0.587953 0.057803
C26   C     C_R   0.686072 0.918654 0.412050 0.057853
C27   C     C_R   0.046141 0.609431 0.249383 -0.147373
C28   C     C_R   0.953877 0.390601 0.750625 -0.147375
C29   C     C_R   0.609428 0.249356 0.045451 -0.147631
C30   C     C_R   0.390628 0.750658 0.954539 -0.147567
C31   C     C_R   0.249750 0.046275 0.610700 -0.121106
C32   C     C_R   0.110164 0.110101 0.389710 0.784141
C33   C     C_R   0.750245 0.953728 0.389307 -0.121069
C34   C     C_R   0.082717 0.656473 0.160534 -0.180060
C35   C     C_R   0.917299 0.343567 0.839479 -0.180029
C36   C     C_R   0.656274 0.160457 0.082119 -0.180045
C37   C     C_R   0.343772 0.839560 0.917890 -0.180036
C38   C     C_R   0.160948 0.083025 0.657655 -0.181932
C39   C     C_R   0.839049 0.916975 0.342359 -0.181949
C40   C     C_R   0.154137 0.683114 0.134424 0.105301
C41   C     C_R   0.845910 0.316881 0.865590 0.105307
C42   C     C_R   0.682824 0.134240 0.153638 0.106819
C43   C     C_R   0.889835 0.889899 0.610290 0.784144
C44   C     C_R   0.317120 0.865773 0.846441 0.106799
C45   C     C_R   0.134692 0.155706 0.682448 0.075857
C46   C     C_R   0.865309 0.844293 0.317567 0.075846
C47   C     C_R   0.985236 0.591309 0.464745 -0.246019
C48   C     C_R   0.014792 0.408686 0.535258 -0.245979
C49   C     C_R   0.591457 0.464629 0.984578 -0.246288
C50   C     C_R   0.408540 0.535376 0.015433 -0.246301
C51   C     C_R   0.464573 0.984347 0.591485 -0.278935
C52   C     C_R   0.535423 0.015646 0.408519 -0.279026
C53   C     C_R   0.945897 0.551923 0.555685 -0.061855
C54   C     C_R   0.110100 0.389703 0.110169 0.784022
C55   C     C_R   0.054124 0.448074 0.444317 -0.061836
C56   C     C_R   0.551929 0.555678 0.945839 -0.063864
C57   C     C_R   0.448068 0.444326 0.054170 -0.063846
C58   C     C_R   0.555546 0.945192 0.552049 -0.055716
C59   C     C_R   0.444451 0.054806 0.447953 -0.055711
C60   C     C_R   0.961135 0.459052 0.591610 0.039089
C61   C     C_R   0.038896 0.540941 0.408393 0.039098
C62   C     C_R   0.458928 0.591700 0.961675 0.038880
C63   C     C_R   0.541067 0.408307 0.038337 0.038902
C64   C     C_R   0.591516 0.960790 0.459123 0.008762
C65   C     C_R   0.889884 0.610296 0.889846 0.784033
C66   C     C_R   0.408481 0.039207 0.540879 0.008797
C67   C     C_R   0.110416 0.390509 0.389584 0.792897
C68   C     C_R   0.889590 0.609490 0.610416 0.792896
C69   C     C_R   0.390514 0.389578 0.110435 0.791419
C70   C     C_R   0.609485 0.610422 0.889567 0.791431
C71   C     C_R   0.389607 0.110714 0.390489 0.784944
C72   C     C_R   0.610393 0.889286 0.609512 0.784954
C73   C     C_R   0.177591 0.929106 0.395198 -0.150653
C74   C     C_R   0.822407 0.070895 0.604800 -0.150642
C75   C     C_R   0.929488 0.394113 0.177145 -0.149462
C76   C     C_R   0.189452 0.661597 0.198324 0.116109
C77   C     C_R   0.070529 0.605811 0.822826 -0.149449
C78   C     C_R   0.392338 0.176330 0.930241 -0.153117
C79   C     C_R   0.607655 0.823665 0.069762 -0.153112
C80   C     C_R   0.211216 0.841457 0.397423 -0.143303
C81   C     C_R   0.788779 0.158549 0.602567 -0.143290
C82   C     C_R   0.842043 0.395770 0.210543 -0.141907
C83   C     C_R   0.157991 0.604096 0.789415 -0.141881
C84   C     C_R   0.392945 0.209253 0.843260 -0.137711
C85   C     C_R   0.607044 0.790738 0.156747 -0.137699
C86   C     C_R   0.157827 0.787904 0.451277 -0.155687
C87   C     C_R   0.810632 0.338337 0.801685 0.116112
C88   C     C_R   0.842169 0.212101 0.548715 -0.155699
C89   C     C_R   0.788480 0.449631 0.157173 -0.155586
C90   C     C_R   0.211545 0.550239 0.842803 -0.155649
C91   C     C_R   0.446642 0.155827 0.789762 -0.150539
C92   C     C_R   0.553357 0.844170 0.210240 -0.150543
C93   C     C_R   0.070530 0.821713 0.503186 -0.158147
C94   C     C_R   0.929471 0.178287 0.496814 -0.158153
C95   C     C_R   0.822077 0.502112 0.070115 -0.158289
C96   C     C_R   0.177929 0.497815 0.929879 -0.158311
C97   C     C_R   0.500102 0.069237 0.822932 -0.164534
C98   C     C_R   0.661479 0.198102 0.188898 0.116636
C99   C     C_R   0.499906 0.930767 0.177064 -0.164537
C100  C     C_R   0.034354 0.910962 0.501391 0.072354
C101  C     C_R   0.965647 0.089038 0.498611 0.072346
C102  C     C_R   0.911145 0.500858 0.034141 0.072320
C103  C     C_R   0.088846 0.499117 0.965864 0.072371
C104  C     C_R   0.499864 0.033682 0.911589 0.074143
C105  C     C_R   0.500139 0.966318 0.088410 0.074141
C106  C     C_R   0.088686 0.965464 0.446578 0.070894
C107  C     C_R   0.911314 0.034535 0.553424 0.070890
C108  C     C_R   0.965659 0.446035 0.088461 0.070728
H1    H     H_    0.222362 0.967477 0.353310 0.129585
H2    H     H_    0.411831 0.731925 0.008840 0.134874
H3    H     H_    0.268419 0.991117 0.590800 0.132997
H4    H     H_    0.731572 0.008890 0.409202 0.132989
H5    H     H_    0.815646 0.280390 0.546585 0.132454
H6    H     H_    0.184348 0.719618 0.453401 0.132442
H7    H     H_    0.279695 0.548495 0.816442 0.131669
H8    H     H_    0.720346 0.451318 0.183522 0.131641
H9    H     H_    0.552545 0.818204 0.278013 0.137634
H10   H     H_    0.447457 0.181794 0.721986 0.137633
H11   H     H_    0.974764 0.662076 0.437001 0.173975
H12   H     H_    0.777633 0.032525 0.646685 0.129574
H13   H     H_    0.025266 0.337918 0.563002 0.173986
H14   H     H_    0.662335 0.436782 0.973649 0.174494
H15   H     H_    0.337662 0.563222 0.026363 0.174513
H16   H     H_    0.436702 0.973322 0.662377 0.176037
H17   H     H_    0.563293 0.026669 0.337627 0.176074
H18   H     H_    0.279232 0.814817 0.357629 0.137166
H19   H     H_    0.720758 0.185195 0.642352 0.137164
H20   H     H_    0.815563 0.355540 0.278378 0.137430
H21   H     H_    0.184493 0.644275 0.721555 0.137420
H22   H     H_    0.352024 0.276777 0.817077 0.139902
H23   H     H_    0.967837 0.352218 0.221938 0.130309
H24   H     H_    0.647955 0.723207 0.182937 0.139891
H25   H     H_    0.032315 0.776793 0.545082 0.129109
H26   H     H_    0.967687 0.223206 0.454918 0.129116
H27   H     H_    0.777121 0.544018 0.031944 0.129517
H28   H     H_    0.222885 0.455903 0.968055 0.129504
H29   H     H_    0.541936 0.031121 0.777937 0.129325
H30   H     H_    0.458079 0.968886 0.222056 0.129333
H31   H     H_    0.208964 0.696583 0.003832 0.184309
H32   H     H_    0.139498 0.792189 0.026236 0.181435
H33   H     H_    0.791026 0.303461 0.996173 0.184327
H34   H     H_    0.032189 0.647694 0.778022 0.130267
H35   H     H_    0.860561 0.207844 0.973808 0.181426
H36   H     H_    0.695768 0.003764 0.208706 0.184371
H37   H     H_    0.791615 0.025767 0.139269 0.181600
H38   H     H_    0.304211 0.996242 0.791288 0.184378
H39   H     H_    0.208376 0.974272 0.860871 0.181588
H40   H     H_    0.003917 0.209134 0.696878 0.186295
H41   H     H_    0.027068 0.141666 0.792406 0.183706
H42   H     H_    0.996084 0.790867 0.303140 0.186298
H43   H     H_    0.972935 0.858333 0.207611 0.183691
H44   H     H_    0.317984 0.652264 0.130085 0.197505
H45   H     H_    0.350580 0.221224 0.968467 0.131569
H46   H     H_    0.248749 0.754612 0.138732 0.198315
H47   H     H_    0.751383 0.245275 0.861309 0.198320
H48   H     H_    0.682106 0.347640 0.869891 0.197473
H49   H     H_    0.754233 0.138035 0.248628 0.197849
H50   H     H_    0.651494 0.130190 0.317570 0.197579
H51   H     H_    0.245491 0.861981 0.751650 0.197883
H52   H     H_    0.348221 0.869794 0.682595 0.197529
H53   H     H_    0.129361 0.321188 0.647753 0.192936
H54   H     H_    0.139400 0.253769 0.749925 0.190042
H55   H     H_    0.860616 0.746225 0.250086 0.190033
H56   H     H_    0.649409 0.778769 0.031538 0.131552
H57   H     H_    0.870633 0.678810 0.352268 0.192932
H58   H     H_    0.254453 0.554621 0.335228 0.197906
H59   H     H_    0.182252 0.652019 0.353914 0.189100
H60   H     H_    0.745655 0.445212 0.664756 0.197915
H61   H     H_    0.817921 0.347807 0.646101 0.189102
H62   H     H_    0.652258 0.353353 0.181924 0.189224
H63   H     H_    0.554549 0.335159 0.253690 0.194683
H64   H     H_    0.347400 0.646549 0.818541 0.189157
H65   H     H_    0.444978 0.664894 0.746393 0.194745
H66   H     H_    0.399314 0.145941 0.618856 0.176978
H67   H     H_    0.991782 0.588349 0.268043 0.135588
H68   H     H_    0.382702 0.211904 0.519387 0.182543
H69   H     H_    0.600692 0.854058 0.381142 0.176983
H70   H     H_    0.617298 0.788095 0.480613 0.182550
H71   H     H_    0.055445 0.672391 0.111807 0.143359
H72   H     H_    0.944547 0.327693 0.888209 0.143371
H73   H     H_    0.672036 0.111765 0.054897 0.143404
H74   H     H_    0.328072 0.888255 0.945079 0.143417
H75   H     H_    0.112364 0.054915 0.674932 0.143278
H76   H     H_    0.887632 0.945086 0.325085 0.143277
H77   H     H_    0.008216 0.411713 0.731962 0.135598
H78   H     H_    0.588282 0.268088 0.991113 0.134858
N1    N     N_3   0.190207 0.732910 0.043400 -0.475679
N2    N     N_3   0.313902 0.827285 0.736875 -0.486101
N3    N     N_3   0.172968 0.267937 0.681360 -0.442487
N4    N     N_3   0.827037 0.732061 0.318649 -0.442491
N5    N     N_3   0.187066 0.592766 0.353902 -0.466287
N6    N     N_3   0.813056 0.407091 0.646099 -0.466288
N7    N     N_3   0.593004 0.353650 0.186407 -0.468692
N8    N     N_3   0.406749 0.646344 0.813763 -0.468640
N9    N     N_3   0.351283 0.193877 0.588426 -0.447207
N10   N     N_3   0.648721 0.806122 0.411574 -0.447210
N11   N     N_3   0.809838 0.267095 0.956620 -0.475675
N12   N     N_3   0.732323 0.043144 0.189887 -0.475140
N13   N     N_3   0.267607 0.956870 0.810215 -0.475133
N14   N     N_3   0.043746 0.191867 0.732324 -0.478326
N15   N     N_3   0.956257 0.808133 0.267694 -0.478323
N16   N     N_3   0.263756 0.686128 0.173013 -0.484112
N17   N     N_3   0.736363 0.313756 0.826994 -0.484104
N18   N     N_3   0.685825 0.172713 0.263341 -0.486138
O1    O     O_3   0.250000 0.250000 0.250000 -0.481627
O2    O     O_R   0.865800 0.694910 0.573470 -0.645598
O3    O     O_R   0.305090 0.426530 0.134200 -0.645648
O4    O     O_R   0.694910 0.573470 0.865800 -0.645646
O5    O     O_R   0.426530 0.134200 0.305090 -0.646150
O6    O     O_R   0.573470 0.865800 0.694910 -0.646142
O7    O     O_R   0.134190 0.426530 0.134200 -0.643035
O8    O     O_R   0.865810 0.573470 0.865800 -0.643058
O9    O     O_R   0.426530 0.134200 0.134190 -0.643421
O10   O     O_R   0.573470 0.865800 0.865810 -0.643440
O11   O     O_R   0.134200 0.134190 0.426530 -0.643030
O12   O     O_3   0.750000 0.750000 0.750000 -0.481626
O13   O     O_R   0.865800 0.865810 0.573470 -0.643037
O14   O     O_R   0.426530 0.305080 0.134210 -0.640119
O15   O     O_R   0.573470 0.694920 0.865790 -0.640133
O16   O     O_R   0.305080 0.134210 0.426530 -0.638508
O17   O     O_R   0.694920 0.865790 0.573470 -0.638509
O18   O     O_R   0.134210 0.426530 0.305080 -0.640231
O19   O     O_R   0.865790 0.573470 0.694920 -0.640230
O20   O     O_R   0.305080 0.134200 0.134200 -0.640132
O21   O     O_R   0.694920 0.865800 0.865800 -0.640128
O22   O     O_R   0.134200 0.134200 0.305080 -0.639965
O23   O     O_R   0.865800 0.865800 0.694920 -0.639951
O24   O     O_R   0.134200 0.305080 0.134200 -0.640270
O25   O     O_R   0.865800 0.694920 0.865800 -0.640253
O26   O     O_R   0.134200 0.305090 0.426530 -0.645606
Zn1   Zn    Zn3+2 0.206620 0.206630 0.380140 0.956672
Zn2   Zn    Zn3+2 0.793380 0.793370 0.619860 0.956678
Zn3   Zn    Zn3+2 0.206630 0.380140 0.206620 0.957233
Zn4   Zn    Zn3+2 0.793370 0.619860 0.793380 0.957223
Zn5   Zn    Zn3+2 0.380140 0.206620 0.206630 0.955030
Zn6   Zn    Zn3+2 0.619860 0.793380 0.793370 0.955021
Zn7   Zn    Zn3+2 0.206620 0.206620 0.206620 0.955548
Zn8   Zn    Zn3+2 0.793380 0.793380 0.793380 0.955559

loop_
_geom_bond_atom_site_label_1
_geom_bond_atom_site_label_2
_ccdc_geom_bond_type
C25   C31   A    
C48   C55   A    
C15   N6    S    
C67   O26   A    
O18   Zn3   S    
C101  C107  A    
C49   C63   A    
H69   N10   S    
H50   N18   S    
H39   N13   S    
C1    C11   S    
C79   H56   S    
H63   N7    S    
C16   C98   A    
C34   H71   S    
C96   H28   S    
C40   N1    S    
C5    C105  A    
C45   N14   S    
C3    C103  A    
C12   N3    S    
C29   C36   A    
C59   C71   S    
C33   C39   A    
C82   C89   A    
C30   H2    S    
C1    O20   A    
O11   Zn1   S    
C23   C29   A    
C98   N18   S    
O19   Zn4   S    
O14   Zn5   S    
C83   H21   S    
C93   H25   S    
C10   C104  A    
C42   C98   A    
C85   H24   S    
C22   C60   S    
C13   C46   A    
H31   N1    S    
C50   H15   S    
C49   H14   S    
C70   O4    A    
C4    C104  A    
C20   C61   S    
O12   Zn4   S    
C29   H78   S    
H58   N5    S    
C84   H22   S    
H38   N13   S    
C19   C26   A    
C53   C68   S    
C26   C64   S    
C77   H34   S    
C38   C45   A    
C80   C86   A    
C16   N7    S    
O12   Zn2   S    
C74   C107  A    
C32   O11   A    
H64   N8    S    
C85   C92   A    
C46   N15   S    
C72   O6    A    
C94   C101  A    
C2    C44   A    
C65   O8    A    
C11   C105  A    
C6    C107  A    
C99   H30   S    
C48   C60   A    
C84   C91   A    
O6    Zn6   S    
C5    C79   A    
O20   Zn7   S    
C39   H76   S    
C95   C102  A    
C47   C53   A    
C23   C63   S    
C89   H8    S    
H66   N9    S    
C27   C34   A    
O22   Zn7   S    
C22   C28   A    
C81   H19   S    
C2    C17   A    
C51   H16   S    
H32   N1    S    
H44   N16   S    
C17   N8    S    
C43   O13   A    
C18   C25   A    
H33   N11   S    
H43   N15   S    
H47   N17   S    
C97   H29   S    
H46   N16   S    
C53   C60   A    
C75   H23   S    
C57   C63   A    
C2    N2    S    
C15   C22   A    
C10   C21   S    
C58   C64   A    
C41   C87   A    
C88   C94   A    
C8    C65   S    
C69   O3    A    
C17   C24   A    
C13   C19   A    
O2    Zn2   S    
C69   O14   A    
C97   C104  A    
C14   C20   A    
C42   N12   S    
C28   C35   A    
H53   N3    S    
C3    C8    A    
C52   C64   A    
C27   H67   S    
C48   H13   S    
H49   N18   S    
H40   N14   S    
C71   O5    A    
O23   Zn8   S    
H70   N10   S    
C77   C83   A    
C71   O16   A    
O7    Zn3   S    
C30   C37   A    
C9    C108  A    
C51   C66   A    
C6    C100  A    
H51   N2    S    
C89   C95   A    
C67   O18   A    
O1    Zn7   S    
C92   H9    S    
O5    Zn5   S    
C4    C78   A    
C86   C93   A    
C78   C84   A    
C52   C59   A    
C26   C33   A    
C55   C67   S    
O1    Zn5   S    
C9    C103  A    
H35   N11   S    
C54   O24   A    
C43   O23   A    
C95   H27   S    
H57   N4    S    
C7    C106  A    
H36   N12   S    
C75   C82   A    
C51   C58   A    
C90   H7    S    
C91   C97   A    
C4    C11   A    
C102  C108  A    
C93   C100  A    
C82   H20   S    
C72   O17   A    
C39   C46   A    
C14   N5    S    
H42   N15   S    
C41   N11   S    
C54   O7    A    
C32   O22   A    
C16   C23   A    
C56   C70   S    
C6    C43   S    
C1    O9    A    
C50   C62   A    
C56   C62   A    
O1    Zn1   S    
C68   O19   A    
H52   N2    S    
C74   C81   A    
C3    C77   A    
O4    Zn4   S    
C79   C85   A    
C21   O21   A    
O3    Zn3   S    
C15   C87   A    
C75   C108  A    
C33   H4    S    
C35   H72   S    
C83   C90   A    
C24   C62   S    
C7    C32   S    
O16   Zn1   S    
C18   N9    S    
C50   C57   A    
C100  C106  A    
O15   Zn6   S    
O10   Zn6   S    
C25   C66   S    
C12   C45   A    
C36   C42   A    
C47   C61   A    
H62   N7    S    
O8    Zn4   S    
C52   H17   S    
C78   H45   S    
C90   C96   A    
C36   H73   S    
C20   C27   A    
C49   C56   A    
H59   N5    S    
C19   N10   S    
C70   O15   A    
H60   N6    S    
C31   C38   A    
C65   O25   A    
C86   H6    S    
C91   H10   S    
C37   C44   A    
O1    Zn3   S    
O12   Zn8   S    
O24   Zn7   S    
O13   Zn2   S    
C28   H77   S    
C68   O2    A    
C58   C72   S    
C73   C106  A    
C80   H18   S    
C88   H5    S    
O12   Zn6   S    
C37   H74   S    
C55   C61   A    
O17   Zn2   S    
C47   H11   S    
C94   H26   S    
C73   C80   A    
H55   N4    S    
C76   N16   S    
C73   H1    S    
H68   N9    S    
O26   Zn1   S    
C35   C41   A    
C99   C105  A    
C24   C30   A    
C81   C88   A    
C38   H75   S    
H41   N14   S    
C74   H12   S    
C40   C76   A    
C5    C10   A    
H37   N12   S    
C44   N13   S    
O21   Zn8   S    
C7    C101  A    
C96   C103  A    
C12   C18   A    
H65   N8    S    
C31   H3    S    
C21   O10   A    
C34   C40   A    
C9    C54   S    
H61   N6    S    
C57   C69   S    
O25   Zn8   S    
O9    Zn5   S    
H48   N17   S    
C8    C102  A    
H54   N3    S    
C87   N17   S    
C13   N4    S    
C92   C99   A    
C14   C76   A    
C59   C66   A    
