data_mof_unit_8754.cif
_audit_creation_date              2012-12-10T16:51:31-0500
_audit_creation_method            fapswitch 2.2
_symmetry_space_group_name_H-M    P1
_symmetry_Int_Tables_number       1
_space_group_crystal_system       triclinic
_cell_length_a                    7.779041
_cell_length_b                    8.5701
_cell_length_c                    12.522506
_cell_angle_alpha                 92.05127
_cell_angle_beta                  102.902425
_cell_angle_gamma                 93.89021
_cell_volume                      810.771979143

loop_
_atom_site_label
_atom_site_type_symbol
_atom_type_description
_atom_site_fract_x
_atom_site_fract_y
_atom_site_fract_z
_atom_type_partial_charge
C1    C     C_R   0.044598 0.794759 0.497424 0.950673
C2    C     C_R   0.173672 0.515863 0.827955 -0.071359
C3    C     C_2   0.068053 0.958278 0.496058 -0.370939
C4    C     C_R   0.109925 0.501546 0.709244 0.876100
C5    C     C_2   0.932514 0.041851 0.505005 -0.364926
C6    C     C_R   0.955612 0.205279 0.502974 0.958779
C7    C     C_R   0.888151 0.483175 0.291865 0.839841
C8    C     C_R   0.721310 0.188026 0.064103 -0.141726
C9    C     C_R   0.810314 0.422659 0.182316 -0.027700
C10   C     C_R   0.097608 0.628052 0.884121 -0.161229
C11   C     C_R   0.159462 0.661119 0.995765 -0.145149
C12   C     C_R   0.379129 0.472638 0.998700 0.047893
C13   C     C_R   0.301954 0.586837 0.052626 -0.161631
C14   C     C_R   0.309895 0.428074 0.886808 -0.040013
C15   C     C_R   0.531569 0.404801 0.051584 0.063101
C16   C     C_R   0.566408 0.255616 0.013780 0.130734
C17   C     C_R   0.458771 0.189679 0.916286 -0.297009
C18   C     C_R   0.382258 0.297247 0.842227 0.344814
C19   C     C_R   0.657676 0.489258 0.132080 -0.248822
C20   C     C_R   0.843549 0.271906 0.148759 -0.196714
H1    H     H_    0.958091 0.216311 0.191905 0.141962
H2    H     H_    0.099484 0.747546 0.037815 0.137295
H3    H     H_    0.195852 0.009298 0.487460 0.199276
H4    H     H_    0.645910 0.553976 0.822167 0.348446
H5    H     H_    0.804741 0.990843 0.513667 0.189974
H6    H     H_    0.471558 0.369354 0.423945 0.188125
H7    H     H_    0.527562 0.636290 0.570464 0.226176
H8    H     H_    0.491558 0.079010 0.884140 0.180843
H9    H     H_    0.749556 0.073297 0.036424 0.137057
H10   H     H_    0.637062 0.606692 0.159220 0.133498
H11   H     H_    0.991638 0.693633 0.840786 0.155774
H12   H     H_    0.347812 0.615758 0.139658 0.136537
N1    N     N_2   0.434800 0.456690 0.470850 -0.128024
N2    N     N_2   0.565200 0.543310 0.529150 -0.096910
O1    O     O_R   0.893060 0.738880 0.507150 -0.624186
O2    O     O_2   0.429352 0.261558 0.638067 -0.274357
O3    O     O_3   0.569913 0.524303 0.748646 -0.563962
O4    O     O_R   0.172250 0.711130 0.488470 -0.636998
O5    O     O_R   0.944700 0.520730 0.667600 -0.577731
O6    O     O_R   0.223890 0.492980 0.648920 -0.532256
O7    O     O_R   0.827750 0.288870 0.511530 -0.598831
O8    O     O_R   0.106940 0.261120 0.492850 -0.592233
O9    O     O_R   0.776110 0.507020 0.351080 -0.635911
O10   O     O_R   0.055300 0.479270 0.332400 -0.632672
O11   O     O_2   0.692086 0.254245 0.784097 -0.314995
S1    S     S_3+6 0.520914 0.330469 0.749575 0.030974
Zn1   Zn    Zn3+2 0.813580 0.518530 0.512470 1.010505
Zn2   Zn    Zn3+2 0.186420 0.481470 0.487530 1.007903

loop_
_geom_bond_atom_site_label_1
_geom_bond_atom_site_label_2
_ccdc_geom_bond_type
C2    C4    S    
C4    O5    A    
O2    S1    D    
C7    O9    A    
C14   C18   A    
C13   H12   S    
C3    H3    S    
C12   C15   A    
O1    Zn1   S    
C17   C18   A    
O7    Zn1   S    
C19   H10   S    
C8    C16   A    
O8    Zn2   S    
C7    O10   A    
C12   C13   A    
C15   C19   A    
C11   C13   A    
C8    C20   A    
O9    Zn1   S    
C1    O4    A    
C5    H5    S    
C8    H9    S    
C18   S1    S    
C12   C14   A    
H4    O3    S    
H7    N2    S    
C5    C6    S    
C2    C14   A    
C10   C11   A    
C15   C16   A    
C2    C10   A    
O10   Zn2   S    
N1    N2    D    
C20   H1    S    
C1    O1    A    
C11   H2    S    
O5    Zn1   S    
C6    O8    A    
C7    C9    S    
N1    Zn2   S    
O6    Zn2   S    
N2    Zn1   S    
C9    C20   A    
C3    C5    D    
O3    S1    S    
O11   S1    D    
C17   H8    S    
O4    Zn2   S    
C10   H11   S    
C9    C19   A    
C4    O6    A    
H6    N1    S    
C16   C17   A    
C1    C3    S    
C6    O7    A    
