data_mof_unit_51597.cif
_audit_creation_date              2012-12-11T15:28:34-0500
_audit_creation_method            fapswitch 2.2
_symmetry_space_group_name_H-M    P1
_symmetry_Int_Tables_number       1
_space_group_crystal_system       triclinic
_cell_length_a                    6.958421
_cell_length_b                    19.586719
_cell_length_c                    23.43639
_cell_angle_alpha                 96.202525
_cell_angle_beta                  91.19654
_cell_angle_gamma                 88.636757
_cell_volume                      3174.07146376

loop_
_atom_site_label
_atom_site_type_symbol
_atom_type_description
_atom_site_fract_x
_atom_site_fract_y
_atom_site_fract_z
_atom_type_partial_charge
O1    O     O_R   0.617180 0.809390 0.808140 -0.525513
O2    O     O_R   0.382820 0.190610 0.191860 -0.525513
O3    O     O_R   0.293300 0.672410 0.795490 -0.536269
O4    O     O_R   0.706700 0.327590 0.204510 -0.536270
O5    O     O_R   0.117220 0.690610 0.691850 -0.518448
O6    O     O_R   0.882780 0.309390 0.308150 -0.518444
C1    C     C_R   0.464944 0.648054 0.805613 0.701194
C2    C     C_R   0.535056 0.351946 0.194386 0.701197
O7    O     O_R   0.287840 0.807750 0.814460 -0.527898
O8    O     O_R   0.712160 0.192250 0.185540 -0.527898
O9    O     O_R   0.111720 0.826910 0.710960 -0.530884
O10   O     O_R   0.888280 0.173090 0.289040 -0.530884
C3    C     C_R   0.456519 0.830754 0.833172 0.706596
C4    C     C_R   0.543481 0.169246 0.166828 0.706595
O11   O     O_R   0.622680 0.673080 0.789040 -0.533617
O12   O     O_R   0.377320 0.326920 0.210960 -0.533618
O13   O     O_3   0.448820 0.756130 0.716020 -0.350725
O14   O     O_3   0.551180 0.243870 0.283980 -0.350725
V1    V     V_3+5 0.176220 0.748860 0.756300 1.454995
V2    V     V_3+5 0.823780 0.251140 0.243700 1.454997
O15   O     O_R   0.781670 0.827580 0.704500 -0.535987
O16   O     O_R   0.218330 0.172420 0.295500 -0.535987
C5    C     C_R   0.947770 0.851930 0.694468 0.711261
C6    C     C_R   0.052230 0.148070 0.305532 0.711263
O17   O     O_R   0.787130 0.692240 0.685530 -0.520601
O18   O     O_R   0.212870 0.307760 0.314470 -0.520605
C7    C     C_R   0.956110 0.669231 0.666798 0.732083
C8    C     C_R   0.043890 0.330769 0.333201 0.732076
V3    V     V_3+5 0.675510 0.751130 0.743690 1.466106
V4    V     V_3+5 0.324490 0.248870 0.256310 1.466102
O19   O     O_3   0.952780 0.743870 0.783980 -0.366232
O20   O     O_3   0.047220 0.256130 0.216020 -0.366233
C9    C     C_1   0.966649 0.617167 0.614753 -0.163382
C10   C     C_1   0.033351 0.382833 0.385247 -0.163391
C11   C     C_1   0.978206 0.573651 0.571936 0.038968
C12   C     C_1   0.021794 0.426349 0.428064 0.038968
C13   C     C_1   0.993425 0.521855 0.521322 0.027661
C14   C     C_1   0.006575 0.478145 0.478678 0.027662
C15   C     C_R   0.946471 0.913314 0.662899 -0.095768
C16   C     C_R   0.053529 0.086686 0.337101 -0.095768
C17   C     C_R   0.871747 0.034779 0.664068 -0.031935
C18   C     C_R   0.128254 0.965221 0.335932 -0.031935
C19   C     C_R   0.872668 0.974562 0.690606 -0.206747
C20   C     C_R   0.127333 0.025438 0.309394 -0.206748
C21   C     C_R   0.008944 0.910818 0.605680 -0.102668
C22   C     C_R   0.991055 0.089182 0.394320 -0.102669
C23   C     C_R   0.978710 0.969381 0.574232 0.039122
C24   C     C_R   0.021289 0.030619 0.425768 0.039122
C25   C     C_R   0.928535 0.033030 0.606312 0.078812
C26   C     C_R   0.071465 0.966970 0.393688 0.078812
C27   C     C_R   0.999444 0.968476 0.512974 0.061330
C28   C     C_R   0.000554 0.031525 0.487026 0.061330
C29   C     C_R   0.991375 0.093221 0.523654 -0.163939
C30   C     C_R   0.008623 0.906778 0.476346 -0.163939
C31   C     C_R   0.943818 0.094108 0.580824 -0.173563
C32   C     C_R   0.056182 0.905892 0.419175 -0.173563
C33   C     C_R   0.484319 0.584798 0.834880 -0.094584
C34   C     C_R   0.515670 0.415200 0.165118 -0.094586
C35   C     C_R   0.570580 0.464053 0.832135 -0.179255
C36   C     C_R   0.429311 0.535938 0.167859 -0.179252
C37   C     C_R   0.539545 0.522458 0.803822 -0.049487
C38   C     C_R   0.460429 0.477539 0.196176 -0.049480
C39   C     C_R   0.461316 0.587655 0.894565 -0.210858
C40   C     C_R   0.538644 0.412341 0.105432 -0.210862
C41   C     C_R   0.496100 0.528864 0.924813 0.091329
C42   C     C_R   0.503772 0.471125 0.075181 0.091330
C43   C     C_R   0.551313 0.466233 0.892162 0.072717
C44   C     C_R   0.448516 0.533752 0.107831 0.072718
C45   C     C_R   0.480255 0.530402 0.986175 0.048821
C46   C     C_R   0.519571 0.469582 0.013817 0.048820
C47   C     C_R   0.572814 0.408970 0.979229 -0.217322
C48   C     C_R   0.426913 0.591007 0.020761 -0.217314
C49   C     C_R   0.588245 0.406841 0.919928 -0.059205
C50   C     C_R   0.411467 0.593135 0.080061 -0.059201
C51   C     C_1   0.467258 0.882816 0.885228 -0.208042
C52   C     C_1   0.532742 0.117184 0.114771 -0.208044
C53   C     C_1   0.478685 0.926334 0.928055 0.011293
C54   C     C_1   0.521314 0.073667 0.071945 0.011291
C55   C     C_1   0.493580 0.978139 0.978676 0.013912
C56   C     C_1   0.506420 0.021861 0.021324 0.013912
H1    H     H_    0.925711 0.143701 0.605617 0.147393
H2    H     H_    0.074288 0.856299 0.394383 0.147394
H3    H     H_    0.604387 0.361523 0.997105 0.127133
H4    H     H_    0.395217 0.638443 0.002880 0.127134
C57   C     C_1   0.875003 0.148365 0.415990 0.274780
N1    N     N_1   0.781673 0.195698 0.432835 -0.346156
C58   C     C_1   0.124995 0.851635 0.584009 0.274780
N2    N     N_1   0.218325 0.804302 0.567165 -0.346157
H5    H     H_    0.176484 0.024066 0.265624 0.119250
H6    H     H_    0.823518 0.975934 0.734376 0.119250
C59   C     C_1   0.807241 0.097518 0.697066 0.299670
N3    N     N_1   0.755598 0.147676 0.723503 -0.306705
C60   C     C_1   0.192762 0.902482 0.302934 0.299670
N4    N     N_1   0.244406 0.852324 0.276498 -0.306713
H7    H     H_    0.023587 0.142053 0.509444 0.147172
H8    H     H_    0.976411 0.857946 0.490556 0.147172
C61   C     C_1   0.644260 0.341862 0.888577 0.304138
N5    N     N_1   0.689020 0.289915 0.863578 -0.309495
C62   C     C_1   0.355253 0.658098 0.111405 0.304132
N6    N     N_1   0.310318 0.710032 0.136399 -0.309500
H9    H     H_    0.579197 0.362840 0.084116 0.100544
H10   H     H_    0.420823 0.637160 0.915884 0.100543
C63   C     C_1   0.434349 0.482729 0.257544 0.292638
N7    N     N_1   0.413412 0.486793 0.306662 -0.345490
C64   C     C_1   0.565714 0.517275 0.742457 0.292641
N8    N     N_1   0.586731 0.513217 0.693342 -0.345498
H11   H     H_    0.612609 0.416770 0.806676 0.141869
H12   H     H_    0.387272 0.583221 0.193318 0.141869

loop_
_geom_bond_atom_site_label_1
_geom_bond_atom_site_label_2
_ccdc_geom_bond_type
C34   C38   A    
C42   C44   A    
C58   N2    T    
C39   C41   A    
C60   N4    T    
C29   H7    S    
C18   C60   S    
O13   V3    S    
O4    C2    A    
V1    O19   S    
C61   N5    T    
C23   C25   A    
C57   N1    T    
C7    C9    S    
C16   C22   A    
O9    V1    S    
C11   C13   S    
C52   C54   T    
O3    C1    A    
C9    C11   T    
C54   C56   S    
O12   V4    S    
C35   C43   A    
C36   C38   A    
C21   C23   A    
O7    C3    A    
C6    C16   S    
O5    C7    A    
O7    V1    S    
O6    C8    A    
C3    C51   S    
O8    V2    S    
C41   C43   A    
O3    V1    S    
C46   C47   A    
O14   V4    S    
C31   H1    S    
C37   C64   S    
C30   H8    S    
C36   H12   S    
C15   C21   A    
C22   C57   S    
C2    C34   S    
C24   C26   A    
C8    C10   S    
C2    O12   A    
C34   C40   A    
C17   C19   A    
C18   C20   A    
C39   H10   S    
C17   C25   A    
O11   V3    S    
C47   H3    S    
C29   C31   A    
O17   V3    S    
C40   H9    S    
C22   C24   A    
C35   C37   A    
C19   H6    S    
C27   C28   A    
C48   C50   A    
O8    C4    A    
C59   N3    T    
C47   C49   A    
C15   C19   A    
C1    O11   A    
C25   C31   A    
O15   V3    S    
C35   H11   S    
C40   C42   A    
C45   C48   A    
C49   C61   S    
C13   C14   T    
C62   N6    T    
C24   C28   A    
O10   V2    S    
O1    V3    S    
C53   C55   S    
C33   C37   A    
C51   C53   T    
C48   H4    S    
C18   C26   A    
C43   C49   A    
C17   C59   S    
O18   V4    S    
O15   C5    A    
O16   C6    A    
O1    C3    A    
C28   C29   A    
C38   C63   S    
V2    O20   S    
O16   V4    S    
C21   C58   S    
C33   C39   A    
C23   C27   A    
C30   C32   A    
C32   H2    S    
C50   C62   S    
O5    V1    S    
O17   C7    A    
O6    V2    S    
C64   N8    T    
O10   C6    A    
O18   C8    A    
O2    V4    S    
C27   C30   A    
C12   C14   S    
V3    O19   S    
V4    O20   S    
C42   C46   A    
C41   C45   A    
O9    C5    A    
O13   V1    S    
C10   C12   T    
C1    C33   S    
O14   V2    S    
C45   C46   A    
O2    C4    A    
C26   C32   A    
C55   C56   T    
O4    V2    S    
C16   C20   A    
C36   C44   A    
C63   N7    T    
C44   C50   A    
C5    C15   S    
C20   H5    S    
C4    C52   S    
