data_mof_unit_46483.cif
_audit_creation_date              2012-12-10T19:00:13-0500
_audit_creation_method            fapswitch 2.2
_symmetry_space_group_name_H-M    P1
_symmetry_Int_Tables_number       1
_space_group_crystal_system       triclinic
_cell_length_a                    9.717348
_cell_length_b                    10.999698
_cell_length_c                    13.464439
_cell_angle_alpha                 92.497064
_cell_angle_beta                  75.144572
_cell_angle_gamma                 90.981138
_cell_volume                      1389.73461662

loop_
_atom_site_label
_atom_site_type_symbol
_atom_type_description
_atom_site_fract_x
_atom_site_fract_y
_atom_site_fract_z
_atom_type_partial_charge
C1    C     C_R   0.503193 0.736423 0.495299 0.846882
C2    C     C_R   0.441078 0.498778 0.975486 0.046516
C3    C     C_R   0.488837 0.467443 0.869189 -0.028190
C4    C     C_R   0.544016 0.521763 0.032381 0.024946
C5    C     C_R   0.690318 0.521742 0.980844 -0.013780
C6    C     C_R   0.733217 0.470300 0.880932 0.346179
C7    C     C_R   0.631059 0.430725 0.829634 0.275723
C8    C     C_R   0.508004 0.532668 0.139691 -0.252034
C9    C     C_R   0.751096 0.581896 0.141092 0.252944
C10   C     C_R   0.388666 0.456003 0.809489 -0.178170
C11   C     C_R   0.395023 0.932421 0.473915 -0.091065
C12   C     C_R   0.425821 0.483902 0.697668 0.812975
C13   C     C_R   0.512745 0.867900 0.481232 -0.198881
C14   C     C_R   0.640731 0.934932 0.470379 0.162182
C15   C     C_R   0.635800 0.063121 0.482651 0.374503
C16   C     C_R   0.508875 0.127560 0.484559 -0.222678
C17   C     C_R   0.396261 0.056534 0.466409 -0.078365
C18   C     C_3   0.236309 0.061786 0.497971 0.457097
C19   C     C_3   0.238477 0.922954 0.520311 0.419964
C20   C     C_R   0.959516 0.494580 0.410192 0.128960
C21   C     C_R   0.898405 0.539802 0.584308 0.412478
C22   C     C_R   0.045439 0.535006 0.585116 -0.101702
C23   C     C_R   0.500834 0.262157 0.497162 0.861131
C24   C     C_R   0.103732 0.490576 0.410937 0.116745
C25   C     C_3   0.135610 0.397317 0.325504 -0.521137
C26   C     C_3   0.985561 0.415042 0.314258 0.232422
C27   C     C_R   0.574655 0.515916 0.303270 0.784499
C28   C     C_R   0.790837 0.563238 0.033753 -0.129315
C29   C     C_R   0.612925 0.544462 0.193666 -0.122861
C30   C     C_R   0.251699 0.416860 0.860652 0.315740
C31   C     C_R   0.200390 0.448886 0.965482 -0.146278
C32   C     C_R   0.292648 0.498418 0.020629 -0.244179
Cu1   Cu    Cu3+1 0.359330 0.500020 0.500010 0.969235
Cu2   Cu    Cu3+1 0.640670 0.499980 0.499990 1.060792
H1    H     H_    0.077052 0.567684 0.652827 0.227829
H2    H     H_    0.218073 0.423557 0.257383 0.162585
H3    H     H_    0.150143 0.309120 0.356231 0.264647
H4    H     H_    0.986260 0.467772 0.245830 0.138595
H5    H     H_    0.899857 0.578152 0.991849 0.192566
H6    H     H_    0.400103 0.524045 0.182850 0.157641
H7    H     H_    0.246309 0.526594 0.099582 0.134646
H8    H     H_    0.090500 0.432207 0.005389 0.168805
N1    N     N_R   0.852320 0.499070 0.499340 -0.187490
N2    N     N_R   0.148230 0.499110 0.499340 -0.201812
O1    O     O_R   0.381190 0.680360 0.500000 -0.571717
O2    O     O_R   0.618780 0.680320 0.499990 -0.548844
O3    O     O_R   0.323230 0.500000 0.650990 -0.586103
O4    O     O_R   0.560820 0.499960 0.650980 -0.504785
O5    O     O_R   0.381220 0.319680 0.500010 -0.565240
O6    O     O_R   0.618810 0.319640 0.500000 -0.473734
O7    O     O_R   0.439180 0.500040 0.349020 -0.593120
O8    O     O_R   0.676770 0.500000 0.349010 -0.556857
N3    N     N_2   0.845429 0.637931 0.196228 -0.438849
H9    H     H_    0.794738 0.677831 0.266520 0.270354
C33   C     C_3   0.962135 0.712667 0.141397 -0.745889
H10   H     H_    0.921628 0.785521 0.101932 0.247433
H11   H     H_    0.041462 0.656389 0.085266 0.236499
H12   H     H_    0.017484 0.755847 0.196633 0.226915
Cl1   Cl    Cl    0.785178 0.133678 0.510826 -0.674791
N4    N     N_2   0.187221 0.144481 0.587195 -0.446125
H13   H     H_    0.220696 0.126904 0.651623 0.222358
C34   C     C_3   0.048949 0.200251 0.605886 -0.550964
H14   H     H_    0.964237 0.131549 0.630231 0.238738
H15   H     H_    0.037735 0.246478 0.536897 0.286379
H16   H     H_    0.036545 0.271026 0.668070 0.257864
N5    N     N_2   0.176722 0.088982 0.411775 -0.399181
H17   H     H_    0.077280 0.053150 0.414470 0.302151
C35   C     C_3   0.269719 0.105144 0.309327 -0.685064
H18   H     H_    0.204813 0.122611 0.254565 0.243655
H19   H     H_    0.335698 0.023658 0.280813 0.226733
H20   H     H_    0.342771 0.183618 0.310650 0.243538
N6    N     N_2   0.214433 0.894828 0.629125 -0.448862
H21   H     H_    0.284549 0.933656 0.667585 0.232076
C36   C     C_3   0.070883 0.882400 0.693109 -0.674088
H22   H     H_    0.075105 0.849332 0.769010 0.242330
H23   H     H_    0.009319 0.814672 0.659152 0.258060
H24   H     H_    0.015836 0.970774 0.706324 0.222665
N7    N     N_2   0.164569 0.836640 0.464811 -0.427308
H25   H     H_    0.137204 0.756722 0.502102 0.283449
C37   C     C_3   0.211428 0.812780 0.354264 -0.684912
H26   H     H_    0.173740 0.721375 0.334206 0.208294
H27   H     H_    0.329057 0.813177 0.325686 0.233522
H28   H     H_    0.161768 0.877491 0.313581 0.235927
Cl2   Cl    Cl    0.789231 0.628952 0.683570 -0.676537
Cl3   Cl    Cl    0.913011 0.442599 0.824267 -0.710279
Cl4   Cl    Cl    0.886851 0.278168 0.315533 -0.553414
N8    N     N_2   0.178474 0.329768 0.811326 -0.367320
H29   H     H_    0.230290 0.308724 0.736048 0.257099
C38   C     C_3   0.127710 0.221357 0.867635 -0.645839
H30   H     H_    0.073116 0.160215 0.821994 0.226492
H31   H     H_    0.048738 0.244497 0.941205 0.256265
H32   H     H_    0.218489 0.171782 0.882743 0.200216
N9    N     N_2   0.664910 0.338628 0.749181 -0.373443
H33   H     H_    0.767117 0.340374 0.702758 0.317069
C39   C     C_3   0.619663 0.217767 0.782844 -0.696437
H34   H     H_    0.640533 0.152181 0.716080 0.262904
H35   H     H_    0.503558 0.215669 0.819920 0.219686
H36   H     H_    0.679128 0.188558 0.837981 0.236528
N10   N     N_2   0.774358 0.875113 0.445227 -0.415778
H37   H     H_    0.848074 0.909968 0.383466 0.272914
C40   C     C_3   0.832813 0.853726 0.531011 -0.514605
H38   H     H_    0.908723 0.926922 0.540048 0.238444
H39   H     H_    0.891199 0.766996 0.514788 0.232730
H40   H     H_    0.747980 0.849059 0.603993 0.259508

loop_
_geom_bond_atom_site_label_1
_geom_bond_atom_site_label_2
_ccdc_geom_bond_type
N5    C35   S    
N8    H29   S    
N9    H33   S    
C31   H8    S    
C27   C29   S    
Cu1   O1    S    
C39   H34   S    
C4    C8    A    
C39   H36   S    
C14   N10   S    
N3    H9    S    
C22   H1    S    
C11   C19   S    
C40   H38   S    
C6    Cl3   S    
C36   H23   S    
C8    C29   A    
N4    C34   S    
C3    C7    A    
C12   O3    A    
C30   C31   A    
C37   H26   S    
N7    C37   S    
C1    O2    A    
C23   O5    A    
Cu1   O5    S    
C15   C16   A    
C2    C32   A    
C18   C19   S    
C34   H15   S    
C25   H3    S    
C21   N1    A    
C22   N2    A    
C20   C24   A    
C16   C17   A    
C36   H24   S    
C32   H7    S    
Cu2   O2    S    
C38   H31   S    
C9    C29   A    
N5    H17   S    
C40   H39   S    
C21   C22   A    
C19   N6    S    
C37   H28   S    
C27   O7    A    
Cu1   Cu2   S    
N3    C33   S    
C7    N9    S    
Cu2   O6    S    
C36   H22   S    
C24   C25   S    
N6    C36   S    
N7    H25   S    
C26   H4    S    
C23   O6    A    
C28   H5    S    
C25   C26   S    
Cu1   O7    S    
N4    H13   S    
C19   N7    S    
C2    C4    A    
C34   H14   S    
C5    C28   A    
C10   C30   A    
C31   C32   A    
C21   Cl2   S    
C26   Cl4   S    
C33   H10   S    
C17   C18   S    
C38   H32   S    
C10   C12   S    
C37   H27   S    
N10   C40   S    
C16   C23   S    
C33   H11   S    
Cu1   O3    S    
C9    N3    S    
C20   N1    A    
C27   O8    A    
C18   N4    S    
C11   C17   A    
C34   H16   S    
Cu1   N2    S    
C15   Cl1   S    
C35   H18   S    
Cu2   N1    S    
N6    H21   S    
C39   H35   S    
C6    C7    A    
C18   N5    S    
Cu2   O8    S    
N10   H37   S    
N8    C38   S    
C2    C3    A    
C30   N8    S    
C3    C10   A    
C11   C13   A    
C1    O1    A    
C5    C6    A    
C20   C26   S    
C35   H20   S    
C24   N2    A    
C12   O4    A    
C25   H2    S    
C1    C13   S    
C4    C5    A    
Cu2   O4    S    
N9    C39   S    
C33   H12   S    
C35   H19   S    
C14   C15   A    
C40   H40   S    
C8    H6    S    
C38   H30   S    
C13   C14   A    
C9    C28   A    
