data_mof_unit_33328.cif
_audit_creation_date              2012-10-26T21:04:54-0400
_audit_creation_method            fapswitch 2.2
_symmetry_space_group_name_H-M    P1
_symmetry_Int_Tables_number       1
_space_group_crystal_system       triclinic
_cell_length_a                    11.683306
_cell_length_b                    12.391542
_cell_length_c                    13.310041
_cell_angle_alpha                 117.101979
_cell_angle_beta                  77.123623
_cell_angle_gamma                 100.773192
_cell_volume                      1664.11307982

loop_
_atom_site_label
_atom_site_type_symbol
_atom_type_description
_atom_site_fract_x
_atom_site_fract_y
_atom_site_fract_z
_atom_type_partial_charge
C1    C     C_R   0.513800 0.854834 0.286649 0.521551
C2    C     C_R   0.635417 0.499673 0.115734 -0.128150
C3    C     C_R   0.615303 0.620451 0.157099 -0.119350
C4    C     C_R   0.715520 0.999500 0.499701 0.537742
C5    C     C_R   0.470085 0.348257 0.872548 -0.125677
C6    C     C_R   0.555727 0.196902 0.892962 -0.133719
C7    C     C_R   0.503996 0.773989 0.165828 0.005081
C8    C     C_R   0.702328 0.355151 0.347228 -0.151462
C9    C     C_R   0.345596 0.767352 0.650289 0.058977
C10   C     C_R   0.324374 0.685709 0.698395 -0.160363
C11   C     C_R   0.390000 0.586294 0.650734 -0.123829
C12   C     C_R   0.496606 0.228360 0.831218 0.003214
C13   C     C_R   0.472722 0.562478 0.549623 -0.004283
C14   C     C_R   0.499926 0.656258 0.511983 0.184561
C15   C     C_R   0.534878 0.454423 0.488321 -0.022220
C16   C     C_R   0.486257 0.145167 0.712702 0.548067
C17   C     C_R   0.636532 0.455745 0.407133 0.029873
C18   C     C_R   0.670616 0.556599 0.383794 -0.171175
C19   C     C_R   0.599262 0.650648 0.429443 -0.091934
C20   C     C_R   0.499637 0.343004 0.498869 0.125133
C21   C     C_R   0.666227 0.251165 0.364789 0.035912
C22   C     C_R   0.284501 0.000309 0.500050 0.557910
C23   C     C_R   0.442616 0.811117 0.109598 -0.128002
C24   C     C_1   0.837266 0.999057 0.499757 -0.021789
C25   C     C_1   0.939965 0.999386 0.499730 -0.038579
C26   C     C_1   0.060070 0.000135 0.499706 -0.031838
C27   C     C_1   0.162762 0.000554 0.499777 -0.002945
C28   C     C_R   0.597971 0.287247 0.990244 -0.128578
C29   C     C_1   0.389059 0.325367 0.566066 0.244946
C30   C     C_R   0.405882 0.728057 0.006750 -0.137869
C31   C     C_R   0.426148 0.606091 0.960482 -0.115613
C32   C     C_R   0.490726 0.565725 0.013126 0.036791
C33   C     C_R   0.536320 0.653642 0.113062 0.032005
C34   C     C_R   0.511568 0.441451 0.970800 0.031309
C35   C     C_R   0.580193 0.409295 0.026965 0.052904
Cu1   Cu    Cu3+1 0.526510 0.098270 0.475420 0.959126
Cu2   Cu    Cu3+1 0.473490 0.901730 0.524580 0.930050
H1    H     H_    0.577597 0.104523 0.861005 0.130545
H2    H     H_    0.422530 0.366655 0.822287 0.121275
H3    H     H_    0.417603 0.903159 0.148219 0.131672
H4    H     H_    0.390184 0.546235 0.883659 0.101652
H5    H     H_    0.356732 0.757277 0.965035 0.116111
H6    H     H_    0.664510 0.688916 0.221709 0.098906
H7    H     H_    0.717854 0.173966 0.320158 0.128679
H8    H     H_    0.750733 0.560523 0.325562 0.101711
H9    H     H_    0.780866 0.356640 0.286332 0.094610
H10   H     H_    0.296775 0.846470 0.689268 0.133891
H11   H     H_    0.379797 0.535247 0.699644 0.121203
H12   H     H_    0.260026 0.701719 0.774913 0.101430
H13   H     H_    0.625733 0.719281 0.399978 0.172239
H14   H     H_    0.696443 0.476296 0.151124 0.103742
H15   H     H_    0.649125 0.262493 0.033935 0.108935
N1    N     N_R   0.566700 0.246290 0.438210 -0.247297
N2    N     N_R   0.434010 0.754320 0.561170 -0.236488
N3    N     N_1   0.299833 0.312397 0.620417 -0.326765
O1    O     O_R   0.533340 0.972510 0.318140 -0.509162
O2    O     O_R   0.488570 0.806530 0.359650 -0.508290
O3    O     O_R   0.685190 0.083000 0.479260 -0.495063
O4    O     O_R   0.640410 0.917020 0.520770 -0.519352
O5    O     O_R   0.511430 0.193470 0.640350 -0.492061
O6    O     O_R   0.466660 0.027490 0.681860 -0.510317
O7    O     O_R   0.359590 0.082980 0.479230 -0.477511
O8    O     O_R   0.314810 0.917000 0.520740 -0.502072

loop_
_geom_bond_atom_site_label_1
_geom_bond_atom_site_label_2
_ccdc_geom_bond_type
C2    C35   A    
Cu2   O6    S    
C24   C25   T    
C6    H1    S    
Cu2   O2    S    
C10   H12   S    
Cu1   O1    S    
C1    O2    A    
C22   O7    A    
C21   H7    S    
C28   H15   S    
C9    C10   A    
C8    C17   A    
C22   C27   S    
C5    C34   A    
C9    N2    A    
C5    H2    S    
C17   C18   A    
C26   C27   T    
C25   C26   S    
C31   H4    S    
C13   C14   A    
C32   C33   A    
C21   N1    A    
C7    C33   A    
C19   H13   S    
C3    H6    S    
C11   H11   S    
Cu2   O4    S    
C34   C35   A    
C7    C23   A    
Cu2   N2    S    
C20   N1    A    
C4    O4    A    
Cu1   Cu2   S    
C14   N2    A    
C1    O1    A    
C9    H10   S    
Cu1   O3    S    
C20   C29   S    
C13   C15   A    
C6    C12   A    
C30   C31   A    
C4    C24   S    
Cu1   O7    S    
C10   C11   A    
C3    C33   A    
C23   H3    S    
C18   H8    S    
C12   C16   S    
C6    C28   A    
C11   C13   A    
C23   C30   A    
C5    C12   A    
C18   C19   A    
C16   O6    A    
C4    O3    A    
C15   C17   A    
C30   H5    S    
C2    C3    A    
Cu1   N1    S    
C29   N3    T    
C2    H14   S    
Cu2   O8    S    
C22   O8    A    
C1    C7    S    
C16   O5    A    
C14   C19   A    
C8    H9    S    
C31   C32   A    
C28   C35   A    
C32   C34   A    
C15   C20   A    
Cu1   O5    S    
C8    C21   A    
