data_mof_unit_8793.cif
_audit_creation_date              2012-12-10T19:04:18-0500
_audit_creation_method            fapswitch 2.2
_symmetry_space_group_name_H-M    P1
_symmetry_Int_Tables_number       1
_space_group_crystal_system       triclinic
_cell_length_a                    10.962708
_cell_length_b                    12.966593
_cell_length_c                    13.641613
_cell_angle_alpha                 85.97623
_cell_angle_beta                  88.778823
_cell_angle_gamma                 93.141901
_cell_volume                      1930.83751276

loop_
_atom_site_label
_atom_site_type_symbol
_atom_type_description
_atom_site_fract_x
_atom_site_fract_y
_atom_site_fract_z
_atom_type_partial_charge
C1    C     C_R   0.501933 0.481162 0.685104 1.048339
C2    C     C_3   0.120376 0.499600 0.505200 -0.436166
C3    C     C_3   0.074016 0.515638 0.391122 -0.264689
C4    C     C_3   0.078933 0.601299 0.567105 0.465854
C5    C     C_1   0.487237 0.533671 0.212897 -0.014431
C6    C     C_2   0.466987 0.543830 0.022912 -0.020650
C7    C     C_2   0.470021 0.453481 0.978483 -0.033976
C8    C     C_1   0.483395 0.456838 0.874818 0.011492
C9    C     C_1   0.477440 0.541839 0.126276 0.004891
C10   C     C_1   0.493899 0.465989 0.787826 0.062350
C11   C     C_2   0.487477 0.035089 0.464620 0.351224
C12   C     C_R   0.741496 0.497916 0.510248 1.017111
C13   C     C_2   0.519464 0.964950 0.538116 -0.278639
C14   C     C_1   0.520221 0.854125 0.523923 0.289448
C15   C     C_1   0.482615 0.145899 0.477031 0.245263
C16   C     C_R   0.496631 0.518819 0.315099 0.931991
C17   C     C_R   0.256887 0.499942 0.502528 0.885269
C18   C     C_3   0.917180 0.375344 0.544535 0.115688
C19   C     C_3   0.065274 0.380870 0.554755 0.120925
C20   C     C_3   0.925513 0.524545 0.396342 -0.214025
C21   C     C_3   0.931688 0.580599 0.589322 0.008846
C22   C     C_3   0.877434 0.495773 0.511123 -0.406705
N1    N     N_1   0.479840 0.234530 0.484780 -0.067952
N2    N     N_1   0.520150 0.765470 0.515220 -0.018041
O1    O     O_R   0.492620 0.402510 0.634760 -0.557976
O2    O     O_R   0.505570 0.572960 0.644530 -0.564239
O3    O     O_R   0.678730 0.414780 0.495130 -0.612546
O4    O     O_R   0.691680 0.585220 0.504900 -0.591354
O5    O     O_R   0.494430 0.427040 0.355470 -0.572830
O6    O     O_R   0.507380 0.597490 0.365240 -0.624682
O7    O     O_R   0.308320 0.414780 0.495100 -0.664449
O8    O     O_R   0.321270 0.585220 0.504870 -0.548027
Zn1   Zn    Zn3+2 0.491360 0.386190 0.493470 1.110024
Zn2   Zn    Zn3+2 0.508640 0.613810 0.506530 1.148119
C23   C     C_2   0.870058 0.300588 0.465773 0.465500
H1    H     H_    0.777593 0.265844 0.471378 0.161822
O9    O     O_2   0.930801 0.274004 0.396880 -0.601525
S1    S     S_3+6 0.114935 0.736548 0.502645 0.116801
O10   O     O_2   0.095172 0.816793 0.574859 -0.126873
O11   O     O_2   0.246670 0.754952 0.471297 -0.253899
O12   O     O_3   0.038503 0.775908 0.403356 -0.540495
H2    H     H_    0.068050 0.848791 0.386950 0.428441
C24   C     C_2   0.884824 0.631244 0.360375 0.666133
H3    H     H_    0.841847 0.678627 0.409003 0.167969
O13   O     O_2   0.888030 0.662200 0.273428 -0.454370
C25   C     C_2   0.143164 0.606861 0.332002 0.588225
H4    H     H_    0.233036 0.633569 0.352183 0.087447
O14   O     O_2   0.111970 0.638491 0.250388 -0.440085
C26   C     C_2   0.467540 0.348172 0.030411 0.493297
H5    H     H_    0.490970 0.282728 0.989635 0.082579
O15   O     O_2   0.436079 0.332049 0.116758 -0.511283
C27   C     C_2   0.462157 0.648751 0.971233 0.506847
H6    H     H_    0.478803 0.716747 0.012240 0.090018
O16   O     O_2   0.436581 0.661316 0.884754 -0.544485
C28   C     C_2   0.554214 0.994033 0.637883 0.443118
H7    H     H_    0.576872 0.933774 0.692749 0.112739
O17   O     O_2   0.558689 0.083556 0.660526 -0.503745
S2    S     S_3+6 0.451125 0.996265 0.346365 0.065507
O18   O     O_2   0.547567 0.928985 0.310289 -0.275539
O19   O     O_2   0.329675 0.936352 0.351953 -0.238000
O20   O     O_3   0.443145 0.101323 0.267562 -0.512387
H8    H     H_    0.420882 0.073647 0.204084 0.403438
S3    S     S_3+6 0.836188 0.300655 0.653456 0.088903
O21   O     O_2   0.700784 0.309700 0.651396 -0.279373
O22   O     O_2   0.856410 0.187596 0.645506 -0.196907
O23   O     O_3   0.876216 0.327065 0.767604 -0.461187
H9    H     H_    0.829442 0.274710 0.811998 0.398558
S4    S     S_3+6 0.124235 0.340462 0.679486 0.108942
O24   O     O_2   0.260789 0.339111 0.673609 -0.287978
O25   O     O_2   0.091598 0.402351 0.763421 -0.232680
O26   O     O_3   0.077320 0.217510 0.715739 -0.404952
H10   H     H_    0.123018 0.200049 0.775987 0.392328
C29   C     C_2   0.114601 0.285368 0.505650 0.630621
H11   H     H_    0.184707 0.287080 0.450184 0.057238
O27   O     O_2   0.075272 0.197124 0.531016 -0.431296
C30   C     C_2   0.854346 0.459589 0.322007 0.498731
H12   H     H_    0.892679 0.403386 0.278874 0.213796
O28   O     O_2   0.746397 0.470754 0.306986 -0.600082
C31   C     C_2   0.121868 0.432549 0.326787 0.386144
H13   H     H_    0.208786 0.401442 0.341883 0.072772
O29   O     O_2   0.088412 0.421984 0.243072 -0.485951
S5    S     S_3+6 0.855401 0.705362 0.611597 0.086340
O30   O     O_2   0.725814 0.685797 0.649443 -0.267272
O31   O     O_2   0.920350 0.754372 0.693943 -0.187419
O32   O     O_3   0.851910 0.797505 0.518880 -0.512805
H14   H     H_    0.815708 0.857105 0.547922 0.387060
C32   C     C_2   0.898819 0.530092 0.690952 0.630845
H15   H     H_    0.960582 0.524744 0.749038 0.182046
O33   O     O_2   0.792256 0.506315 0.714871 -0.538852
S6    S     S_3+6 0.174332 0.622775 0.679352 0.125139
O34   O     O_2   0.101869 0.650852 0.767268 -0.248100
O35   O     O_2   0.249745 0.534465 0.709422 -0.276710
O36   O     O_3   0.280218 0.721669 0.658184 -0.451787
H16   H     H_    0.318574 0.731106 0.722241 0.401238

loop_
_geom_bond_atom_site_label_1
_geom_bond_atom_site_label_2
_ccdc_geom_bond_type
C28   H7    S    
S3    O22   D    
O36   H16   S    
O5    Zn1   S    
O12   H2    S    
C23   H1    S    
C32   H15   S    
C3    C31   S    
C6    C9    S    
C21   C32   S    
C7    C8    S    
O32   H14   S    
O3    Zn1   S    
C12   O4    A    
C23   O9    D    
C30   O28   D    
S1    O10   D    
C18   S3    S    
S2    O19   D    
C12   C22   S    
C20   C30   S    
C18   C19   S    
C29   H11   S    
C14   N2    T    
C5    C16   S    
C11   C15   S    
O2    Zn2   S    
S4    O24   D    
N1    Zn1   S    
O7    Zn1   S    
C11   S2    S    
C18   C23   S    
S2    O20   S    
C15   N1    T    
O23   H9    S    
S3    O23   S    
O4    Zn2   S    
C21   C22   S    
C2    C17   S    
C1    O1    A    
C29   O27   D    
C27   O16   D    
C4    S6    S    
C25   O14   D    
O6    Zn2   S    
C12   O3    A    
C19   C29   S    
C30   H12   S    
C7    C26   S    
S1    O12   S    
C31   O29   D    
C26   O15   D    
S2    O18   D    
N2    Zn2   S    
C31   H13   S    
C19   S4    S    
O8    Zn2   S    
C2    C4    S    
C24   H3    S    
C5    C9    T    
S6    O35   D    
C3    C20   S    
C24   O13   D    
C8    C10   T    
C20   C22   S    
S5    O30   D    
S5    O31   D    
C28   O17   D    
C1    O2    A    
C17   O7    A    
C20   C24   S    
C27   H6    S    
S6    O36   S    
C25   H4    S    
C2    C19   S    
C18   C22   S    
C1    C10   S    
C4    S1    S    
C6    C7    D    
S5    O32   S    
C3    C25   S    
C32   O33   D    
C2    C3    S    
C16   O5    A    
O26   H10   S    
S1    O11   D    
C4    C21   S    
C11   C13   D    
S6    O34   D    
S4    O26   S    
O20   H8    S    
S3    O21   D    
C21   S5    S    
S4    O25   D    
C26   H5    S    
C17   O8    A    
C6    C27   S    
C13   C14   S    
C16   O6    A    
O1    Zn1   S    
C13   C28   S    
