data_mof_unit_45913.cif
_audit_creation_date              2012-12-10T19:07:36-0500
_audit_creation_method            fapswitch 2.2
_symmetry_space_group_name_H-M    P1
_symmetry_Int_Tables_number       1
_space_group_crystal_system       triclinic
_cell_length_a                    10.878668
_cell_length_b                    10.830555
_cell_length_c                    9.544965
_cell_angle_alpha                 90.40028
_cell_angle_beta                  91.442151
_cell_angle_gamma                 90.705537
_cell_volume                      1124.13557631

loop_
_atom_site_label
_atom_site_type_symbol
_atom_type_description
_atom_site_fract_x
_atom_site_fract_y
_atom_site_fract_z
_atom_type_partial_charge
C1    C     C_R   0.496554 0.262355 0.499422 0.793051
C2    C     C_R   0.941603 0.482209 0.625150 0.061496
C3    C     C_3   0.942172 0.562249 0.753301 -0.488303
C4    C     C_3   0.081338 0.568981 0.745595 0.128881
C5    C     C_R   0.476752 0.064739 0.623660 0.129306
C6    C     C_R   0.482454 0.129294 0.498032 -0.100543
C7    C     C_R   0.470691 0.063303 0.370960 -0.208411
C8    C     C_R   0.471533 0.934496 0.371456 -0.202760
C9    C     C_R   0.484357 0.870873 0.499008 -0.096852
C10   C     C_R   0.478305 0.937562 0.624163 0.189411
C11   C     C_3   0.561090 0.935218 0.751125 -0.487679
C12   C     C_R   0.262343 0.496215 0.497916 0.834631
C13   C     C_3   0.557774 0.075027 0.751764 -0.464063
C14   C     C_R   0.542492 0.600542 0.076107 0.263703
C15   C     C_R   0.446790 0.406232 0.072061 -0.045500
C16   C     C_R   0.446321 0.406456 0.923263 -0.070181
C17   C     C_R   0.542684 0.600508 0.928470 0.278657
C18   C     C_3   0.670711 0.650228 0.929615 -0.531129
C19   C     C_3   0.669122 0.653267 0.087912 -0.488653
C20   C     C_R   0.497544 0.737779 0.500096 0.825478
C21   C     C_R   0.737701 0.496992 0.501282 0.806401
C22   C     C_R   0.067583 0.486330 0.620242 0.046740
C23   C     C_R   0.128985 0.482974 0.493989 -0.115438
C24   C     C_R   0.058086 0.460908 0.369104 -0.033904
C25   C     C_R   0.929643 0.461526 0.374181 -0.242155
C26   C     C_R   0.870424 0.482429 0.501528 -0.076660
Cu1   Cu    Cu3+1 0.499990 0.499980 0.640670 0.964959
Cu2   Cu    Cu3+1 0.500010 0.500020 0.359330 0.958386
H1    H     H_    0.653519 0.899102 0.727384 0.193215
H2    H     H_    0.508726 0.113754 0.842570 0.195205
H3    H     H_    0.648363 0.119101 0.731145 0.206368
H4    H     H_    0.405473 0.329236 0.125806 0.143686
H5    H     H_    0.404172 0.329894 0.865973 0.141045
H6    H     H_    0.733442 0.580679 0.888610 0.217722
H7    H     H_    0.678918 0.742839 0.882952 0.198743
H8    H     H_    0.736308 0.589349 0.137029 0.218742
H9    H     H_    0.670253 0.748412 0.132433 0.198319
H10   H     H_    0.876435 0.450480 0.277236 0.158612
H11   H     H_    0.895125 0.651613 0.735768 0.224852
H12   H     H_    0.913871 0.509172 0.846460 0.172198
H13   H     H_    0.129760 0.523728 0.835001 0.156843
H14   H     H_    0.467470 0.110532 0.271326 0.160415
H15   H     H_    0.468568 0.885628 0.272015 0.166653
H16   H     H_    0.515365 0.893405 0.842551 0.210130
N1    N     N_R   0.500790 0.500930 0.147930 -0.191049
N2    N     N_R   0.500790 0.500890 0.852020 -0.188201
O1    O     O_R   0.500000 0.319640 0.618810 -0.591246
O2    O     O_R   0.500010 0.319680 0.381230 -0.595611
O3    O     O_R   0.319650 0.499970 0.618810 -0.564516
O4    O     O_R   0.319660 0.500010 0.381230 -0.574591
O5    O     O_R   0.499990 0.680320 0.618770 -0.564281
O6    O     O_R   0.500000 0.680360 0.381190 -0.587661
O7    O     O_R   0.680340 0.499990 0.618770 -0.582300
O8    O     O_R   0.680350 0.500030 0.381190 -0.591522
C27   C     C_1   0.111558 0.443059 0.233562 0.281697
N3    N     N_1   0.153452 0.428737 0.124491 -0.318334
Br1   Br    Br    0.141270 0.734433 0.702979 -0.524004

loop_
_geom_bond_atom_site_label_1
_geom_bond_atom_site_label_2
_ccdc_geom_bond_type
C4    Br1   S    
C2    C22   A    
C12   O4    A    
C23   C24   A    
Cu1   O7    S    
C1    O2    A    
C6    C7    A    
C25   H10   S    
C20   O5    A    
C4    C22   S    
C18   H7    S    
C9    C20   S    
C5    C13   S    
C14   C17   A    
C8    H15   S    
C27   N3    T    
C10   C11   S    
C12   O3    A    
C3    H11   S    
C7    C8    A    
C2    C26   A    
C24   C25   A    
C24   C27   S    
C21   O7    A    
Cu2   O6    S    
C12   C23   S    
C21   O8    A    
Cu1   O3    S    
Cu1   N2    S    
C5    C10   A    
C21   C26   S    
Cu1   O5    S    
C3    H12   S    
C17   C18   S    
C14   N1    A    
C2    C3    S    
C19   H8    S    
C18   H6    S    
C5    C6    A    
C16   H5    S    
Cu2   N1    S    
C4    H13   S    
C15   N1    A    
Cu1   O1    S    
C1    C6    S    
C11   H16   S    
C13   H2    S    
C11   C13   S    
C17   N2    A    
C11   H1    S    
C20   O6    A    
C18   C19   S    
C9    C10   A    
C7    H14   S    
C16   N2    A    
Cu1   Cu2   S    
Cu2   O8    S    
C22   C23   A    
C1    O1    A    
C19   H9    S    
C25   C26   A    
Cu2   O4    S    
C14   C19   S    
C13   H3    S    
Cu2   O2    S    
C3    C4    S    
C15   C16   A    
C8    C9    A    
C15   H4    S    
