data_mof_unit_25628.cif
_audit_creation_date              2013-03-05T15:45:02-0500
_audit_creation_method            fapswitch 2.2
_symmetry_space_group_name_H-M    P1
_symmetry_Int_Tables_number       1
_space_group_crystal_system       triclinic
_cell_length_a                    9.977423
_cell_length_b                    11.036492
_cell_length_c                    13.001325
_cell_angle_alpha                 88.144632
_cell_angle_beta                  75.440113
_cell_angle_gamma                 110.227158
_cell_volume                      1288.95279886

loop_
_atom_site_label
_atom_site_type_symbol
_atom_site_description
_atom_site_fract_x
_atom_site_fract_y
_atom_site_fract_z
_atom_type_partial_charge
O1    O     O_R   0.578710 0.332530 0.490040 -0.582097
O2    O     O_R   0.421290 0.667470 0.509960 -0.510966
O3    O     O_R   0.329810 0.295070 0.521560 -0.571171
O4    O     O_R   0.670190 0.704930 0.478440 -0.589109
C1    C     C_R   0.442211 0.254968 0.502640 0.820688
C2    C     C_R   0.559349 0.744686 0.486804 0.906877
O5    O     O_R   0.604230 0.515670 0.637800 -0.573471
O6    O     O_R   0.395770 0.484330 0.362200 -0.611752
O7    O     O_R   0.355330 0.478200 0.669330 -0.550189
O8    O     O_R   0.644670 0.521800 0.330670 -0.527167
C3    C     C_R   0.473044 0.494422 0.702004 0.867626
C4    C     C_R   0.527037 0.504854 0.297986 0.867597
Cu1   Cu    Cu3+1 0.647370 0.522180 0.481340 1.040947
Cu2   Cu    Cu3+1 0.352630 0.477820 0.518660 1.052932
C5    C     C_R   0.543698 0.515662 0.183390 -0.120372
C6    C     C_R   0.457697 0.481454 0.816404 -0.097837
C7    C     C_R   0.338119 0.351826 0.991034 0.154747
C8    C     C_R   0.668319 0.640910 0.007429 0.142552
C9    C     C_R   0.347424 0.371137 0.881995 0.036340
C10   C     C_R   0.657692 0.623095 0.116723 0.030511
C11   C     C_R   0.560810 0.574246 0.857435 0.090287
C12   C     C_R   0.442479 0.421240 0.142162 0.108930
C13   C     C_R   0.558895 0.553238 0.965632 0.036448
C14   C     C_R   0.445673 0.440955 0.033477 0.045907
C15   C     C_2   0.418686 0.115827 0.504845 -0.077489
C16   C     C_2   0.587575 0.875717 0.442624 -0.015422
C17   C     C_2   0.535494 0.079633 0.458905 -0.018442
C18   C     C_2   0.543388 0.958202 0.505914 -0.029344
N1    N     N_2   0.131210 0.444490 0.546730 -0.290474
N2    N     N_2   0.868790 0.555510 0.453270 -0.290919
C19   C     C_2   0.078992 0.496946 0.480621 0.020302
C20   C     C_2   0.916144 0.478874 0.502785 -0.015924
N3    N     N_3   0.341190 0.302523 0.209626 -0.519508
H1    H     H_    0.399804 0.261085 0.246405 0.238820
H2    H     H_    0.260806 0.321891 0.268044 0.282049
N4    N     N_3   0.664465 0.692040 0.789824 -0.520522
H3    H     H_    0.745104 0.670848 0.732960 0.282901
H4    H     H_    0.608213 0.734436 0.751417 0.219522
N5    N     N_3   0.761306 0.715772 0.161605 -0.519022
H5    H     H_    0.756848 0.807705 0.146912 0.224823
H6    H     H_    0.868653 0.719086 0.124766 0.246481
N6    N     N_3   0.247868 0.276165 0.835844 -0.540245
H7    H     H_    0.261991 0.187369 0.845496 0.217110
H8    H     H_    0.138347 0.264265 0.875687 0.252140
N7    N     N_3   0.218163 0.242184 0.058313 -0.523438
H9    H     H_    0.116873 0.249476 0.057043 0.230227
H10   H     H_    0.223517 0.156155 0.029541 0.223725
N8    N     N_3   0.791628 0.747385 0.939199 -0.530549
H11   H     H_    0.789057 0.835256 0.965462 0.226457
H12   H     H_    0.891046 0.737626 0.942498 0.225295
C21   C     C_2   0.502701 0.931967 0.625641 0.852446
O9    O     O_2   0.542376 0.022158 0.676848 -0.590079
O10   O     O_R   0.414461 0.807232 0.679938 -0.763711
H13   H     H_    0.391681 0.804349 0.760699 0.329329
C22   C     C_2   0.661055 0.164829 0.366668 0.857324
O11   O     O_2   0.788157 0.170216 0.356927 -0.543439
O12   O     O_R   0.632557 0.237594 0.290491 -0.803948
H14   H     H_    0.725938 0.291648 0.232334 0.342987
N9    N     N_3   0.623235 0.895881 0.327589 -0.590719
H15   H     H_    0.732804 0.960031 0.295427 0.266486
H16   H     H_    0.548631 0.929110 0.302899 0.234704
N10   N     N_3   0.281418 0.021952 0.571399 -0.533553
H17   H     H_    0.265400 0.047867 0.648968 0.243933
H18   H     H_    0.195234 0.029595 0.542910 0.250008
C23   C     C_2   0.810597 0.354917 0.569578 0.922751
O13   O     O_2   0.818441 0.251969 0.542981 -0.553225
O14   O     O_R   0.719457 0.355805 0.670115 -0.735752
H19   H     H_    0.659120 0.265372 0.710493 0.353677
C24   C     C_2   0.171204 0.555568 0.370431 0.901479
O15   O     O_2   0.137160 0.503334 0.294384 -0.607359
O16   O     O_R   0.289785 0.674845 0.352815 -0.715690
H20   H     H_    0.341767 0.705948 0.273811 0.320083
C25   C     C_2   0.963346 0.687458 0.414092 1.023880
O17   O     O_2   0.954617 0.739840 0.333090 -0.572520
O18   O     O_R   0.059852 0.758883 0.470688 -0.743361
H21   H     H_    0.120616 0.851052 0.433920 0.336059
C26   C     C_2   0.056236 0.420899 0.658322 1.051173
O19   O     O_2   0.039937 0.320478 0.710824 -0.584937
O20   O     O_R   0.006318 0.514029 0.708230 -0.742937
H22   H     H_    0.955958 0.485917 0.787752 0.328100

loop_
_geom_bond_atom_site_label_1
_geom_bond_atom_site_label_2
_geom_bond_distance
_ccdc_geom_bond_type
C22   O11   1.222460 D    
C6    C11   1.405194 A    
C25   O17   1.221638 D    
O7    Cu2   1.965975 S    
N5    H6    1.044865 S    
C11   N4    1.439297 S    
O10   H13   1.013904 S    
O5    C3    1.300286 A    
O1    C1    1.298842 A    
N4    H3    1.044441 S    
C7    N7    1.437174 S    
C18   C21   1.497831 S    
C17   C22   1.499585 S    
N7    H10   1.045129 S    
O4    Cu1   1.947933 S    
C24   O16   1.397296 S    
N10   H18   1.044987 S    
N3    H2    1.043356 S    
C5    C12   1.404914 A    
C23   O14   1.394606 S    
C13   C14   1.431803 A    
C16   N9    1.438447 S    
C9    N6    1.437282 S    
C26   O19   1.221173 D    
N8    H12   1.045162 S    
N9    H15   1.042600 S    
Cu1   Cu2   2.719330 S    
C25   O18   1.399603 S    
O2    C2    1.295173 A    
N6    H8    1.044699 S    
C26   O20   1.400074 S    
C11   C13   1.412527 A    
C5    C10   1.398568 A    
N9    H16   1.045410 S    
C7    C14   1.423594 A    
O14   H19   1.012835 S    
Cu1   N2    2.042811 S    
O4    C2    1.305957 A    
N5    H5    1.044433 S    
C10   N5    1.437426 S    
N7    H9    1.045284 S    
C21   O9    1.222169 D    
C21   O10   1.398244 S    
O18   H21   1.013492 S    
N10   H17   1.045779 S    
C3    C6    1.453517 S    
C19   C20   1.516441 S    
C4    C5    1.453255 S    
C19   C24   1.477531 S    
O6    C4    1.302492 A    
N3    H1    1.044595 S    
O7    C3    1.304713 A    
C8    C13   1.423153 A    
O3    Cu2   1.947933 S    
O8    C4    1.302754 A    
C1    C15   1.469213 S    
N8    H11   1.044966 S    
C22   O12   1.398088 S    
C12   C14   1.413413 A    
O1    Cu1   1.953779 S    
N6    H7    1.045188 S    
Cu2   N1    2.042810 S    
N2    C25   1.424958 S    
C12   N3    1.439320 S    
O6    Cu2   1.963997 S    
O3    C1    1.313644 A    
O8    Cu1   1.965976 S    
C8    N8    1.437182 S    
C15   C17   1.364527 D    
C16   C18   1.357874 D    
N4    H4    1.044347 S    
O16   H20   1.013942 S    
N1    C19   1.321684 D    
N2    C20   1.321750 D    
O12   H14   1.013865 S    
C2    C16   1.443525 S    
C6    C9    1.398154 A    
C7    C9    1.401553 A    
C8    C10   1.400285 A    
C15   N10   1.436246 S    
C24   O15   1.222950 D    
O2    Cu2   1.953778 S    
O20   H22   1.013856 S    
O5    Cu1   1.963994 S    
N1    C26   1.423909 S    
C23   O13   1.220627 D    
C17   C18   1.489953 S    
C20   C23   1.483832 S    
