data_mof_unit_16116.cif
_audit_creation_date              2012-12-11T18:45:03-0500
_audit_creation_method            fapswitch 2.2
_symmetry_space_group_name_H-M    P1
_symmetry_Int_Tables_number       1
_space_group_crystal_system       triclinic
_cell_length_a                    8.337367
_cell_length_b                    14.644719
_cell_length_c                    18.888712
_cell_angle_alpha                 98.714545
_cell_angle_beta                  90.539697
_cell_angle_gamma                 92.90048
_cell_volume                      2276.39506182

loop_
_atom_site_label
_atom_site_type_symbol
_atom_type_description
_atom_site_fract_x
_atom_site_fract_y
_atom_site_fract_z
_atom_type_partial_charge
Ba1   Ba    Ba6+2 0.843240 0.541620 0.463500 1.755253
Ba2   Ba    Ba6+2 0.346570 0.458460 0.536510 1.792545
C1    C     C_3   0.654838 0.842368 0.220313 0.266878
C2    C     C_R   0.902867 0.419102 0.097866 -0.003683
C3    C     C_R   0.747251 0.384310 0.075930 -0.015771
C4    C     C_3   0.151735 0.759550 0.263103 0.317249
C5    C     C_R   0.684184 0.392716 0.008472 0.039321
C6    C     C_R   0.777646 0.437797 0.960496 0.034577
C7    C     C_R   0.933128 0.474999 0.982215 0.022425
C8    C     C_R   0.720340 0.444455 0.891056 -0.118421
C9    C     C_R   0.817003 0.481956 0.840847 0.014167
C10   C     C_R   0.973253 0.520870 0.862481 0.002298
C11   C     C_R   0.029790 0.517197 0.933710 -0.008294
C12   C     C_3   0.591074 0.758501 0.253108 0.304221
C13   C     C_R   0.765329 0.476601 0.768317 0.048455
C14   C     C_R   0.868030 0.510250 0.719778 -0.214466
C15   C     C_R   0.017780 0.554488 0.739217 0.054754
C16   C     C_3   0.103147 0.750470 0.184447 -0.296838
C17   C     C_R   0.073486 0.561719 0.812968 -0.032038
C18   C     C_R   0.148109 0.504367 0.074318 -0.005023
C19   C     C_R   0.206541 0.500039 0.145025 -0.036837
C20   C     C_R   0.113238 0.452934 0.192835 -0.065094
C21   C     C_R   0.969875 0.402834 0.163774 0.388226
C22   C     C_R   0.223799 0.604788 0.840234 0.409389
C23   C     C_3   0.492606 0.314949 0.323620 0.353971
C24   C     C_R   0.284432 0.593269 0.908245 0.017934
C25   C     C_R   0.186044 0.551635 0.955711 -0.044104
C26   C     C_R   0.244300 0.545953 0.025891 0.042763
C27   C     C_R   0.443046 0.624231 0.930429 -0.025281
C28   C     C_3   0.099342 0.777070 0.660434 0.260982
C29   C     C_R   0.500126 0.617646 0.998570 -0.117706
C30   C     C_R   0.401223 0.580048 0.046985 0.034001
C31   C     C_R   0.361752 0.539953 0.166483 -0.025731
C32   C     C_R   0.459053 0.575700 0.115851 -0.121457
C33   C     C_R   0.415531 0.543327 0.237962 -0.022838
C34   C     C_3   0.450346 0.281062 0.245085 -0.254273
C35   C     C_R   0.316073 0.506958 0.286847 -0.290129
C36   C     C_R   0.169707 0.459048 0.266242 0.063014
C37   C     C_R   0.684561 0.946397 0.537119 0.369681
C38   C     C_R   0.509372 0.800067 0.499056 0.079976
C39   C     C_R   0.369485 0.761815 0.461167 -0.264841
C40   C     C_3   0.156888 0.863993 0.716253 0.637990
C41   C     C_R   0.268447 0.817500 0.428654 -0.065664
C42   C     C_R   0.314719 0.907645 0.425120 -0.067795
C43   C     C_R   0.460419 0.947838 0.455550 -0.037175
C44   C     C_R   0.554145 0.896947 0.497866 -0.101641
C45   C     C_3   0.171206 0.254312 0.735066 0.651948
C46   C     C_R   0.640988 0.087785 0.484949 -0.154795
C47   C     C_R   0.738435 0.035123 0.523857 -0.070482
C48   C     C_R   0.681344 0.185860 0.490905 -0.014529
C49   C     C_R   0.813895 0.224413 0.534100 0.050400
C50   C     C_R   0.925844 0.167926 0.556772 0.034871
C51   C     C_R   0.887118 0.073946 0.552923 -0.064302
C52   C     C_3   0.008337 0.251023 0.385577 0.345505
C53   C     C_R   0.505135 0.040249 0.447197 0.411241
C54   C     C_3   0.945512 0.150282 0.363812 0.306459
C55   C     C_3   0.675792 0.672482 0.672887 0.362193
C56   C     C_3   0.197353 0.215628 0.805426 -0.121919
C57   C     C_3   0.707289 0.704313 0.752978 -0.301709
C58   C     C_3   0.340228 0.884064 0.718237 -0.177745
C59   C     C_3   0.667356 0.819332 0.138865 -0.314522
C60   C     C_3   0.212456 0.290190 0.871458 -0.454922
C61   C     C_3   0.534160 0.172178 0.677733 -0.305591
C62   C     C_3   0.520112 0.348660 0.988068 -0.406400
C63   C     C_3   0.107047 0.800019 0.584621 -0.290881
C64   C     C_3   0.629223 0.239975 0.734274 0.244045
C65   C     C_3   0.685415 0.193095 0.796877 0.256474
C66   C     C_R   0.993715 0.467591 0.051950 -0.043082
Cl1   Cl    Cl    0.074575 0.968019 0.698787 -0.571167
Cl2   Cl    Cl    0.734267 0.922371 0.622409 -0.613899
Cl3   Cl    Cl    0.394777 0.086842 0.382139 -0.574117
Cl4   Cl    Cl    0.090164 0.849873 0.803636 -0.560333
Cl5   Cl    Cl    0.053118 0.090528 0.291253 -0.494237
Cl6   Cl    Cl    0.525300 0.935418 0.241525 -0.604760
Cl7   Cl    Cl    0.009819 0.326685 0.745624 -0.817058
Cl8   Cl    Cl    0.789892 0.091727 0.768968 -0.532824
Cl9   Cl    Cl    0.891890 0.302839 0.195996 -0.644182
Cl10  Cl    Cl    0.329198 0.688001 0.799365 -0.712125
Cl11  Cl    Cl    0.839730 0.343790 0.563998 -0.672476
H1    H     H_    0.576611 0.779537 0.311774 0.028875
H2    H     H_    0.663138 0.650158 0.784027 0.064341
H3    H     H_    0.646098 0.768715 0.772311 0.211352
H4    H     H_    0.472866 0.734456 0.227691 -0.066023
H5    H     H_    0.381125 0.336200 0.351739 -0.022655
H6    H     H_    0.580323 0.375185 0.327273 0.043307
H7    H     H_    0.348780 0.228335 0.240832 0.196130
H8    H     H_    0.415705 0.339154 0.217870 0.008284
H9    H     H_    0.555161 0.249502 0.217188 0.185287
H10   H     H_    0.207949 0.731632 0.150459 0.077409
H11   H     H_    0.275080 0.297188 0.722130 0.086436
H12   H     H_    0.914239 0.290274 0.415714 -0.069182
H13   H     H_    0.095734 0.166667 0.813457 0.222329
H14   H     H_    0.306835 0.175842 0.802134 0.093498
H15   H     H_    0.733573 0.264996 0.706096 0.128735
H16   H     H_    0.580981 0.173496 0.828367 0.060203
H17   H     H_    0.190970 0.691063 0.273188 -0.043250
H18   H     H_    0.765730 0.242369 0.833231 0.079988
H19   H     H_    0.672304 0.350423 0.111703 0.125238
H20   H     H_    0.829666 0.500405 0.664338 0.096491
H21   H     H_    0.599886 0.418821 0.875605 0.106038
H22   H     H_    0.526623 0.652955 0.895340 0.130827
H23   H     H_    0.117004 0.252930 0.420024 0.047024
H24   H     H_    0.622487 0.642227 0.013369 0.078193
H25   H     H_    0.581053 0.600974 0.129159 0.098852
H26   H     H_    0.252630 0.812375 0.274038 0.067878
H27   H     H_    0.358010 0.511781 0.341754 0.042449
H28   H     H_    0.332346 0.690085 0.461850 0.062125
H29   H     H_    0.229901 0.946209 0.399671 0.164526
H30   H     H_    0.971812 0.031439 0.574470 0.176941
H31   H     H_    0.006063 0.695483 0.171565 0.122793
H32   H     H_    0.060163 0.817092 0.172390 0.155577
H33   H     H_    0.975017 0.755510 0.671223 0.047431
H34   H     H_    0.817745 0.148218 0.346632 0.089938
H35   H     H_    0.406521 0.822970 0.725559 0.182953
H36   H     H_    0.381705 0.907381 0.667942 0.094757
H37   H     H_    0.374859 0.940118 0.763071 0.163844
H38   H     H_    0.547494 0.797117 0.114137 0.132777
H39   H     H_    0.714410 0.881250 0.116720 0.174688
H40   H     H_    0.750877 0.763094 0.124208 0.088076
H41   H     H_    0.248362 0.258104 0.918317 0.145691
H42   H     H_    0.095367 0.321078 0.884066 0.180323
H43   H     H_    0.302696 0.345510 0.862743 0.161771
H44   H     H_    0.482564 0.210826 0.637809 0.135391
H45   H     H_    0.955072 0.112023 0.409801 -0.064895
H46   H     H_    0.614864 0.121994 0.649013 0.152695
H47   H     H_    0.437847 0.132505 0.701487 0.136309
H48   H     H_    0.463425 0.317204 0.032257 0.134357
H49   H     H_    0.439886 0.401352 0.974050 0.115071
H50   H     H_    0.530677 0.293164 0.941609 0.128177
H51   H     H_    0.224229 0.834859 0.576123 0.035201
H52   H     H_    0.092327 0.735371 0.545659 0.125568
H53   H     H_    0.013222 0.847229 0.574629 0.185470
H54   H     H_    0.784930 0.643726 0.647456 -0.092325
H55   H     H_    0.578394 0.617702 0.666155 0.090919
H56   H     H_    0.775537 0.865654 0.243634 0.141096
H57   H     H_    0.837129 0.717330 0.764817 0.106876
O1    O     O_2   0.887710 0.436190 0.327560 -0.419613
O2    O     O_2   0.255681 0.170774 0.551609 -0.500722
O3    O     O_3   0.140723 0.179996 0.679641 -0.566956
O4    O     O_3   0.135370 0.443490 0.416520 -0.511612
O5    O     O_3   0.551980 0.615210 0.532020 -0.500540
O6    O     O_2   0.394410 0.269100 0.474240 -0.435974
O7    O     O_3   0.560910 0.242721 0.352213 -0.571591
O8    O     O_2   0.431705 0.471788 0.756388 -0.481508
O9    O     O_3   0.532203 0.311471 0.763847 -0.662525
O10   O     O_3   0.634420 0.609440 0.364670 -0.478724
O11   O     O_2   0.739054 0.516424 0.245247 -0.468969
O12   O     O_3   0.630979 0.747804 0.641312 -0.565207
O13   O     O_3   0.047096 0.288251 0.323817 -0.551035
O14   O     O_3   0.700527 0.688420 0.240615 -0.599872
O15   O     O_2   0.795290 0.730930 0.525800 -0.462037
O16   O     O_3   0.044470 0.660110 0.398750 -0.476375
O17   O     O_2   0.932435 0.824269 0.438719 -0.478217
O18   O     O_3   0.021223 0.788275 0.305653 -0.553319
O19   O     O_2   0.301980 0.563840 0.672490 -0.391528
O20   O     O_3   0.054330 0.556590 0.583490 -0.475144
O21   O     O_3   0.555270 0.390630 0.635330 -0.431028
O22   O     O_3   0.205312 0.706371 0.663758 -0.597061
O23   O     O_3   0.637720 0.384870 0.467990 -0.429324
O24   O     O_3   0.145220 0.339960 0.601250 -0.399574
P1    P     P_3+3 0.061800 0.409390 0.339760 1.063123
P2    P     P_3+3 0.622760 0.718740 0.547830 1.065314
P3    P     P_3+3 0.067251 0.776029 0.394070 0.988666
P4    P     P_3+3 0.127890 0.590690 0.660240 1.070514
P5    P     P_3+3 0.119671 0.217618 0.596113 1.068364
P6    P     P_3+3 0.618438 0.589795 0.271406 0.951397
P7    P     P_3+3 0.571326 0.268661 0.445881 1.074790
P8    P     P_3+3 0.575478 0.414550 0.729614 0.954070

loop_
_geom_bond_atom_site_label_1
_geom_bond_atom_site_label_2
_ccdc_geom_bond_type
C56   C60   S    
C46   C53   A    
O20   P4    S    
C38   C39   A    
Ba2   O19   S    
C59   H40   S    
C58   H35   S    
C57   H3    S    
C63   H51   S    
C5    C6    A    
C43   C44   A    
C34   H9    S    
C38   C44   A    
C24   C25   A    
O17   P3    D    
O2    P5    D    
C54   H45   S    
O11   P6    D    
C56   H14   S    
C22   C24   A    
C55   C57   S    
C19   C31   A    
C13   C14   A    
C20   C36   A    
C57   H57   S    
C33   P6    S    
Ba1   O16   S    
Ba1   Ba2   S    
O3    P5    S    
C1    Cl6   S    
C7    C11   A    
C64   O9    S    
C15   C17   A    
O6    P7    D    
C9    C13   A    
C37   Cl2   S    
C36   P1    S    
Ba2   O24   S    
C6    C7    A    
C62   H49   S    
C23   H5    S    
C54   H34   S    
C12   H1    S    
C60   H41   S    
O22   P4    S    
C64   H15   S    
C62   H48   S    
C1    C59   S    
C64   C65   S    
O10   P6    S    
C61   C64   S    
Ba1   P1    S    
O5    P2    S    
C19   C20   A    
C65   H16   S    
C39   C41   A    
C55   H54   S    
Ba1   O10   S    
C23   O7    S    
C12   H4    S    
O21   P8    S    
C23   H6    S    
C63   H52   S    
C18   C66   A    
C48   C49   A    
C52   O13   S    
C42   H29   S    
C34   H8    S    
C4    C16   S    
C52   C54   S    
O14   P6    S    
C59   H38   S    
C49   C50   A    
C28   C63   S    
C57   H2    S    
O18   P3    S    
C26   C30   A    
C16   H32   S    
Ba2   P4    S    
C2    C66   A    
C2    C21   A    
C14   C15   A    
C18   C26   A    
C34   H7    S    
O4    P1    S    
C40   Cl1   S    
C32   H25   S    
C28   H33   S    
C30   C32   A    
Ba1   O20   S    
C41   C42   A    
C38   P2    S    
C35   C36   A    
C15   P4    S    
C50   P5    S    
C29   C30   A    
Ba1   O23   S    
O15   P2    D    
C18   C19   A    
C40   Cl4   S    
C31   C32   A    
C27   H22   S    
C4    O18   S    
O24   P5    S    
C3    H19   S    
C62   H50   S    
C8    H21   S    
Ba1   O4    S    
O7    P7    S    
C61   H46   S    
C1    C12   S    
C37   C44   A    
C22   Cl10  S    
C46   C47   A    
C37   C47   A    
O8    P8    D    
Ba1   P2    S    
C4    H17   S    
O16   P3    S    
Ba2   O6    S    
C45   H11   S    
C55   H55   S    
C58   H37   S    
O13   P1    S    
Ba2   O23   S    
C40   C58   S    
C60   H43   S    
C63   H53   S    
Ba1   O1    S    
C50   C51   A    
C3    C5    A    
C51   H30   S    
C28   O22   S    
C21   Cl9   S    
Ba2   O20   S    
C54   Cl5   S    
C39   H28   S    
C33   C35   A    
C59   H39   S    
C16   H10   S    
C52   H23   S    
C28   C40   S    
C42   C43   A    
C16   H31   S    
C2    C3    A    
C61   H44   S    
C9    C10   A    
C14   H20   S    
O19   P4    D    
Ba2   O4    S    
C17   C22   A    
C7    C66   A    
O12   P2    S    
C35   H27   S    
C27   C29   A    
C45   C56   S    
O1    P1    D    
Ba2   O21   S    
C47   C51   A    
C10   C17   A    
C46   C48   A    
C31   C33   A    
C4    H26   S    
O23   P7    S    
Ba1   O15   S    
C1    H56   S    
C13   P8    S    
C49   Cl11  S    
C5    C62   S    
C61   H47   S    
Ba1   O5    S    
C8    C9    A    
C65   H18   S    
C23   C34   S    
C45   Cl7   S    
C12   O14   S    
C52   H12   S    
C10   C11   A    
C43   C53   A    
C24   C27   A    
C6    C8    A    
C55   O12   S    
C45   O3    S    
C48   P7    S    
Ba2   O5    S    
C20   C21   A    
C11   C25   A    
C58   H36   S    
C65   Cl8   S    
C56   H13   S    
C60   H42   S    
C53   Cl3   S    
C29   H24   S    
C25   C26   A    
O9    P8    S    
C41   P3    S    
