data_mof_unit_7654.cif
_audit_creation_date              2012-12-11T14:23:05-0500
_audit_creation_method            fapswitch 2.2
_symmetry_space_group_name_H-M    P1
_symmetry_Int_Tables_number       1
_space_group_crystal_system       triclinic
_cell_length_a                    11.085808
_cell_length_b                    11.012942
_cell_length_c                    18.873806
_cell_angle_alpha                 90.290922
_cell_angle_beta                  89.420621
_cell_angle_gamma                 59.346902
_cell_volume                      1982.03806071

loop_
_atom_site_label
_atom_site_type_symbol
_atom_type_description
_atom_site_fract_x
_atom_site_fract_y
_atom_site_fract_z
_atom_type_partial_charge
C1    C     C_R   0.240229 0.644485 0.610952 0.544135
C2    C     C_3   0.666879 0.556312 0.800537 -0.249513
C3    C     C_3   0.699702 0.674951 0.811817 0.045391
C4    C     C_3   0.668308 0.648680 0.676524 0.052814
C5    C     C_3   0.816970 0.621728 0.689822 -0.244381
C6    C     C_3   0.645627 0.542609 0.721130 -0.214257
C7    C     C_R   0.689443 0.159527 0.824214 -0.011209
C8    C     C_R   0.804346 0.142994 0.782126 0.019107
C9    C     C_R   0.794542 0.143332 0.706790 0.014236
C10   C     C_R   0.552901 0.200352 0.719082 -0.160218
C11   C     C_R   0.563551 0.195730 0.791136 -0.163238
C12   C     C_R   0.652801 0.622461 0.601185 0.552670
C13   C     C_R   0.927825 0.127230 0.811938 -0.093475
C14   C     C_R   0.041686 0.101057 0.769019 -0.137436
C15   C     C_R   0.035573 0.090380 0.695976 -0.131143
C16   C     C_R   0.914328 0.109014 0.665010 -0.087277
C17   C     C_R   0.665097 0.177811 0.675645 -0.011327
C18   C     C_R   0.193345 0.656975 0.836930 -0.008746
C19   C     C_R   0.197862 0.543491 0.798864 0.022810
C20   C     C_R   0.190445 0.548610 0.723710 0.019844
C21   C     C_R   0.225884 0.749129 0.727718 -0.151432
C22   C     C_R   0.218775 0.751783 0.800764 -0.154560
C23   C     C_R   0.628168 0.228465 0.602730 0.533455
C24   C     C_R   0.208803 0.425524 0.833939 -0.098792
C25   C     C_R   0.198204 0.322211 0.796824 -0.150352
C26   C     C_R   0.174166 0.335486 0.724430 -0.160007
C27   C     C_R   0.168709 0.448040 0.688145 -0.113718
C28   C     C_R   0.206058 0.653287 0.687535 -0.004179
C29   C     C_R   0.689688 0.686657 0.178584 0.000922
C30   C     C_R   0.801758 0.591503 0.221540 0.015216
C31   C     C_R   0.778230 0.529697 0.279682 0.038639
C32   C     C_R   0.529377 0.698410 0.268755 -0.161801
C33   C     C_R   0.552678 0.733371 0.201107 -0.128146
C34   C     C_R   0.291783 0.620239 0.393082 0.543136
C35   C     C_R   0.938515 0.556248 0.207060 -0.074066
C36   C     C_R   0.052997 0.437901 0.234760 -0.104416
C37   C     C_R   0.031954 0.363965 0.286247 -0.134410
C38   C     C_R   0.895981 0.404851 0.307074 -0.091038
C39   C     C_R   0.640948 0.602694 0.310314 -0.010626
C40   C     C_R   0.623775 0.171166 0.174281 -0.007813
C41   C     C_R   0.553444 0.123111 0.219888 0.025804
C42   C     C_R   0.584857 0.109635 0.292356 0.017427
C43   C     C_R   0.673541 0.267745 0.275187 -0.170857
C44   C     C_R   0.669116 0.256743 0.202210 -0.184373
C45   C     C_R   0.618554 0.585976 0.385782 0.529857
C46   C     C_R   0.445416 0.099100 0.197753 -0.094681
C47   C     C_R   0.384604 0.048272 0.245059 -0.153899
C48   C     C_R   0.436606 0.011086 0.313209 -0.111747
C49   C     C_R   0.539756 0.036862 0.336166 -0.070666
C50   C     C_R   0.642773 0.186471 0.320589 0.006303
C51   C     C_R   0.147639 0.677624 0.183420 -0.006110
C52   C     C_R   0.095452 0.791977 0.232036 0.023942
C53   C     C_R   0.174056 0.777619 0.290952 0.043620
C54   C     C_R   0.305177 0.523755 0.271947 -0.164584
C55   C     C_R   0.261578 0.546351 0.201633 -0.170343
C56   C     C_R   0.617008 0.230641 0.394530 0.518912
C57   C     C_R   0.980209 0.926644 0.218076 -0.067269
C58   C     C_R   0.981406 0.045402 0.241869 -0.103960
C59   C     C_R   0.071874 0.032166 0.294092 -0.149356
C60   C     C_R   0.166761 0.901563 0.318550 -0.090406
C61   C     C_R   0.257844 0.639708 0.318074 -0.003546
C62   C     C_R   0.702962 0.102059 0.896170 0.536560
C63   C     C_R   0.724803 0.688470 0.887731 0.552531
C64   C     C_R   0.121562 0.703060 0.906558 0.539069
C65   C     C_R   0.670098 0.109435 0.103304 0.525373
C66   C     C_R   0.723431 0.711969 0.106509 0.539485
C67   C     C_3   0.576181 0.815198 0.782027 -0.228395
C68   C     C_R   0.095823 0.708078 0.111551 0.513914
C69   C     C_3   0.560745 0.800864 0.701806 -0.241911
C70   C     C_3   0.834421 0.639857 0.769100 -0.221559
Cr1   Cr    Cr6+3 0.392940 0.397950 0.502230 1.005074
Cr2   Cr    Cr6+3 0.398400 0.708500 0.501260 0.985454
Cr3   Cr    Cr6+3 0.708640 0.393530 0.496460 0.990366
Cr4   Cr    Cr6+3 0.937880 0.938320 0.007620 1.001635
Cr5   Cr    Cr6+3 0.625560 0.937220 0.994510 0.995910
Cr6   Cr    Cr6+3 0.938080 0.625010 0.001190 0.999799
H1    H     H_    0.595322 0.903868 0.791225 0.148545
H2    H     H_    0.924295 0.540537 0.788751 0.168008
H3    H     H_    0.896138 0.512520 0.672800 0.146016
H4    H     H_    0.452743 0.226400 0.697616 0.167313
H5    H     H_    0.937250 0.139990 0.867875 0.143983
H6    H     H_    0.473444 0.211155 0.821134 0.153591
H7    H     H_    0.137093 0.084158 0.792731 0.091372
H8    H     H_    0.917216 0.092808 0.608375 0.138118
H9    H     H_    0.248521 0.823085 0.702632 0.137103
H10   H     H_    0.476388 0.842291 0.809897 0.115555
H11   H     H_    0.231610 0.408871 0.889817 0.130900
H12   H     H_    0.225791 0.833790 0.828921 0.134948
H13   H     H_    0.208758 0.232225 0.824848 0.105077
H14   H     H_    0.161601 0.257619 0.695847 0.116021
H15   H     H_    0.143025 0.456112 0.632775 0.140983
H16   H     H_    0.425174 0.746605 0.288949 0.115715
H17   H     H_    0.464619 0.800384 0.167959 0.140496
H18   H     H_    0.157942 0.400430 0.216705 0.126214
H19   H     H_    0.122385 0.278322 0.311113 0.114973
H20   H     H_    0.452084 0.826625 0.691113 0.127087
H21   H     H_    0.886775 0.335639 0.344018 0.146294
H22   H     H_    0.700708 0.340206 0.296420 0.125795
H23   H     H_    0.398109 0.129447 0.146330 0.145905
H24   H     H_    0.707556 0.308885 0.168054 0.131765
H25   H     H_    0.299841 0.033936 0.227980 0.117146
H26   H     H_    0.394879 0.966440 0.349588 0.114124
H27   H     H_    0.575232 0.010403 0.390178 0.135266
H28   H     H_    0.376980 0.418138 0.289730 0.145291
H29   H     H_    0.900220 0.938084 0.182853 0.153407
H30   H     H_    0.307794 0.459887 0.163541 0.119940
H31   H     H_    0.578249 0.878149 0.672495 0.120306
H32   H     H_    0.920555 0.145963 0.217663 0.133806
H33   H     H_    0.070845 0.120937 0.316477 0.096725
H34   H     H_    0.239865 0.902313 0.355087 0.138475
H35   H     H_    0.859437 0.724974 0.776701 0.127484
H36   H     H_    0.836059 0.695766 0.658437 0.115316
H37   H     H_    0.754536 0.454407 0.820082 0.134507
H38   H     H_    0.538126 0.561501 0.712865 0.128596
O1    O     O_R   0.507340 0.255690 0.581430 -0.523521
O2    O     O_R   0.524510 0.695820 0.424050 -0.518255
O3    O     O_R   0.736370 0.504260 0.414810 -0.519752
O4    O     O_R   0.691220 0.277270 0.422180 -0.528034
O5    O     O_3   0.499990 0.499990 0.499980 -0.287051
O6    O     O_R   0.089570 0.825450 0.930590 -0.517964
O7    O     O_R   0.818700 0.054260 0.929860 -0.507180
O8    O     O_R   0.606310 0.077010 0.915520 -0.533266
O9    O     O_R   0.646730 0.806540 0.917560 -0.504864
O10   O     O_R   0.837290 0.593240 0.915240 -0.521112
O11   O     O_R   0.065320 0.635310 0.931580 -0.511382
O12   O     O_R   0.280360 0.527380 0.578910 -0.503983
O13   O     O_R   0.068470 0.828620 0.091850 -0.517794
O14   O     O_R   0.799150 0.057200 0.079350 -0.513462
O15   O     O_R   0.585220 0.080180 0.076770 -0.540053
O16   O     O_R   0.627170 0.809480 0.067050 -0.499230
O17   O     O_R   0.816200 0.596410 0.076500 -0.511851
O18   O     O_R   0.045770 0.638240 0.081070 -0.537862
O19   O     O_3   0.833840 0.833520 0.001110 -0.261951
O20   O     O_R   0.260600 0.739610 0.584580 -0.524992
O21   O     O_R   0.532370 0.695050 0.573830 -0.505393
O22   O     O_R   0.744850 0.503430 0.576380 -0.521431
O23   O     O_R   0.699080 0.276500 0.571950 -0.511137
O24   O     O_R   0.498860 0.256520 0.419860 -0.530320
O25   O     O_R   0.272490 0.528150 0.429140 -0.479039
O26   O     O_R   0.252110 0.740440 0.423010 -0.536909
H39   H     H_    0.720663 0.432347 0.703611 0.153031
H40   H     H_    0.126074 0.065397 0.663097 0.101530
H41   H     H_    0.950198 0.629636 0.178425 0.140578
H42   H     H_    0.570505 0.580153 0.830913 0.118309

loop_
_geom_bond_atom_site_label_1
_geom_bond_atom_site_label_2
_ccdc_geom_bond_type
C57   H29   S    
C46   H23   S    
C8    C13   A    
C47   H25   S    
C29   C33   A    
C70   H2    S    
Cr5   O8    S    
C2    H42   S    
C41   C42   A    
C35   C36   A    
C67   H1    S    
C43   H22   S    
C69   H20   S    
C63   O10   A    
C69   H31   S    
C7    C8    A    
C7    C11   A    
C26   C27   A    
C17   C23   S    
C30   C35   A    
Cr5   O9    S    
C54   H28   S    
C36   C37   A    
C9    C16   A    
C30   C31   A    
Cr6   O17   S    
C10   C17   A    
C15   C16   A    
Cr4   O19   S    
C13   H5    S    
C34   O25   A    
C16   H8    S    
C37   H19   S    
C18   C19   A    
C32   C39   A    
C68   O18   A    
C6    H38   S    
C59   H33   S    
C54   C55   A    
C53   C61   A    
Cr4   O14   S    
C19   C20   A    
C8    C9    A    
C12   O21   A    
C1    C28   S    
C41   C46   A    
Cr1   O12   S    
C27   H15   S    
C22   H12   S    
C5    H3    S    
C29   C30   A    
C58   H32   S    
Cr5   O16   S    
C39   C45   S    
C59   C60   A    
C21   C22   A    
Cr6   O11   S    
C2    C6    S    
C14   H7    S    
C38   H21   S    
C4    C69   S    
C53   C60   A    
Cr1   O24   S    
C11   H6    S    
C21   H9    S    
Cr3   O3    S    
C55   H30   S    
C51   C52   A    
Cr6   O10   S    
C65   O14   A    
C3    C70   S    
C1    O12   A    
C4    C6    S    
C52   C57   A    
C10   H4    S    
C44   H24   S    
Cr2   O21   S    
Cr1   O25   S    
C20   C28   A    
C58   C59   A    
C34   C61   S    
C50   C56   S    
C29   C66   S    
C67   C69   S    
C43   C44   A    
C7    C62   S    
C37   C38   A    
C65   O15   A    
C15   H40   S    
C56   O24   A    
Cr2   O20   S    
C47   C48   A    
Cr3   O22   S    
Cr2   O26   S    
C48   H26   S    
Cr1   O1    S    
C24   C25   A    
C6    H39   S    
C68   O13   A    
C42   C50   A    
C9    C17   A    
C48   C49   A    
C54   C61   A    
C21   C28   A    
C40   C65   S    
Cr4   O13   S    
C4    C12   S    
C1    O20   A    
C62   O8    A    
C52   C53   A    
C66   O17   A    
C45   O3    A    
C46   C47   A    
C40   C41   A    
C67   H10   S    
Cr3   O4    S    
C18   C22   A    
C56   O4    A    
C23   O23   A    
C3    C67   S    
C4    C5    S    
C5    C70   S    
C33   H17   S    
C49   H27   S    
C63   O9    A    
Cr6   O19   S    
Cr5   O19   S    
C43   C50   A    
C20   C27   A    
C3    C63   S    
C26   H14   S    
C5    H36   S    
Cr4   O6    S    
Cr2   O2    S    
C25   H13   S    
C70   H35   S    
C64   O6    A    
C31   C38   A    
Cr1   O5    S    
C32   C33   A    
C19   C24   A    
C25   C26   A    
Cr6   O18   S    
C45   O2    A    
C18   C64   S    
C57   C58   A    
C32   H16   S    
Cr3   O23   S    
Cr2   O5    S    
C34   O26   A    
C2    H37   S    
C31   C39   A    
C2    C3    S    
C51   C55   A    
C51   C68   S    
C24   H11   S    
C60   H34   S    
C10   C11   A    
C42   C49   A    
C23   O1    A    
Cr3   O5    S    
C36   H18   S    
C40   C44   A    
Cr4   O7    S    
C64   O11   A    
C12   O22   A    
C14   C15   A    
C13   C14   A    
C62   O7    A    
Cr5   O15   S    
C35   H41   S    
C66   O16   A    
