data_mof_unit_34394.cif
_audit_creation_date              2012-12-11T14:29:47-0500
_audit_creation_method            fapswitch 2.2
_symmetry_space_group_name_H-M    P1
_symmetry_Int_Tables_number       1
_space_group_crystal_system       triclinic
_cell_length_a                    6.930642
_cell_length_b                    14.834145
_cell_length_c                    16.197739
_cell_angle_alpha                 90.405873
_cell_angle_beta                  89.77623
_cell_angle_gamma                 89.923133
_cell_volume                      1665.23590621

loop_
_atom_site_label
_atom_site_type_symbol
_atom_type_description
_atom_site_fract_x
_atom_site_fract_y
_atom_site_fract_z
_atom_type_partial_charge
O1    O     O_R   0.494400 0.416610 0.413880 -0.542649
O2    O     O_R   0.823920 0.406790 0.585520 -0.570762
O3    O     O_R   0.994250 0.583390 0.586120 -0.547046
C1    C     C_R   0.654558 0.385199 0.613364 0.645327
O4    O     O_R   0.824110 0.405730 0.414490 -0.512578
O5    O     O_R   0.994440 0.582310 0.413870 -0.520390
C2    C     C_R   0.655173 0.381924 0.387773 0.783372
O6    O     O_R   0.494210 0.417690 0.586130 -0.530899
O7    O     O_3   0.660810 0.557940 0.500000 -0.354083
V1    V     V_3+5 0.935650 0.489250 0.500000 1.520351
O8    O     O_R   0.324160 0.593210 0.414480 -0.504217
C3    C     C_R   0.155841 0.612842 0.384711 0.681419
O9    O     O_R   0.323970 0.594270 0.585510 -0.547170
C4    C     C_R   0.154579 0.615201 0.614578 0.658943
V2    V     V_3+5 0.435660 0.510750 0.500000 1.564573
O10   O     O_3   0.160630 0.442060 0.500000 -0.376362
C5    C     C_R   0.003689 0.570250 0.775411 -0.175923
C6    C     C_R   0.934300 0.544734 0.852348 -0.235642
C7    C     C_R   0.935825 0.605454 0.917577 -0.130867
C8    C     C_R   0.002136 0.693085 0.906340 0.580198
C9    C     C_R   0.063495 0.723405 0.826996 -0.057969
C10   C     C_R   0.068779 0.659265 0.760871 0.021077
C11   C     C_R   0.123354 0.814152 0.812936 -0.158052
C12   C     C_R   0.196480 0.839150 0.733063 -0.099441
C13   C     C_R   0.204523 0.773159 0.668387 -0.039954
C14   C     C_R   0.142211 0.683668 0.682345 -0.069480
C15   C     C_R   0.260542 0.928592 0.714192 0.282261
C16   C     C_R   0.342762 0.948317 0.636909 0.338010
C17   C     C_R   0.336633 0.884988 0.573214 0.359992
C18   C     C_R   0.270041 0.798538 0.588972 -0.304064
H1    H     H_    0.006139 0.518912 0.727793 0.120285
H2    H     H_    0.882194 0.476921 0.862003 0.153871
H3    H     H_    0.887519 0.584058 0.977994 0.157378
H4    H     H_    0.270034 0.751987 0.537321 0.163391
C19   C     C_2   0.990900 0.705999 0.277602 0.503044
C20   C     C_2   0.153831 0.672054 0.311439 0.388899
C21   C     C_2   0.994268 0.762536 0.201828 -0.181355
C22   C     C_2   0.121254 0.830196 0.189963 0.250522
H5    H     H_    0.884294 0.749140 0.155739 0.145483
C23   C     C_2   0.766191 0.240964 0.808089 0.469167
C24   C     C_2   0.614604 0.185225 0.821503 -0.361626
H6    H     H_    0.481432 0.193190 0.788185 0.194104
C25   C     C_2   0.760429 0.311308 0.740677 -0.342588
C26   C     C_2   0.640311 0.313209 0.675161 0.410876
H7    H     H_    0.863339 0.366026 0.744674 0.086289
C27   C     C_2   0.759635 0.190466 0.228102 -0.297271
C28   C     C_2   0.616844 0.189948 0.171308 0.266313
H8    H     H_    0.863597 0.135630 0.227325 0.090513
C29   C     C_2   0.789800 0.263277 0.291419 0.512179
C30   C     C_2   0.639110 0.308658 0.325499 -0.336597
H9    H     H_    0.493294 0.288435 0.310182 0.137279
O11   O     O_R   0.770210 0.079270 0.910680 -0.527101
O12   O     O_R   0.440150 0.091160 0.082270 -0.559447
O13   O     O_R   0.269970 0.914530 0.082860 -0.549144
C31   C     C_R   0.608480 0.115154 0.109140 0.631833
O14   O     O_R   0.440480 0.090100 0.911240 -0.531369
O15   O     O_R   0.270310 0.913460 0.910610 -0.515187
C32   C     C_R   0.609693 0.114648 0.885697 0.783829
O16   O     O_R   0.769870 0.080340 0.082930 -0.552277
O17   O     O_3   0.603660 0.938980 0.996790 -0.368753
V3    V     V_3+5 0.328750 0.007610 0.996740 1.483474
O18   O     O_R   0.940600 0.902510 0.911180 -0.529350
C33   C     C_R   0.110211 0.881683 0.881730 0.914192
O19   O     O_R   0.940270 0.903570 0.082200 -0.537573
C34   C     C_R   0.109155 0.886289 0.113780 0.714577
V4    V     V_3+5 0.828770 0.986010 0.996670 1.494693
O20   O     O_3   0.103730 0.054750 0.996710 -0.376070
O21   O     O_3   0.406388 0.906223 0.495786 -0.533833
C35   C     C_3   0.254595 0.944568 0.450092 -0.148264
H10   H     H_    0.190712 0.004376 0.482018 0.127043
H11   H     H_    0.140923 0.893609 0.436797 0.143689
H12   H     H_    0.313199 0.968295 0.390314 0.165967
F1    F     F_    0.326723 0.685658 0.273461 -0.647174
O22   O     O_3   0.235311 0.856628 0.256757 -0.567691
C36   C     C_3   0.427883 0.874422 0.233453 -0.055439
H13   H     H_    0.443129 0.945565 0.213598 0.067320
H14   H     H_    0.482641 0.826689 0.185338 0.173025
H15   H     H_    0.520894 0.865841 0.288436 0.186675
O23   O     O_3   0.915356 0.238499 0.866060 -0.550979
C37   C     C_3   0.090984 0.274419 0.836708 -0.244755
H16   H     H_    0.091494 0.348922 0.842695 0.144987
H17   H     H_    0.123941 0.252801 0.772204 0.158388
H18   H     H_    0.208946 0.249044 0.876346 0.167586
F2    F     F_    0.502526 0.249813 0.662178 -0.706185
O24   O     O_3   0.504792 0.267213 0.161878 -0.553349
C38   C     C_3   0.305961 0.246799 0.161302 -0.159671
H19   H     H_    0.267470 0.190064 0.203017 0.112894
H20   H     H_    0.256814 0.233185 0.097267 0.157506
H21   H     H_    0.225748 0.307033 0.183533 0.194382
O25   O     O_3   0.976882 0.283981 0.314666 -0.550607
C39   C     C_3   0.040588 0.219609 0.372216 -0.241889
H22   H     H_    0.062496 0.152587 0.342532 0.109052
H23   H     H_    0.939665 0.214043 0.425645 0.130016
H24   H     H_    0.182114 0.241712 0.396834 0.168747
F3    F     F_    0.011563 0.745377 0.975100 -0.725342
O26   O     O_3   0.248840 0.998081 0.770766 -0.546403
C40   C     C_3   0.077244 0.046066 0.756087 -0.204334
H25   H     H_    0.949140 0.000959 0.754900 0.072912
H26   H     H_    0.087040 0.085601 0.698153 0.163179
H27   H     H_    0.056290 0.093501 0.807914 0.202952
O27   O     O_3   0.417601 0.032903 0.621714 -0.518237
C41   C     C_3   0.612830 0.032624 0.645743 -0.090273
H28   H     H_    0.697168 0.979966 0.611972 0.102934
H29   H     H_    0.625853 0.023157 0.713518 0.109601
H30   H     H_    0.677703 0.098700 0.630396 0.182413
F4    F     F_    0.814915 0.684186 0.309032 -0.661296

loop_
_geom_bond_atom_site_label_1
_geom_bond_atom_site_label_2
_ccdc_geom_bond_type
O27   C41   S    
C31   O16   A    
C24   H6    S    
C7    C8    A    
C12   C15   A    
C29   O25   S    
C1    O6    A    
C40   H25   S    
O13   C34   A    
O24   C38   S    
C27   C29   S    
O18   C33   A    
C28   O24   S    
C16   C17   A    
C19   C21   S    
C21   C22   D    
C24   C32   S    
O16   V4    S    
O5    C3    A    
C38   H20   S    
V2    O10   S    
C41   H30   S    
C5    C6    A    
C6    C7    A    
C35   H11   S    
O8    V2    S    
C16   O27   S    
C23   C25   S    
C19   C20   D    
O21   C35   S    
C11   C12   A    
O1    V2    S    
C3    C20   S    
O7    V1    S    
C11   C33   S    
V4    O20   S    
O17   V4    S    
O9    C4    A    
C15   O26   S    
C35   H10   S    
O12   V3    S    
C37   H18   S    
C40   H26   S    
O15   C33   A    
O12   C31   A    
C27   H8    S    
O22   C36   S    
C18   H4    S    
C12   C13   A    
C37   H17   S    
C7    H3    S    
C39   H22   S    
O4    C2    A    
O18   V4    S    
C38   H19   S    
C1    C26   S    
C13   C14   A    
O17   V3    S    
O19   V4    S    
C35   H12   S    
O2    C1    A    
C36   H13   S    
C17   C18   A    
C39   H23   S    
C17   O21   S    
C36   H14   S    
V3    O20   S    
C22   C34   S    
O26   C40   S    
C30   H9    S    
C23   O23   S    
C4    C14   S    
C41   H29   S    
C25   H7    S    
O3    C4    A    
O11   C32   A    
C23   C24   D    
C8    F3    S    
O6    V2    S    
C9    C11   A    
C25   C26   D    
C5    H1    S    
C6    H2    S    
O2    V1    S    
C40   H27   S    
O11   V4    S    
C28   C31   S    
C22   O22   S    
C13   C18   A    
C27   C28   D    
O1    C2    A    
C2    C30   S    
C37   H16   S    
C26   F2    S    
C38   H21   S    
O5    V1    S    
O8    C3    A    
O15   V3    S    
O13   V3    S    
C5    C10   A    
O19   C34   A    
O9    V2    S    
O7    V2    S    
O4    V1    S    
C21   H5    S    
O3    V1    S    
V1    O10   S    
C39   H24   S    
O25   C39   S    
O14   C32   A    
C41   H28   S    
C36   H15   S    
C20   F1    S    
O23   C37   S    
C8    C9    A    
C29   C30   D    
C10   C14   A    
C15   C16   A    
C19   F4    S    
O14   V3    S    
C9    C10   A    
