data_mof_unit_44046.cif
_audit_creation_date              2012-12-11T14:03:56-0500
_audit_creation_method            fapswitch 2.2
_symmetry_space_group_name_H-M    P1
_symmetry_Int_Tables_number       1
_space_group_crystal_system       triclinic
_cell_length_a                    19.422125
_cell_length_b                    10.971179
_cell_length_c                    19.129345
_cell_angle_alpha                 90.166708
_cell_angle_beta                  90.029337
_cell_angle_gamma                 90.197901
_cell_volume                      4076.1077642

loop_
_atom_site_label
_atom_site_type_symbol
_atom_type_description
_atom_site_fract_x
_atom_site_fract_y
_atom_site_fract_z
_atom_type_partial_charge
C1    C     C_R   0.241406 0.459997 0.653425 0.601451
C2    C     C_R   0.762534 0.470652 0.354333 0.623168
C3    C     C_R   0.737222 0.971306 0.645370 0.615697
C4    C     C_R   0.259438 0.967125 0.353111 0.543863
C5    C     C_2   0.272628 0.789788 0.521106 0.004331
C6    C     C_2   0.697241 0.923529 0.451900 0.049297
C7    C     C_2   0.803405 0.428416 0.548701 0.056110
C8    C     C_2   0.233626 0.327798 0.475560 0.018026
C9    C     C_R   0.002312 0.665312 0.422757 0.073461
C10   C     C_R   0.043888 0.648391 0.562723 0.037046
C11   C     C_R   0.451810 0.148112 0.438206 0.003233
C12   C     C_R   0.492174 0.163025 0.579441 0.009166
C13   C     C_R   0.949407 0.868192 0.454017 -0.142342
C14   C     C_R   0.038685 0.875397 0.562726 -0.112747
C15   C     C_R   0.455257 0.374379 0.439494 -0.121765
C16   C     C_R   0.541310 0.370947 0.549967 -0.118140
C17   C     C_R   0.949827 0.972026 0.497278 0.039087
C18   C     C_R   0.994142 0.972167 0.555071 0.034360
C19   C     C_R   0.503327 0.466747 0.444357 0.042548
C20   C     C_R   0.546743 0.467584 0.502543 0.027214
C21   C     C_R   0.025716 0.762289 0.531756 0.004899
C22   C     C_R   0.990325 0.763990 0.468840 -0.017676
C23   C     C_R   0.499975 0.265597 0.535462 -0.010648
C24   C     C_R   0.465602 0.262355 0.471791 -0.006396
C25   C     C_R   0.041427 0.538524 0.519415 0.002654
C26   C     C_R   0.038810 0.561758 0.446596 0.008033
C27   C     C_R   0.459627 0.055292 0.553005 0.018297
C28   C     C_R   0.457368 0.036878 0.479409 -0.026700
C29   C     C_R   0.043965 0.408627 0.538076 0.100067
C30   C     C_R   0.062797 0.471398 0.399195 0.041646
C31   C     C_R   0.445642 0.954109 0.597123 0.082055
C32   C     C_R   0.464650 0.909132 0.456853 0.066894
C33   C     C_R   0.038125 0.320555 0.484836 -0.103523
C34   C     C_R   0.049841 0.351048 0.416052 -0.102598
C35   C     C_R   0.471597 0.842266 0.576557 -0.091337
C36   C     C_R   0.481633 0.820618 0.506556 -0.104030
C37   C     C_2   0.252989 0.934499 0.914216 0.216663
C38   C     C_2   0.751028 0.925723 0.083807 0.261848
C39   C     C_2   0.752858 0.434295 0.914308 0.221141
C40   C     C_2   0.250844 0.426101 0.084008 0.257324
C41   C     C_2   0.250516 0.922368 0.080476 0.311335
C42   C     C_2   0.753340 0.907740 0.913620 0.306092
C43   C     C_2   0.750561 0.422357 0.080475 0.314897
C44   C     C_2   0.253368 0.407651 0.913541 0.307241
C45   C     C_R   0.212753 0.834545 0.639915 0.540737
C46   C     C_R   0.773832 0.876535 0.351278 0.571054
C47   C     C_R   0.726351 0.375957 0.648812 0.559311
C48   C     C_R   0.289067 0.334440 0.358955 0.509480
C49   C     C_2   0.233793 0.008368 0.032530 0.193100
C50   C     C_2   0.777466 0.980097 0.964714 0.230778
C51   C     C_2   0.733452 0.508168 0.032564 0.192955
C52   C     C_2   0.276896 0.480305 0.964778 0.232330
C53   C     C_2   0.208493 0.974725 0.963992 -0.007055
C54   C     C_2   0.795928 0.925917 0.029830 0.058239
C55   C     C_2   0.708263 0.474207 0.964069 -0.006208
C56   C     C_2   0.295595 0.426326 0.029895 0.056015
C57   C     C_2   0.014580 0.649216 0.928537 -0.107829
C58   C     C_2   0.010985 0.653638 0.084560 -0.082567
C59   C     C_2   0.514427 0.149276 0.928519 -0.106333
C60   C     C_2   0.510914 0.153876 0.084538 -0.077122
C61   C     C_2   0.020669 0.548990 0.047284 0.007734
C62   C     C_2   0.024439 0.547835 0.969458 -0.004935
C63   C     C_2   0.520969 0.049220 0.047401 0.009702
C64   C     C_2   0.524144 0.047862 0.969488 -0.008419
C65   C     C_R   0.061050 0.648308 0.638117 0.556015
C66   C     C_R   0.967880 0.655578 0.355348 0.599683
C67   C     C_R   0.529781 0.154927 0.645796 0.557165
C68   C     C_R   0.438142 0.148278 0.361721 0.521090
C69   C     C_R   0.239316 0.464433 0.848052 0.574913
C70   C     C_R   0.761334 0.466360 0.150306 0.656423
C71   C     C_R   0.739277 0.964577 0.848134 0.572783
C72   C     C_R   0.261310 0.966289 0.150332 0.656358
C73   C     C_R   0.226738 0.873885 0.852167 0.606180
C74   C     C_R   0.773015 0.874193 0.148754 0.653209
C75   C     C_R   0.726701 0.373792 0.852206 0.603284
C76   C     C_R   0.272965 0.374326 0.148834 0.665591
C77   C     C_R   0.034668 0.650061 0.854138 0.577413
C78   C     C_R   0.972938 0.651368 0.150977 0.600370
C79   C     C_R   0.534527 0.150076 0.854089 0.566372
C80   C     C_R   0.472910 0.151405 0.150963 0.616013
C81   C     C_2   0.228153 0.853992 0.564120 -0.100585
C82   C     C_2   0.757753 0.928458 0.419711 -0.057480
C83   C     C_2   0.741976 0.422653 0.579447 -0.064132
C84   C     C_2   0.275140 0.377007 0.428345 -0.159034
C85   C     C_2   0.233078 0.893267 0.412731 0.066154
C86   C     C_2   0.741867 0.921394 0.574825 0.093869
C87   C     C_2   0.758377 0.421062 0.425053 0.111385
C88   C     C_2   0.258775 0.383254 0.595760 0.150235
C89   C     C_2   0.270358 0.805417 0.442114 0.235900
C90   C     C_2   0.693795 0.959254 0.526938 0.197545
C91   C     C_2   0.805751 0.462992 0.473053 0.213680
C92   C     C_2   0.223784 0.403115 0.536867 0.190434
Cr1   Cr    Cr6+3 0.113970 0.508630 0.747920 1.095514
Cr2   Cr    Cr6+3 0.886030 0.508630 0.252080 1.121474
Cr3   Cr    Cr6+3 0.613970 0.008630 0.747920 1.118611
Cr4   Cr    Cr6+3 0.386030 0.008630 0.252080 1.118797
Cr5   Cr    Cr6+3 0.269200 0.666740 0.749850 1.179928
Cr6   Cr    Cr6+3 0.730800 0.666740 0.250150 1.131209
Cr7   Cr    Cr6+3 0.769200 0.166740 0.749850 1.135146
Cr8   Cr    Cr6+3 0.230800 0.166740 0.250150 1.174657
Cr9   Cr    Cr6+3 0.112300 0.820070 0.749800 1.100776
Cr10  Cr    Cr6+3 0.887700 0.820070 0.250200 1.099842
Cr11  Cr    Cr6+3 0.612300 0.320070 0.749800 1.093390
Cr12  Cr    Cr6+3 0.387700 0.320070 0.250200 1.110417
H1    H     H_    0.018623 0.741846 0.061265 0.128815
H2    H     H_    0.001215 0.736254 0.950964 0.126455
H3    H     H_    0.517968 0.242105 0.061107 0.127992
H4    H     H_    0.501378 0.236468 0.950916 0.127812
H5    H     H_    0.193129 0.916369 0.540231 0.102569
H6    H     H_    0.800906 0.965438 0.448422 0.125940
H7    H     H_    0.697542 0.448059 0.549497 0.124454
H8    H     H_    0.304656 0.456066 0.444170 0.166520
H9    H     H_    0.915480 0.870971 0.411046 0.207287
H10   H     H_    0.080695 0.887635 0.596618 0.182511
H11   H     H_    0.415633 0.385588 0.403684 0.190837
H12   H     H_    0.574612 0.379210 0.593422 0.207768
H13   H     H_    0.034034 0.224425 0.497167 0.151165
H14   H     H_    0.053262 0.279687 0.377028 0.209021
H15   H     H_    0.476362 0.767446 0.613019 0.206350
H16   H     H_    0.493090 0.728214 0.490789 0.160567
O1    O     O_R   0.043230 0.549300 0.667990 -0.446826
O2    O     O_R   0.956770 0.549300 0.332010 -0.493366
O3    O     O_R   0.543230 0.049300 0.667990 -0.479978
O4    O     O_R   0.456770 0.049300 0.332010 -0.447605
O5    O     O_R   0.262920 0.788600 0.824420 -0.417282
O6    O     O_R   0.737080 0.788600 0.175580 -0.443329
O7    O     O_R   0.762920 0.288600 0.824420 -0.442170
O8    O     O_R   0.237080 0.288600 0.175580 -0.416612
O9    O     O_R   0.167530 0.905110 0.830340 -0.499845
O10   O     O_R   0.832470 0.905110 0.169660 -0.525234
O11   O     O_R   0.667530 0.405110 0.830340 -0.505123
O12   O     O_R   0.332470 0.405110 0.169660 -0.516844
O13   O     O_R   0.054010 0.748440 0.822860 -0.477694
O14   O     O_R   0.945990 0.748440 0.177140 -0.470765
O15   O     O_R   0.554010 0.248440 0.822860 -0.485915
O16   O     O_R   0.445990 0.248440 0.177140 -0.465800
O17   O     O_3   0.165160 0.665150 0.749190 -0.355697
O18   O     O_3   0.834840 0.665150 0.250810 -0.300839
O19   O     O_3   0.665160 0.165150 0.749190 -0.303553
O20   O     O_3   0.334840 0.165150 0.250810 -0.354814
O21   O     O_R   0.178620 0.457600 0.674100 -0.490107
O22   O     O_R   0.821380 0.457600 0.325900 -0.500430
O23   O     O_R   0.678620 0.957600 0.674100 -0.492483
O24   O     O_R   0.321380 0.957600 0.325900 -0.500483
O25   O     O_R   0.284680 0.542100 0.669460 -0.466995
O26   O     O_R   0.715320 0.542100 0.330540 -0.426841
O27   O     O_R   0.784680 0.042100 0.669460 -0.431159
O28   O     O_R   0.215320 0.042100 0.330540 -0.439588
O29   O     O_R   0.262860 0.790390 0.676650 -0.424427
O30   O     O_R   0.737140 0.790390 0.323350 -0.475987
O31   O     O_R   0.762860 0.290390 0.676650 -0.463450
O32   O     O_R   0.237140 0.290390 0.323350 -0.421385
O33   O     O_R   0.167460 0.907030 0.670940 -0.487954
O34   O     O_R   0.832540 0.907030 0.329060 -0.513251
O35   O     O_R   0.667460 0.407030 0.670940 -0.517827
O36   O     O_R   0.332540 0.407030 0.329060 -0.488483
O37   O     O_R   0.053950 0.750220 0.675100 -0.513873
O38   O     O_R   0.946050 0.750220 0.324900 -0.525535
O39   O     O_R   0.553950 0.250220 0.675100 -0.521213
O40   O     O_R   0.446050 0.250220 0.324900 -0.511985
O41   O     O_R   0.043300 0.547370 0.827390 -0.474026
O42   O     O_R   0.956700 0.547370 0.172610 -0.478318
O43   O     O_R   0.543300 0.047370 0.827390 -0.465771
O44   O     O_R   0.456700 0.047370 0.172610 -0.476286
O45   O     O_R   0.178690 0.455820 0.821860 -0.521556
O46   O     O_R   0.821310 0.455820 0.178140 -0.492809
O47   O     O_R   0.678690 0.955820 0.821860 -0.518059
O48   O     O_R   0.321310 0.955820 0.178140 -0.485980
O49   O     O_R   0.284750 0.540170 0.828860 -0.449860
O50   O     O_R   0.715250 0.540170 0.171140 -0.490963
O51   O     O_R   0.784750 0.040170 0.828860 -0.464794
O52   O     O_R   0.215250 0.040170 0.171140 -0.479629
O53   O     O_3   0.278529 0.704696 0.399560 -0.566548
H17   H     H_    0.257540 0.635065 0.424288 0.353892
O54   O     O_3   0.643746 0.040829 0.548554 -0.670725
H18   H     H_    0.617233 0.069085 0.507594 0.344033
O55   O     O_3   0.854031 0.547372 0.450482 -0.676221
H19   H     H_    0.879316 0.581000 0.490885 0.352433
O56   O     O_3   0.186824 0.510246 0.530809 -0.747433
H20   H     H_    0.174100 0.521325 0.481165 0.330134
C93   C     C_2   0.132272 0.972252 0.958565 0.571002
O57   O     O_2   0.099240 0.904735 0.996658 -0.568489
O58   O     O_R   0.098370 0.051228 0.912962 -0.668949
H21   H     H_    0.046454 0.041971 0.915088 0.364877
C94   C     C_2   0.865905 0.874112 0.031301 0.587497
O59   O     O_2   0.874562 0.767403 0.046833 -0.503366
O60   O     O_R   0.921250 0.947985 0.011522 -0.678179
H22   H     H_    0.967111 0.905863 0.015682 0.350384
C95   C     C_2   0.632051 0.470956 0.958700 0.570602
O61   O     O_2   0.599292 0.402696 0.996596 -0.568616
O62   O     O_R   0.597839 0.550048 0.913406 -0.668927
H23   H     H_    0.545957 0.540223 0.915558 0.367247
C96   C     C_2   0.365624 0.374631 0.031184 0.586750
O63   O     O_2   0.374408 0.268026 0.046875 -0.506977
O64   O     O_R   0.420859 0.448471 0.011047 -0.675674
H24   H     H_    0.466761 0.406425 0.015080 0.349496
O65   O     O_3   0.248688 0.797742 0.069575 -0.707565
H25   H     H_    0.225453 0.779443 0.024793 0.341720
O66   O     O_3   0.746842 0.783344 0.922202 -0.727495
H26   H     H_    0.730445 0.747494 0.877497 0.331859
O67   O     O_3   0.749439 0.297721 0.069493 -0.706062
H27   H     H_    0.726371 0.279083 0.024669 0.342530
O68   O     O_3   0.247656 0.283095 0.921919 -0.728290
H28   H     H_    0.231627 0.247130 0.877104 0.333207
O69   O     O_3   0.323953 0.935833 0.922797 -0.626550
H29   H     H_    0.337247 0.996125 0.959026 0.357356
O70   O     O_3   0.685635 0.975279 0.081428 -0.645630
H30   H     H_    0.676933 0.015696 0.036190 0.345708
O71   O     O_3   0.823821 0.435956 0.922913 -0.632512
H31   H     H_    0.837016 0.496076 0.959271 0.358467
O72   O     O_3   0.185415 0.475573 0.081845 -0.645763
H32   H     H_    0.176768 0.516755 0.036826 0.345303
C97   C     C_2   0.023534 0.426862 0.082969 0.665570
O73   O     O_2   0.062787 0.410869 0.132066 -0.405703
O74   O     O_R   0.979063 0.332991 0.062030 -0.638634
H33   H     H_    0.985383 0.255976 0.090451 0.354099
C98   C     C_2   0.037582 0.424879 0.938654 0.659633
O75   O     O_2   0.991998 0.372173 0.906177 -0.417015
O76   O     O_R   0.100621 0.367876 0.950397 -0.688572
H34   H     H_    0.103239 0.284900 0.927333 0.373756
C99   C     C_2   0.524766 0.927432 0.083483 0.662907
O77   O     O_2   0.563603 0.913218 0.133131 -0.434943
O78   O     O_R   0.481368 0.831991 0.062551 -0.639673
H35   H     H_    0.488141 0.755558 0.091378 0.350137
C100  C     C_2   0.536667 0.924814 0.938610 0.663621
O79   O     O_2   0.490745 0.872733 0.906297 -0.391409
O80   O     O_R   0.599620 0.867186 0.949854 -0.688194
H36   H     H_    0.601843 0.784263 0.926678 0.374253
C101  C     C_2   0.328186 0.705561 0.546371 0.599426
O81   O     O_2   0.351965 0.713969 0.604904 -0.479055
O82   O     O_R   0.359089 0.623292 0.500499 -0.686476
H37   H     H_    0.395706 0.571989 0.523940 0.324994
C102  C     C_2   0.635324 0.902931 0.410014 0.591672
O83   O     O_2   0.603807 0.989512 0.386135 -0.496524
O84   O     O_R   0.620612 0.785173 0.388098 -0.576715
H38   H     H_    0.610623 0.782380 0.336258 0.364597
C103  C     C_2   0.865624 0.421758 0.592632 0.609386
O85   O     O_2   0.898650 0.513612 0.606376 -0.529543
O86   O     O_R   0.880021 0.313681 0.626889 -0.564014
H39   H     H_    0.892818 0.329334 0.677496 0.353122
C104  C     C_2   0.192692 0.215059 0.469368 0.584759
O87   O     O_2   0.163048 0.190223 0.415300 -0.473220
O88   O     O_R   0.181263 0.144081 0.528508 -0.635537
H40   H     H_    0.140462 0.087372 0.522055 0.337113
C105  C     C_2   0.156977 0.872239 0.414455 0.557072
O89   O     O_2   0.135072 0.774001 0.434187 -0.536037
O90   O     O_R   0.110777 0.961104 0.391677 -0.638262
H41   H     H_    0.062010 0.929941 0.387225 0.344324
C106  C     C_2   0.792946 0.823019 0.563192 0.484760
O91   O     O_2   0.781711 0.742126 0.520640 -0.514597
O92   O     O_R   0.852440 0.819599 0.604268 -0.656033
H42   H     H_    0.883525 0.748916 0.591811 0.365332
C107  C     C_2   0.710394 0.317015 0.436077 0.491807
O93   O     O_2   0.725168 0.235193 0.476576 -0.515720
O94   O     O_R   0.649577 0.310040 0.397132 -0.644952
H43   H     H_    0.620744 0.235919 0.409287 0.362028
C108  C     C_2   0.318305 0.300567 0.604506 0.558511
O95   O     O_2   0.330822 0.220189 0.562115 -0.509690
O96   O     O_R   0.360889 0.317994 0.662751 -0.676971
H44   H     H_    0.402744 0.264041 0.663086 0.357938
C109  C     C_2   0.912553 0.083017 0.474412 0.539641
O97   O     O_2   0.889364 0.154871 0.516972 -0.422546
O98   O     O_R   0.904226 0.105819 0.403017 -0.703002
H45   H     H_    0.878090 0.183967 0.393659 0.348494
C110  C     C_2   0.988976 0.055056 0.615653 0.614829
O99   O     O_2   0.041030 0.084475 0.647477 -0.500651
O100  O     O_R   0.924572 0.080817 0.644015 -0.565159
H46   H     H_    0.927971 0.121209 0.691626 0.337857
C111  C     C_2   0.511769 0.543606 0.381822 0.612812
O101  O     O_2   0.460955 0.580459 0.350877 -0.477471
O102  O     O_R   0.576392 0.554384 0.350954 -0.583043
H47   H     H_    0.574042 0.591323 0.302489 0.323123
C112  C     C_2   0.593194 0.570568 0.519064 0.532244
O103  O     O_2   0.634157 0.607311 0.475664 -0.411895
O104  O     O_R   0.593217 0.620535 0.586378 -0.713595
H48   H     H_    0.628009 0.689038 0.591873 0.349253
C113  C     C_2   0.096066 0.501702 0.331058 0.606427
O105  O     O_2   0.105551 0.422061 0.287259 -0.450934
O106  O     O_R   0.117685 0.620911 0.317402 -0.657705
H49   H     H_    0.139720 0.629678 0.269636 0.360765
C114  C     C_2   0.058906 0.348029 0.605629 0.673111
O107  O     O_2   0.112041 0.290433 0.611825 -0.458168
O108  O     O_R   0.009532 0.338470 0.657904 -0.631217
H50   H     H_    0.027485 0.297770 0.701791 0.344062
C115  C     C_2   0.450163 0.848522 0.388934 0.662149
O109  O     O_2   0.397659 0.789844 0.382529 -0.409912
O110  O     O_R   0.498742 0.843052 0.335478 -0.626111
H51   H     H_    0.481434 0.798399 0.292378 0.340483
C116  C     C_2   0.410776 0.964985 0.666114 0.624476
O111  O     O_2   0.423690 0.892731 0.712903 -0.453743
O112  O     O_R   0.360774 0.054018 0.676543 -0.661576
H52   H     H_    0.339812 0.050752 0.725042 0.355974
O113  O     O_3   0.235550 0.130668 0.050513 -0.653471
H53   H     H_    0.203062 0.174667 0.019826 0.383765
O114  O     O_3   0.785154 0.104666 0.955796 -0.682065
H54   H     H_    0.812732 0.136828 0.995449 0.378567
O115  O     O_3   0.734743 0.630501 0.050524 -0.651217
H55   H     H_    0.702119 0.674123 0.019805 0.383506
O116  O     O_3   0.283986 0.604983 0.955907 -0.683385
H56   H     H_    0.311604 0.637403 0.995460 0.379408

loop_
_geom_bond_atom_site_label_1
_geom_bond_atom_site_label_2
_ccdc_geom_bond_type
C34   H14   S    
C76   O8    A    
C7    C83   D    
O68   H28   S    
C105  O90   S    
Cr3   O23   S    
C48   C84   S    
C6    C82   D    
C87   C91   D    
Cr8   O52   S    
C40   C56   D    
O67   H27   S    
C14   C18   A    
C35   H15   S    
O112  H52   S    
C89   O53   S    
O58   H21   S    
Cr11  O39   S    
C68   O4    A    
C13   H9    S    
O98   H45   S    
C19   C111  S    
C74   O6    A    
O53   H17   S    
Cr8   O32   S    
C71   O51   A    
C3    O27   A    
C12   C23   A    
C59   C64   D    
C84   H8    S    
C77   O13   A    
Cr6   O18   S    
C60   C63   D    
C82   H6    S    
C52   O116  S    
C42   O66   S    
O86   H39   S    
Cr1   O1    S    
C51   O115  S    
C104  O87   D    
C53   C93   S    
C70   O46   A    
Cr1   O17   S    
C38   C74   S    
C107  O93   D    
C49   C53   S    
C9    C22   A    
C94   O60   S    
Cr7   O51   S    
O88   H40   S    
C4    O28   A    
C29   C33   A    
C11   C24   A    
Cr5   O49   S    
C39   O71   S    
C115  O109  D    
C17   C18   A    
C108  O95   D    
Cr10  O18   S    
C41   C49   D    
C50   O114  S    
C95   O62   S    
O80   H36   S    
Cr11  O15   S    
C9    C66   S    
C80   O44   A    
O78   H35   S    
Cr8   O20   S    
C116  O112  S    
C46   C82   S    
C1    O25   A    
C39   C55   D    
C7    C103  S    
C83   H7    S    
C96   O64   S    
C54   C94   S    
C38   C54   D    
C43   O67   S    
C44   O68   S    
O84   H38   S    
C66   O2    A    
C49   O113  S    
C8    C92   S    
C65   O1    A    
C110  O99   D    
Cr10  O34   S    
C51   C55   S    
C61   C62   S    
C96   O63   D    
C2    O26   A    
C16   C20   A    
O96   H44   S    
C20   C112  S    
C17   C109  S    
C37   C53   D    
C44   C52   D    
C58   C61   D    
C97   O74   S    
C57   H2    S    
C48   O36   A    
Cr9   O37   S    
O66   H26   S    
C99   O78   S    
C71   O47   A    
C21   C22   A    
C3    C86   S    
C85   C105  S    
C72   O48   A    
Cr7   O19   S    
C95   O61   D    
C45   O33   A    
C61   C97   S    
O62   H23   S    
Cr12  O40   S    
C106  O91   D    
C16   H12   S    
Cr5   O17   S    
C64   C100  S    
C12   C67   S    
C101  O81   D    
C75   O11   A    
C9    C26   A    
C100  O79   D    
C93   O58   S    
C10   C21   A    
C25   C29   A    
C33   H13   S    
C46   O34   A    
O71   H31   S    
C73   O9    A    
C106  O92   S    
C112  O104  S    
C38   O70   S    
C30   C34   A    
C12   C27   A    
C27   C31   A    
O70   H30   S    
Cr2   O22   S    
C62   C98   S    
C57   C77   S    
C28   C32   A    
C3    O23   A    
C45   O29   A    
Cr5   O5    S    
C32   C115  S    
C86   C90   D    
C87   C107  S    
C59   C79   S    
O114  H54   S    
C109  O98   S    
C111  O102  S    
C85   C89   D    
C114  O108  S    
C115  O110  S    
C69   O49   A    
C4    C85   S    
Cr6   O26   S    
C1    C88   S    
C57   C62   D    
C114  O107  D    
O69   H29   S    
Cr7   O31   S    
C90   O54   S    
Cr4   O44   S    
C67   O3    A    
C108  O96   S    
C35   C36   A    
O100  H46   S    
C93   O57   D    
C15   C19   A    
O116  H56   S    
Cr10  O14   S    
O72   H32   S    
C4    O24   A    
O113  H53   S    
O54   H18   S    
C92   O56   S    
Cr3   O43   S    
Cr4   O24   S    
C99   O77   D    
C5    C81   D    
C68   O40   A    
O110  H51   S    
C40   O72   S    
C101  O82   S    
Cr9   O33   S    
O106  H49   S    
C7    C91   S    
Cr2   O18   S    
Cr4   O48   S    
C112  O103  D    
O92   H42   S    
C2    C87   S    
C88   C92   D    
Cr12  O36   S    
C32   C36   A    
C79   O43   A    
C78   O14   A    
C66   O38   A    
C97   O73   D    
C60   H3    S    
C88   C108  S    
C42   C50   D    
C41   C72   S    
Cr2   O2    S    
C10   C25   A    
Cr11  O35   S    
C15   C24   A    
C46   O30   A    
O104  H48   S    
C47   O31   A    
Cr1   O41   S    
C78   O42   A    
C43   C70   S    
C39   C75   S    
C103  O86   S    
C48   O32   A    
Cr12  O12   S    
Cr11  O19   S    
C2    O22   A    
C113  O105  D    
C5    C101  S    
C98   O76   S    
O94   H43   S    
C74   O10   A    
C55   C95   S    
O82   H37   S    
Cr1   O21   S    
C11   C68   S    
C14   C21   A    
C107  O94   S    
Cr6   O30   S    
C10   C65   S    
Cr3   O3    S    
C63   C99   S    
O76   H34   S    
Cr5   O29   S    
C37   C73   S    
C60   C80   S    
C30   C113  S    
Cr9   O17   S    
Cr12  O16   S    
Cr8   O8    S    
Cr5   O25   S    
C6    C102  S    
C45   C81   S    
Cr4   O4    S    
Cr10  O10   S    
C105  O89   D    
C47   C83   S    
Cr8   O28   S    
Cr3   O47   S    
Cr4   O20   S    
C18   C110  S    
Cr7   O7    S    
O90   H41   S    
C31   C116  S    
C26   C30   A    
Cr9   O13   S    
O56   H20   S    
C16   C23   A    
C65   O37   A    
C79   O15   A    
C81   H5    S    
Cr3   O19   S    
C59   H4    S    
C80   O16   A    
C13   C17   A    
C41   O65   S    
C58   H1    S    
C56   C96   S    
O108  H50   S    
C19   C20   A    
C113  O106  S    
C25   C26   A    
Cr7   O27   S    
O60   H22   S    
C50   C54   S    
C110  O100  S    
C14   H10   S    
C76   O12   A    
C43   C51   D    
C94   O59   D    
C109  O97   D    
C37   O69   S    
C52   C56   S    
C8    C104  S    
C86   C106  S    
C73   O5    A    
C103  O85   D    
C91   O55   S    
C31   C35   A    
C63   C64   S    
C42   C71   S    
C100  O80   S    
C77   O41   A    
C33   C34   A    
C13   C22   A    
C15   H11   S    
C98   O75   D    
O74   H33   S    
C70   O50   A    
O65   H25   S    
C36   H16   S    
C69   O45   A    
Cr2   O46   S    
Cr10  O38   S    
C1    O21   A    
C58   C78   S    
C23   C24   A    
Cr1   O45   S    
O64   H24   S    
Cr6   O50   S    
O115  H55   S    
C40   C76   S    
Cr6   O6    S    
C11   C28   A    
C6    C90   S    
C29   C114  S    
O55   H19   S    
C8    C84   D    
C102  O84   S    
C27   C28   A    
C44   C69   S    
C116  O111  D    
C67   O39   A    
C104  O88   S    
C111  O101  D    
Cr11  O11   S    
C72   O52   A    
C5    C89   S    
Cr2   O42   S    
O102  H47   S    
C102  O83   D    
Cr12  O20   S    
C47   O35   A    
C75   O7    A    
Cr9   O9    S    
