data_mof_unit_7305.cif
_audit_creation_date              2012-12-10T18:21:14-0500
_audit_creation_method            fapswitch 2.2
_symmetry_space_group_name_H-M    P1
_symmetry_Int_Tables_number       1
_space_group_crystal_system       triclinic
_cell_length_a                    14.97379
_cell_length_b                    14.202018
_cell_length_c                    10.763923
_cell_angle_alpha                 91.133156
_cell_angle_beta                  90.906117
_cell_angle_gamma                 89.122215
_cell_volume                      2288.04302261

loop_
_atom_site_label
_atom_site_type_symbol
_atom_type_description
_atom_site_fract_x
_atom_site_fract_y
_atom_site_fract_z
_atom_type_partial_charge
C1    C     C_R   0.327671 0.500855 0.499568 0.971835
C2    C     C_R   0.050108 0.491494 0.731207 0.320307
C3    C     C_R   0.097149 0.500250 0.618837 -0.143450
C4    C     C_R   0.496879 0.499536 0.258292 1.034055
C5    C     C_R   0.048773 0.506196 0.504003 -0.055456
C6    C     C_R   0.093935 0.514100 0.389547 -0.038698
C7    C     C_R   0.045037 0.522290 0.276563 0.313620
C8    C     C_R   0.952187 0.515691 0.276940 0.487810
C9    C     C_R   0.190902 0.505006 0.616710 0.382308
C10   C     C_R   0.233011 0.503580 0.502652 -0.063174
C11   C     C_R   0.186708 0.512582 0.391344 -0.282928
C12   C     C_3   0.593290 0.481160 0.929232 0.660739
C13   C     C_R   0.576886 0.797977 0.531576 0.545721
C14   C     C_R   0.578116 0.200203 0.521958 0.578584
C15   C     C_R   0.423689 0.799245 0.469177 0.412429
C16   C     C_R   0.422826 0.201826 0.473830 0.428108
C17   C     C_R   0.422768 0.899885 0.468129 -0.044667
C18   C     C_R   0.422355 0.101221 0.470734 -0.038942
C19   C     C_R   0.673234 0.499378 0.499498 0.913131
C20   C     C_R   0.500960 0.949504 0.501203 -0.046280
C21   C     C_R   0.500640 0.050233 0.502658 -0.054031
C22   C     C_R   0.579855 0.898477 0.529007 -0.185159
C23   C     C_R   0.814212 0.510042 0.390941 -0.305726
C24   C     C_R   0.579219 0.099931 0.530896 -0.191134
C25   C     C_R   0.346863 0.952070 0.429660 -0.174531
C26   C     C_R   0.346607 0.050445 0.431176 -0.163340
C27   C     C_R   0.658757 0.048668 0.558661 0.358065
C28   C     C_R   0.659561 0.948692 0.555430 0.349759
C29   C     C_R   0.493940 0.500589 0.741949 0.951842
C30   C     C_3   0.457728 0.597137 0.075108 0.255037
C31   C     C_3   0.429475 0.420856 0.071423 0.260772
C32   C     C_3   0.452687 0.594801 0.932160 0.088018
C33   C     C_3   0.430302 0.421051 0.926592 0.105677
C34   C     C_R   0.769565 0.498562 0.501348 -0.084749
C35   C     C_3   0.593066 0.473289 0.075399 0.803351
C36   C     C_3   0.494959 0.499368 0.122262 -0.352244
C37   C     C_3   0.494426 0.500120 0.879448 -0.329560
C38   C     C_3   0.915559 0.419894 0.114437 -0.188436
C39   C     C_3   0.660614 0.740589 0.690913 -0.175109
C40   C     C_3   0.692611 0.245681 0.405251 -0.222898
C41   C     C_3   0.351314 0.713077 0.128069 -0.163193
C42   C     C_3   0.295540 0.350797 0.122842 -0.283398
C43   C     C_3   0.664994 0.622418 0.144598 -0.326311
C44   C     C_3   0.695977 0.345215 0.113527 -0.127937
C45   C     C_R   0.816389 0.486036 0.612769 0.418428
C46   C     C_3   0.903095 0.603722 0.873020 -0.083646
C47   C     C_R   0.909497 0.496705 0.616557 -0.145290
C48   C     C_R   0.955252 0.504530 0.503513 -0.094641
C49   C     C_R   0.907110 0.510019 0.389815 -0.034590
C50   C     C_R   0.957522 0.499771 0.730201 0.455755
H1    H     H_    0.503011 0.653367 0.107115 0.096687
H2    H     H_    0.213313 0.564544 0.776243 0.366467
H3    H     H_    0.137787 0.497920 0.156133 0.347265
H4    H     H_    0.875911 0.414687 0.027379 0.228079
H5    H     H_    0.890955 0.365911 0.178712 0.081144
H6    H     H_    0.985965 0.403668 0.089498 0.201424
H7    H     H_    0.722891 0.701162 0.714219 0.178586
H8    H     H_    0.604216 0.701578 0.726409 0.197132
H9    H     H_    0.663194 0.810366 0.739370 0.143723
H10   H     H_    0.644268 0.277221 0.337908 0.165030
H11   H     H_    0.710779 0.173041 0.373400 0.139122
H12   H     H_    0.454774 0.351436 0.104922 0.161607
H13   H     H_    0.754398 0.287826 0.405663 0.175128
H14   H     H_    0.296598 0.780416 0.475666 0.319436
H15   H     H_    0.295978 0.223694 0.486016 0.318709
H16   H     H_    0.787099 0.063885 0.550869 0.333215
H17   H     H_    0.773030 0.931907 0.642190 0.331385
H18   H     H_    0.351943 0.743274 0.033634 0.162221
H19   H     H_    0.398247 0.751552 0.191200 0.165047
H20   H     H_    0.283102 0.723588 0.165114 0.198921
H21   H     H_    0.326341 0.305375 0.195287 0.200828
H22   H     H_    0.293513 0.312733 0.031558 0.181339
H23   H     H_    0.225093 0.518850 0.307745 0.206991
H24   H     H_    0.225763 0.365450 0.150426 0.170932
H25   H     H_    0.547295 0.687872 0.917278 0.334545
H26   H     H_    0.499421 0.301333 0.923377 0.387022
H27   H     H_    0.628887 0.649010 0.227111 0.185240
H28   H     H_    0.642911 0.657811 0.059969 0.171332
H29   H     H_    0.735139 0.644464 0.159495 0.219585
H30   H     H_    0.735721 0.369007 0.034745 0.221892
H31   H     H_    0.698206 0.267120 0.112057 0.135744
H32   H     H_    0.726871 0.370070 0.202257 0.149490
H33   H     H_    0.650968 0.557141 0.803874 0.348531
H34   H     H_    0.287034 0.917952 0.395463 0.141361
H35   H     H_    0.637242 0.401066 0.789367 0.392216
H36   H     H_    0.804136 0.406750 0.753401 0.377121
H37   H     H_    0.861510 0.610404 0.957170 0.225253
H38   H     H_    0.867542 0.642586 0.797754 0.109434
H39   H     H_    0.968622 0.636624 0.894688 0.170011
H40   H     H_    0.286602 0.085750 0.398024 0.141815
H41   H     H_    0.380829 0.595652 0.903701 0.217798
H42   H     H_    0.361492 0.438642 0.892993 0.220835
H43   H     H_    0.776187 0.517255 0.305954 0.234560
H44   H     H_    0.137866 0.423126 0.827565 0.358084
N1    N     N_R   0.500070 0.750030 0.500050 -0.172027
N2    N     N_R   0.500070 0.249970 0.500050 -0.172034
O1    O     O_R   0.367860 0.580280 0.500020 -0.554031
O2    O     O_3   0.243295 0.516703 0.722401 -0.815520
O3    O     O_3   0.084335 0.538840 0.164044 -0.703901
O4    O     O_3   0.905365 0.511857 0.165238 -0.584252
O5    O     O_3   0.653556 0.747760 0.560742 -0.531991
O6    O     O_3   0.657583 0.247560 0.526503 -0.512643
O7    O     O_3   0.348849 0.749138 0.436476 -0.730830
O8    O     O_3   0.346887 0.252335 0.443794 -0.746023
O9    O     O_3   0.735561 0.097102 0.589425 -0.724047
O10   O     O_3   0.738702 0.899610 0.574879 -0.734628
O11   O     O_3   0.371370 0.615547 0.124573 -0.534254
O12   O     O_R   0.367860 0.419720 0.500020 -0.560496
O13   O     O_3   0.341331 0.436788 0.115472 -0.559372
O14   O     O_3   0.486921 0.677544 0.882619 -0.770441
O15   O     O_3   0.449194 0.330468 0.876343 -0.722112
O16   O     O_3   0.665028 0.523119 0.137440 -0.623783
O17   O     O_3   0.605633 0.375677 0.105257 -0.658231
O18   O     O_3   0.651236 0.553122 0.895396 -0.787889
O19   O     O_3   0.625765 0.394773 0.878650 -0.739345
O20   O     O_3   0.770219 0.459426 0.714848 -0.772802
O21   O     O_3   0.914325 0.507307 0.842447 -0.583717
O22   O     O_R   0.500000 0.580270 0.314790 -0.627888
O23   O     O_R   0.500000 0.419730 0.314790 -0.620675
O24   O     O_R   0.632160 0.580270 0.499960 -0.585946
O25   O     O_R   0.632160 0.419730 0.499960 -0.584648
O26   O     O_R   0.500030 0.580270 0.685200 -0.600413
O27   O     O_R   0.500030 0.419730 0.685200 -0.559902
O28   O     O_3   0.091172 0.471892 0.843505 -0.719698
Zn1   Zn    Zn3+2 0.500020 0.607200 0.499990 1.032004
Zn2   Zn    Zn3+2 0.500020 0.392800 0.499990 1.053415

loop_
_geom_bond_atom_site_label_1
_geom_bond_atom_site_label_2
_ccdc_geom_bond_type
H14   O7    S    
C30   H1    S    
C4    C36   S    
C9    O2    S    
C40   H10   S    
C30   O11   S    
C50   O21   S    
C35   C36   S    
C18   C26   A    
C24   C27   A    
C7    C8    A    
C46   H39   S    
H3    O3    S    
C43   H28   S    
C40   H13   S    
C7    O3    S    
C13   N1    A    
C42   O13   S    
C44   H32   S    
C15   N1    A    
C5    C6    A    
C14   O6    S    
C32   H41   S    
C27   O9    S    
C43   H29   S    
C39   H7    S    
C17   C20   A    
H36   O20   S    
C14   C24   A    
C12   C37   S    
C2    C50   A    
C16   O8    S    
C38   H5    S    
C28   O10   S    
C25   H34   S    
C31   C33   S    
C4    O23   A    
C33   O15   S    
O22   Zn1   S    
C41   H18   S    
C9    C10   A    
C46   H38   S    
C12   O19   S    
C22   C28   A    
H33   O18   S    
C4    O22   A    
C14   N2    A    
C39   O5    S    
C47   C50   A    
C12   O18   S    
C45   C47   A    
C5    C48   A    
C42   H24   S    
C16   N2    A    
O12   Zn2   S    
C44   H30   S    
O1    Zn1   S    
C44   H31   S    
C11   H23   S    
C33   H42   S    
C1    O1    A    
C6    C11   A    
O24   Zn1   S    
O27   Zn2   S    
C25   C26   A    
C39   H8    S    
C33   C37   S    
C40   H11   S    
C23   H43   S    
C46   O21   S    
C3    C9    A    
N1    Zn1   S    
C47   C48   A    
C38   H4    S    
H35   O19   S    
C23   C34   A    
C39   H9    S    
C29   O26   A    
C42   H22   S    
C31   O13   S    
N2    Zn2   S    
C34   C45   A    
C32   C37   S    
C12   C35   S    
C31   H12   S    
C32   O14   S    
C38   O4    S    
C48   C49   A    
C20   C22   A    
C19   O24   A    
C26   H40   S    
C43   O16   S    
H16   O9    S    
C13   O5    S    
C41   H19   S    
C46   H37   S    
C15   C17   A    
C18   C21   A    
C19   O25   A    
H25   O14   S    
C41   O11   S    
C1    C10   S    
C3    C5    A    
C19   C34   S    
C44   O17   S    
H17   O10   S    
C6    C7    A    
C2    O28   S    
C43   H27   S    
C30   C36   S    
C17   C25   A    
O26   Zn1   S    
C2    C3    A    
C8    O4    S    
O25   Zn2   S    
C30   C32   S    
C45   O20   S    
H26   O15   S    
C29   O27   A    
H2    O2    S    
C42   H21   S    
C13   C22   A    
C35   O17   S    
C23   C49   A    
C10   C11   A    
C1    O12   A    
C40   O6    S    
O23   Zn2   S    
C38   H6    S    
C20   C21   A    
C16   C18   A    
C21   C24   A    
C29   C37   S    
C27   C28   A    
C31   C36   S    
H15   O8    S    
C15   O7    S    
C8    C49   A    
C35   O16   S    
C41   H20   S    
H44   O28   S    
