data_mof_unit_54072.cif
_audit_creation_date              2012-10-26T20:02:32-0400
_audit_creation_method            fapswitch 2.2
_symmetry_space_group_name_H-M    P1
_symmetry_Int_Tables_number       1
_space_group_crystal_system       triclinic
_cell_length_a                    18.806843
_cell_length_b                    18.781463
_cell_length_c                    12.481765
_cell_angle_alpha                 89.999759
_cell_angle_beta                  130.485409
_cell_angle_gamma                 89.999616
_cell_volume                      3353.21399636

loop_
_atom_site_label
_atom_site_type_symbol
_atom_type_description
_atom_site_fract_x
_atom_site_fract_y
_atom_site_fract_z
_atom_type_partial_charge
C1    C     C_R   0.610726 0.897162 0.650508 0.552560
C2    C     C_R   0.661135 0.730359 0.020061 0.050474
C3    C     C_R   0.161164 0.769621 0.020095 0.050477
C4    C     C_R   0.161135 0.230360 0.020063 0.050474
C5    C     C_R   0.582472 0.235482 0.902653 -0.138314
C6    C     C_R   0.582447 0.764509 0.902628 -0.138324
C7    C     C_R   0.082472 0.735482 0.902653 -0.138315
C8    C     C_R   0.082447 0.264510 0.902629 -0.138324
C9    C     C_R   0.584727 0.204712 0.804075 -0.123681
C10   C     C_R   0.584704 0.795286 0.804056 -0.123679
C11   C     C_R   0.084727 0.704712 0.804075 -0.123681
C12   C     C_R   0.610730 0.102834 0.650513 0.552556
C13   C     C_R   0.084704 0.295286 0.804056 -0.123679
C14   C     C_R   0.318406 0.814329 0.151724 -0.134701
C15   C     C_R   0.318382 0.185659 0.151694 -0.134700
C16   C     C_R   0.818406 0.314329 0.151724 -0.134701
C17   C     C_R   0.818382 0.685660 0.151694 -0.134700
C18   C     C_R   0.233864 0.838088 0.233128 -0.125324
C19   C     C_R   0.233846 0.161895 0.233104 -0.125320
C20   C     C_R   0.733864 0.338088 0.233128 -0.125324
C21   C     C_R   0.733845 0.661894 0.233103 -0.125320
C22   C     C_R   0.675528 0.161909 0.736817 0.005307
C23   C     C_R   0.110726 0.397162 0.650508 0.552560
C24   C     C_R   0.675507 0.838073 0.736790 0.005302
C25   C     C_R   0.175528 0.661909 0.736817 0.005307
C26   C     C_R   0.175507 0.338074 0.736791 0.005302
C27   C     C_R   0.690342 0.000005 0.299989 -0.147425
C28   C     C_R   0.190342 0.500005 0.299989 -0.147425
C29   C     C_R   0.340502 1.000000 0.626237 0.129778
C30   C     C_R   0.840502 0.500000 0.626237 0.129778
C31   C     C_R   0.306872 0.000001 0.697730 -0.163700
C32   C     C_R   0.806872 0.500001 0.697730 -0.163700
C33   C     C_R   0.384698 0.099513 0.343498 0.545498
C34   C     C_R   0.110730 0.602834 0.650513 0.552556
C35   C     C_R   0.384701 0.900486 0.343502 0.545499
C36   C     C_R   0.884698 0.599513 0.343498 0.545497
C37   C     C_R   0.884701 0.400486 0.343502 0.545499
C38   C     C_R   0.367850 0.000002 0.843371 -0.147905
C39   C     C_R   0.867850 0.500002 0.843371 -0.147905
C40   C     C_R   0.465148 0.000002 0.923103 -0.019481
C41   C     C_R   0.965148 0.500002 0.923103 -0.019481
C42   C     C_R   0.499710 0.000001 0.847612 0.149153
C43   C     C_R   0.999710 0.500001 0.847612 0.149153
C44   C     C_R   0.528509 0.000002 0.075644 -0.013271
C45   C     C_R   0.242537 0.776351 0.035304 0.029709
C46   C     C_R   0.028509 0.500002 0.075644 -0.013271
C47   C     C_R   0.625545 0.000004 0.152345 0.020880
C48   C     C_R   0.125546 0.500004 0.152345 0.020880
C49   C     C_R   0.659568 0.000005 0.083557 -0.164200
C50   C     C_R   0.159568 0.500005 0.083557 -0.164200
C51   C     C_R   0.601694 0.000002 0.937485 0.006361
C52   C     C_R   0.101694 0.500002 0.937485 0.006361
C53   C     C_R   0.500862 0.000000 0.158076 0.039413
C54   C     C_R   0.000863 0.500000 0.158076 0.039413
C55   C     C_R   0.658911 0.000002 0.373316 0.043305
C56   C     C_R   0.242504 0.223626 0.035261 0.029712
C57   C     C_R   0.158911 0.500002 0.373316 0.043305
C58   C     C_R   0.658379 0.298944 0.120733 -0.128118
C59   C     C_R   0.658355 0.701035 0.120703 -0.128119
C60   C     C_R   0.158379 0.798944 0.120733 -0.128118
C61   C     C_R   0.158355 0.201036 0.120705 -0.128119
C62   C     C_R   0.312649 0.848163 0.245623 -0.004266
C63   C     C_R   0.312634 0.151828 0.245605 -0.004270
C64   C     C_R   0.812649 0.348163 0.245623 -0.004266
C65   C     C_R   0.812634 0.651827 0.245604 -0.004270
C66   C     C_R   0.752645 0.171438 0.744445 -0.120761
C67   C     C_R   0.742537 0.276351 0.035304 0.029709
C68   C     C_R   0.752609 0.828518 0.744389 -0.120775
C69   C     C_R   0.252645 0.671438 0.744445 -0.120761
C70   C     C_R   0.252610 0.328519 0.744391 -0.120774
C71   C     C_R   0.323779 0.717982 0.841858 -0.136201
C72   C     C_R   0.323721 0.281949 0.841765 -0.136206
C73   C     C_R   0.823780 0.217982 0.841858 -0.136201
C74   C     C_R   0.823719 0.781947 0.841762 -0.136206
C75   C     C_R   0.321566 0.753297 0.937519 -0.118145
C76   C     C_R   0.321504 0.246638 0.937424 -0.118153
C77   C     C_R   0.821566 0.253297 0.937519 -0.118145
C78   C     C_R   0.742504 0.723625 0.035260 0.029712
C79   C     C_R   0.821503 0.746636 0.937422 -0.118154
C80   C     C_R   0.745136 0.244843 0.934022 0.036295
C81   C     C_R   0.745094 0.755124 0.933966 0.036295
C82   C     C_R   0.245136 0.744843 0.934022 0.036295
C83   C     C_R   0.245095 0.255125 0.933967 0.036295
C84   C     C_R   0.667777 0.203345 0.824122 0.025433
C85   C     C_R   0.667748 0.796639 0.824089 0.025436
C86   C     C_R   0.167777 0.703345 0.824122 0.025433
C87   C     C_R   0.167748 0.296639 0.824090 0.025436
C88   C     C_1   0.272909 0.999998 0.474871 0.236795
C89   C     C_R   0.661164 0.269621 0.020095 0.050477
C90   C     C_1   0.772909 0.499998 0.474871 0.236795
C91   C     C_1   0.662940 0.999997 0.906084 0.283423
C92   C     C_1   0.162940 0.499997 0.906084 0.283423
Cu1   Cu    Cu3+1 0.526340 0.000000 0.421010 0.930795
Cu2   Cu    Cu3+1 0.026340 0.500000 0.421010 0.930795
Cu3   Cu    Cu3+1 0.473640 0.000000 0.578990 0.956190
Cu4   Cu    Cu3+1 0.973640 0.500000 0.578990 0.956190
H1    H     H_    0.228984 0.862620 0.306523 0.151468
H2    H     H_    0.928565 0.499998 0.111236 0.118103
H3    H     H_    0.336276 0.000004 0.890811 0.106486
H4    H     H_    0.836276 0.500004 0.890811 0.106486
H5    H     H_    0.232234 0.000002 0.639968 0.109213
H6    H     H_    0.732234 0.500002 0.639968 0.109213
H7    H     H_    0.518524 0.232803 0.886315 0.099565
H8    H     H_    0.518503 0.767197 0.886300 0.099568
H9    H     H_    0.018524 0.732803 0.886315 0.099565
H10   H     H_    0.018503 0.267197 0.886301 0.099568
H11   H     H_    0.596681 0.293340 0.110110 0.110321
H12   H     H_    0.228970 0.137363 0.306503 0.151470
H13   H     H_    0.596657 0.706638 0.110083 0.110309
H14   H     H_    0.096681 0.793340 0.110110 0.110321
H15   H     H_    0.096658 0.206639 0.110084 0.110309
H16   H     H_    0.382776 0.819735 0.170927 0.121244
H17   H     H_    0.382755 0.180266 0.170901 0.121241
H18   H     H_    0.882776 0.319735 0.170926 0.121244
H19   H     H_    0.882756 0.680268 0.170903 0.121240
H20   H     H_    0.759570 0.141219 0.677724 0.128913
H21   H     H_    0.759538 0.858732 0.677669 0.128916
H22   H     H_    0.259570 0.641220 0.677724 0.128914
H23   H     H_    0.728984 0.362620 0.306523 0.151468
H24   H     H_    0.259539 0.358733 0.677670 0.128916
H25   H     H_    0.380255 0.787531 0.011076 0.101079
H26   H     H_    0.380167 0.212374 0.010938 0.101089
H27   H     H_    0.880256 0.287531 0.011076 0.101079
H28   H     H_    0.880164 0.712371 0.010934 0.101090
H29   H     H_    0.382817 0.724861 0.846508 0.107477
H30   H     H_    0.382739 0.275042 0.846379 0.107483
H31   H     H_    0.882817 0.224861 0.846508 0.107478
H32   H     H_    0.882737 0.775039 0.846375 0.107483
H33   H     H_    0.519626 0.183262 0.710775 0.146404
H34   H     H_    0.728969 0.637363 0.306502 0.151471
H35   H     H_    0.519606 0.816750 0.710768 0.146416
H36   H     H_    0.019625 0.683261 0.710775 0.146404
H37   H     H_    0.019606 0.316750 0.710768 0.146416
H38   H     H_    0.708079 0.000003 0.487284 0.121054
H39   H     H_    0.208079 0.500003 0.487284 0.121054
H40   H     H_    0.735525 0.000007 0.148684 0.115378
H41   H     H_    0.235525 0.500007 0.148684 0.115378
H42   H     H_    0.765082 0.000007 0.358535 0.093767
H43   H     H_    0.265082 0.500006 0.358535 0.093767
H44   H     H_    0.428565 0.999998 0.111236 0.118103
N1    N     N_R   0.566260 0.000000 0.302220 -0.236059
N2    N     N_R   0.066260 0.500000 0.302220 -0.236059
N3    N     N_R   0.434410 0.000000 0.697680 -0.254611
N4    N     N_R   0.934410 0.500000 0.697680 -0.254611
N5    N     N_1   0.217462 0.999996 0.353095 -0.339235
N6    N     N_1   0.717462 0.499996 0.353095 -0.339236
N7    N     N_1   0.718161 0.999994 0.892089 -0.303934
N8    N     N_1   0.218161 0.499994 0.892089 -0.303934
O1    O     O_R   0.608610 0.924520 0.551740 -0.503057
O2    O     O_R   0.435880 0.924530 0.314850 -0.508668
O3    O     O_R   0.935880 0.575470 0.314850 -0.508660
O4    O     O_R   0.935880 0.424530 0.314850 -0.508668
O5    O     O_R   0.391380 0.075460 0.448260 -0.500709
O6    O     O_R   0.391380 0.924540 0.448260 -0.500713
O7    O     O_R   0.891380 0.575460 0.448260 -0.500709
O8    O     O_R   0.891380 0.424540 0.448260 -0.500713
O9    O     O_R   0.608610 0.075480 0.551740 -0.503059
O10   O     O_R   0.108610 0.424520 0.551740 -0.503057
O11   O     O_R   0.108610 0.575480 0.551740 -0.503059
O12   O     O_R   0.564110 0.924510 0.685150 -0.504935
O13   O     O_R   0.564110 0.075490 0.685150 -0.504932
O14   O     O_R   0.064110 0.424510 0.685150 -0.504935
O15   O     O_R   0.064110 0.575490 0.685150 -0.504932
O16   O     O_R   0.435880 0.075470 0.314850 -0.508661

loop_
_geom_bond_atom_site_label_1
_geom_bond_atom_site_label_2
_ccdc_geom_bond_type
C83   C87   A    
C5    H7    S    
C10   C85   A    
Cu3   N3    S    
Cu2   O11   S    
C55   N1    A    
C92   N8    T    
C53   H44   S    
Cu1   O1    S    
C45   C82   A    
C35   O6    A    
C4    C8    A    
C11   H36   S    
C91   N7    T    
Cu1   O2    S    
C50   H41   S    
C39   C41   A    
C28   C57   A    
C7    C11   A    
C8    C13   A    
C66   H20   S    
C57   N2    A    
C2    C78   A    
C31   H5    S    
C21   C59   A    
C3    C7    A    
Cu3   O13   S    
C33   O5    A    
C43   C52   A    
C32   C39   A    
Cu4   O7    S    
C11   C86   A    
Cu2   O4    S    
C14   C62   A    
C23   O10   A    
C12   C22   S    
C69   H22   S    
C67   C89   A    
C30   N4    A    
C58   H11   S    
C23   C26   S    
C69   C71   A    
C10   H35   S    
C22   C66   A    
C29   C88   S    
C16   H18   S    
C51   C91   S    
C12   O13   A    
C44   C53   A    
C74   H32   S    
C19   C63   A    
C26   C87   A    
C49   C51   A    
C50   C52   A    
C41   C46   A    
C15   H17   S    
C1    O1    A    
C18   H1    S    
C6    H8    S    
C12   O9    A    
C30   C32   A    
C24   C85   A    
C53   N1    A    
C44   C47   A    
C30   C90   S    
C42   C51   A    
Cu2   Cu4   S    
C23   O14   A    
C19   H12   S    
C40   C42   A    
Cu1   Cu3   S    
C4    C56   A    
C41   C43   A    
C37   O8    A    
C13   C87   A    
C43   N4    A    
C2    C6    A    
C28   H43   S    
C76   C83   A    
C14   C45   A    
C46   C48   A    
C71   C75   A    
C27   H42   S    
C80   C84   A    
Cu2   N2    S    
C33   O16   A    
C47   C49   A    
C34   O15   A    
C70   H24   S    
C79   C81   A    
C2    C59   A    
C18   C62   A    
Cu1   O16   S    
Cu2   O3    S    
C82   C86   A    
C66   C73   A    
C4    C61   A    
C3    C45   A    
Cu3   O12   S    
C72   H30   S    
Cu3   O5    S    
C22   C84   A    
C20   C64   A    
C14   H16   S    
C5    C9    A    
C77   H27   S    
C68   H21   S    
Cu4   N4    S    
C25   C86   A    
C33   C63   S    
C46   C54   A    
C7    H9    S    
C88   N5    T    
C72   C76   A    
C36   O3    A    
C16   C67   A    
Cu1   O9    S    
Cu2   O10   S    
C18   C60   A    
C54   N2    A    
C49   H40   S    
C74   C79   A    
C26   C70   A    
C32   H6    S    
C52   C92   S    
C25   C69   A    
C37   O4    A    
C20   C58   A    
C61   H15   S    
C37   C64   S    
Cu1   N1    S    
C17   H19   S    
C56   C83   A    
C77   C80   A    
C27   C47   A    
C28   C48   A    
C73   C77   A    
C21   C65   A    
C75   H25   S    
C13   H37   S    
C1    O12   A    
C54   H2    S    
C67   C80   A    
C38   H3    S    
C8    H10   S    
C6    C10   A    
C31   C38   A    
C75   C82   A    
C9    H33   S    
C55   H38   S    
C79   H28   S    
C25   C34   S    
C17   C65   A    
Cu4   O15   S    
Cu3   O6    S    
C76   H26   S    
C15   C56   A    
C36   C65   S    
C57   H39   S    
C29   C31   A    
C73   H31   S    
C34   O11   A    
C38   C40   A    
C78   C81   A    
C39   H4    S    
Cu4   O8    S    
C19   C61   A    
C48   C50   A    
C17   C78   A    
C59   H13   S    
Cu4   O14   S    
C35   C62   S    
C27   C55   A    
C35   O2    A    
C58   C89   A    
C5    C89   A    
C21   H34   S    
C60   H14   S    
C24   C68   A    
C9    C84   A    
C40   C44   A    
C1    C24   S    
C90   N6    T    
C42   N3    A    
C15   C63   A    
C71   H29   S    
C70   C72   A    
C16   C64   A    
C3    C60   A    
C68   C74   A    
C20   H23   S    
C81   C85   A    
C36   O7    A    
C29   N3    A    
