data_mof_unit_14311.cif
_audit_creation_date              2013-03-05T16:12:06-0500
_audit_creation_method            fapswitch 2.2
_symmetry_space_group_name_H-M    P1
_symmetry_Int_Tables_number       1
_space_group_crystal_system       triclinic
_cell_length_a                    9.976208
_cell_length_b                    10.61051
_cell_length_c                    17.010846
_cell_angle_alpha                 92.759484
_cell_angle_beta                  85.020591
_cell_angle_gamma                 89.520219
_cell_volume                      1791.62484628

loop_
_atom_site_label
_atom_site_type_symbol
_atom_site_description
_atom_site_fract_x
_atom_site_fract_y
_atom_site_fract_z
_atom_type_partial_charge
O1    O     O_R   0.385380 0.683250 0.500010 -0.664248
O2    O     O_R   0.614620 0.316750 0.499990 -0.667677
O3    O     O_R   0.614710 0.683220 0.500000 -0.549159
O4    O     O_R   0.385290 0.316780 0.500000 -0.541253
C1    C     C_R   0.499878 0.739045 0.498082 0.885048
C2    C     C_R   0.500191 0.260897 0.501978 0.882159
O5    O     O_R   0.371780 0.500040 0.615800 -0.645435
O6    O     O_R   0.628220 0.499960 0.384200 -0.643742
O7    O     O_R   0.601110 0.500010 0.615800 -0.577577
O8    O     O_R   0.398890 0.499990 0.384200 -0.581697
C3    C     C_R   0.481186 0.500052 0.652394 0.864992
C4    C     C_R   0.518794 0.496037 0.347482 0.858634
Zn1   Zn    Zn3+2 0.346870 0.500020 0.500000 0.984337
Zn2   Zn    Zn3+2 0.653130 0.499980 0.500000 0.984695
C5    C     C_R   0.470449 0.489733 0.737399 -0.027991
C6    C     C_R   0.529320 0.468951 0.262553 -0.035612
C7    C     C_R   0.586778 0.498718 0.777793 -0.182285
C8    C     C_R   0.415741 0.424411 0.227493 -0.170939
C9    C     C_R   0.580461 0.476304 0.857280 -0.167639
C10   C     C_R   0.426066 0.382548 0.149309 -0.168671
C11   C     C_R   0.457833 0.443249 0.897051 0.203209
C12   C     C_R   0.548013 0.393496 0.103091 0.206635
C13   C     C_R   0.340580 0.438746 0.857705 -0.177674
C14   C     C_R   0.662553 0.436847 0.137530 -0.171020
C15   C     C_R   0.346844 0.461311 0.777884 -0.219484
C16   C     C_R   0.653270 0.474456 0.217348 -0.216638
C17   C     C_2   0.447884 0.423231 0.981136 -0.228469
C18   C     C_2   0.551543 0.379618 0.017397 -0.238320
H1    H     H_    0.683228 0.521435 0.748000 0.194666
H2    H     H_    0.318249 0.421113 0.260117 0.204052
H3    H     H_    0.741610 0.509905 0.243220 0.164017
H4    H     H_    0.256324 0.452234 0.747547 0.167128
H5    H     H_    0.645470 0.350363 0.984232 0.148283
H6    H     H_    0.354767 0.454451 0.014474 0.149460
H7    H     H_    0.244903 0.415685 0.888471 0.131412
H8    H     H_    0.757102 0.446728 0.102048 0.128329
H9    H     H_    0.337054 0.346181 0.124365 0.134139
H10   H     H_    0.671177 0.486818 0.887413 0.132378
C19   C     C_R   0.543203 0.936032 0.563302 -0.176774
C20   C     C_R   0.458083 0.063695 0.436220 -0.176732
H11   H     H_    0.573448 0.884547 0.612609 0.184764
H12   H     H_    0.428112 0.115159 0.386888 0.185269
C21   C     C_R   0.544708 0.066110 0.567003 0.159186
C22   C     C_R   0.457105 0.933527 0.432407 0.157654
C23   C     C_R   0.501188 0.128325 0.502505 -0.073791
C24   C     C_R   0.499579 0.871502 0.497216 -0.073815
C25   C     C_R   0.936764 0.410055 0.455974 0.024646
C26   C     C_R   0.063099 0.589278 0.544748 0.022759
C27   C     C_R   0.078999 0.405712 0.460732 0.349708
C28   C     C_R   0.920343 0.592428 0.541178 0.351081
N1    N     N_R   0.142790 0.500030 0.500020 -0.179968
N2    N     N_R   0.857210 0.499970 0.499980 -0.181875
C29   C     C_3   0.583911 0.134149 0.641786 -0.418657
C30   C     C_3   0.460188 0.161037 0.699469 -0.857559
H13   H     H_    0.491102 0.208692 0.754436 0.264329
H14   H     H_    0.387971 0.223125 0.672963 0.264367
H15   H     H_    0.409698 0.071520 0.714941 0.264781
H16   H     H_    0.656031 0.075199 0.670829 0.228856
H17   H     H_    0.636378 0.223556 0.629158 0.227914
C31   C     C_3   0.417384 0.864530 0.358000 -0.411266
C32   C     C_3   0.541620 0.820048 0.304896 -0.867135
H18   H     H_    0.605541 0.756933 0.336496 0.262506
H19   H     H_    0.510072 0.767419 0.251712 0.252943
H20   H     H_    0.601843 0.902436 0.285691 0.267432
H21   H     H_    0.352380 0.783088 0.372497 0.229427
H22   H     H_    0.356939 0.927664 0.324047 0.224286
C33   C     C_3   0.877709 0.318665 0.397205 -0.298691
C34   C     C_3   0.932748 0.339027 0.311967 -0.893447
H23   H     H_    0.937389 0.441285 0.300976 0.252591
H24   H     H_    0.034218 0.296386 0.298706 0.296021
H25   H     H_    0.866076 0.292841 0.270479 0.248163
H26   H     H_    0.896121 0.219646 0.412054 0.232309
H27   H     H_    0.769436 0.330277 0.397741 0.264234
C35   C     C_3   0.122283 0.678921 0.604455 -0.303577
C36   C     C_3   0.073061 0.651629 0.689671 -0.873714
H28   H     H_    0.066564 0.548415 0.697177 0.251368
H29   H     H_    0.973453 0.695964 0.706989 0.297757
H30   H     H_    0.144232 0.691827 0.730667 0.242890
H31   H     H_    0.231014 0.670695 0.601594 0.263068
H32   H     H_    0.099571 0.778443 0.592575 0.230926
N3    N     N_R   0.152827 0.294427 0.431668 0.223967
O9    O     O_R   0.127612 0.187673 0.464159 -0.411314
O10   O     O_R   0.241047 0.297304 0.371112 -0.448127
N4    N     N_R   0.843904 0.698823 0.575995 0.224676
O11   O     O_R   0.862924 0.809569 0.547597 -0.414337
O12   O     O_R   0.762857 0.688035 0.639244 -0.437142

loop_
_geom_bond_atom_site_label_1
_geom_bond_atom_site_label_2
_geom_bond_distance
_ccdc_geom_bond_type
C2    C23   1.407077 S    
C7    H1    1.082491 S    
O7    Zn2   1.993020 S    
N3    O9    1.301049 A    
C29   H17   1.108364 S    
C28   N4    1.431616 S    
C25   C27   1.428752 A    
C29   C30   1.524654 S    
O5    C3    1.302579 A    
C14   H8    1.083478 S    
O1    C1    1.289575 A    
C9    C11   1.401317 A    
C14   C16   1.391672 A    
C5    C15   1.401635 A    
C33   H26   1.109850 S    
C27   N3    1.430799 S    
O4    Zn1   1.978538 S    
C32   H19   1.110454 S    
Zn1   N1    2.035914 S    
C3    C5    1.450163 S    
C21   C29   1.514950 S    
C26   N1    1.385906 A    
Zn2   N2    2.035915 S    
C4    C6    1.453961 S    
C34   H23   1.110492 S    
C27   N1    1.368676 A    
C28   N2    1.367852 A    
C33   H27   1.085324 S    
C15   H4    1.081050 S    
C20   H12   1.084789 S    
C11   C17   1.451151 S    
C31   H22   1.112160 S    
C16   H3    1.081110 S    
C35   H32   1.109844 S    
O2    C2    1.289221 A    
C25   C33   1.518319 S    
N3    O10   1.297190 A    
C22   C24   1.405130 A    
C17   H6    1.086087 S    
C6    C16   1.401526 A    
C20   C23   1.393282 A    
C30   H14   1.110586 S    
C35   C36   1.531529 S    
C33   C34   1.531199 S    
C26   C35   1.518336 S    
N4    O11   1.301001 A    
O4    C2    1.289918 A    
C19   C21   1.378863 A    
C31   C32   1.526337 S    
C32   H20   1.110905 S    
C36   H28   1.110443 S    
C9    H10   1.082090 S    
O7    C3    1.299819 A    
C20   C22   1.379696 A    
O6    C4    1.303913 A    
C21   C23   1.405594 A    
O3    Zn2   1.978538 S    
O8    C4    1.299885 A    
C19   C24   1.392045 A    
C8    H2    1.078841 S    
C34   H24   1.105971 S    
C10   C12   1.398850 A    
C18   H5    1.085891 S    
C13   H7    1.083680 S    
C35   H31   1.084180 S    
C11   C13   1.397265 A    
C12   C14   1.399844 A    
O1    Zn1   1.984907 S    
C5    C7    1.400723 A    
C30   H13   1.110069 S    
O6    Zn2   2.006746 S    
N4    O12   1.298791 A    
O3    C1    1.288904 A    
O8    Zn1   1.993020 S    
C31   H21   1.109163 S    
C29   H16   1.112169 S    
C25   N2    1.384150 A    
C1    C24   1.406200 S    
C10   H9    1.082989 S    
C22   C31   1.515829 S    
C34   H25   1.110972 S    
C26   C28   1.430887 A    
C7    C9    1.380301 A    
C8    C10   1.376716 A    
C13   C15   1.386257 A    
C32   H18   1.109530 S    
O2    Zn2   1.984907 S    
C36   H30   1.111194 S    
O5    Zn1   2.006746 S    
C19   H11   1.085484 S    
C6    C8    1.400724 A    
C36   H29   1.106136 S    
C17   C18   1.339490 D    
C12   C18   1.455412 S    
C30   H15   1.110949 S    
