data_mof_unit_23500.cif
_audit_creation_date              2013-03-05T15:44:32-0500
_audit_creation_method            fapswitch 2.2
_symmetry_space_group_name_H-M    P1
_symmetry_Int_Tables_number       1
_space_group_crystal_system       triclinic
_cell_length_a                    27.742174
_cell_length_b                    10.908369
_cell_length_c                    9.688843
_cell_angle_alpha                 89.838644
_cell_angle_beta                  89.908176
_cell_angle_gamma                 90.545822
_cell_volume                      2931.90723178

loop_
_atom_site_label
_atom_site_type_symbol
_atom_site_description
_atom_site_fract_x
_atom_site_fract_y
_atom_site_fract_z
_atom_type_partial_charge
O1    O     O_R   0.500010 0.321960 0.617040 -0.557855
O2    O     O_R   0.499990 0.321920 0.382900 -0.541860
C1    C     C_R   0.498963 0.264854 0.499541 0.896085
O3    O     O_R   0.430270 0.500040 0.617060 -0.542882
O4    O     O_R   0.430260 0.500000 0.382910 -0.562841
C2    C     C_R   0.407651 0.500056 0.500085 0.865400
Cu1   Cu    Cu3+1 0.500010 0.500020 0.638630 1.005088
Cu2   Cu    Cu3+1 0.499990 0.499980 0.361370 1.008623
O5    O     O_R   0.500010 0.678080 0.617100 -0.567121
O6    O     O_R   0.499990 0.678040 0.382960 -0.551836
O7    O     O_R   0.569740 0.500000 0.617090 -0.583789
O8    O     O_R   0.569730 0.499960 0.382940 -0.578511
C3    C     C_R   0.498757 0.734645 0.499642 0.884085
C4    C     C_R   0.592491 0.502235 0.500014 0.803062
C5    C     C_R   0.177562 0.427029 0.584627 0.565701
O9    O     O_2   0.201915 0.348564 0.666144 -0.514643
N1    N     N_R   0.202288 0.505749 0.499480 -0.458553
C6    C     C_R   0.178774 0.588928 0.418629 0.556547
C7    C     C_R   0.279865 0.599150 0.562444 -0.106225
C8    C     C_R   0.330135 0.598135 0.563838 0.104781
C9    C     C_R   0.328726 0.405305 0.436821 0.095779
C10   C     C_R   0.278429 0.407486 0.436910 -0.104282
C11   C     C_R   0.253951 0.504268 0.499137 0.267445
C12   C     C_R   0.102022 0.510112 0.502682 -0.050026
C13   C     C_R   0.126969 0.429175 0.589398 -0.068384
C14   C     C_R   0.101286 0.359696 0.686539 -0.139061
C15   C     C_R   0.128225 0.592862 0.418948 -0.022589
C16   C     C_R   0.354946 0.501085 0.500336 -0.128655
H1    H     H_    0.258210 0.333728 0.388908 0.172178
H2    H     H_    0.120644 0.304284 0.760533 0.194898
C17   C     C_R   0.645511 0.502608 0.499002 -0.075888
C18   C     C_R   0.974293 0.418993 0.574469 0.064146
C19   C     C_R   0.975347 0.580549 0.396724 -0.027439
C20   C     C_R   0.949431 0.500276 0.485027 0.059387
C21   C     C_R   0.948097 0.320321 0.632555 -0.230175
C22   C     C_R   0.898177 0.316404 0.627561 -0.127296
C23   C     C_R   0.872856 0.406747 0.556266 -0.002809
C24   C     C_R   0.898288 0.496351 0.479109 -0.077066
C25   C     C_R   0.872706 0.582154 0.397635 -0.073438
C26   C     C_R   0.821497 0.576332 0.400941 0.571470
N2    N     N_R   0.798133 0.492026 0.482240 -0.454462
C27   C     C_R   0.822498 0.407270 0.557634 0.570111
C28   C     C_R   0.718883 0.419410 0.400009 0.216258
C29   C     C_R   0.668752 0.424620 0.405526 -0.273180
C30   C     C_R   0.673422 0.578776 0.587483 0.122208
C31   C     C_R   0.723841 0.571835 0.581266 -0.171489
C32   C     C_R   0.746510 0.493048 0.488560 0.287685
O10   O     O_2   0.797884 0.323947 0.634005 -0.519787
C33   C     C_R   0.024975 0.431295 0.592493 -0.001010
C34   C     C_R   0.050914 0.508945 0.500413 0.048443
C35   C     C_R   0.026299 0.588473 0.408850 0.070188
C36   C     C_R   0.051270 0.372183 0.700573 0.122284
H3    H     H_    0.647782 0.366580 0.337172 0.185733
H4    H     H_    0.879522 0.241653 0.679399 0.188616
H5    H     H_    0.965898 0.243832 0.680939 0.149328
O11   O     O_2   0.204236 0.666988 0.337723 -0.511888
C37   C     C_R   0.103464 0.680586 0.342090 -0.137811
H6    H     H_    0.260752 0.673819 0.610687 0.172306
H7    H     H_    0.122666 0.750656 0.284004 0.194663
C38   C     C_R   0.949263 0.645558 0.294805 0.077288
C39   C     C_R   0.899453 0.664289 0.311150 0.136210
O12   O     O_2   0.794732 0.651011 0.321802 -0.537158
C40   C     C_R   0.053369 0.680850 0.341102 -0.165584
H8    H     H_    0.745989 0.629721 0.646725 0.145353
H9    H     H_    0.036173 0.756395 0.289355 0.178594
C41   C     C_2   0.479627 0.932539 0.397846 0.189982
C42   C     C_2   0.501041 0.866783 0.497325 -0.389837
H10   H     H_    0.524374 0.910478 0.572983 0.136928
C43   C     C_2   0.491212 0.063014 0.384974 0.176644
C44   C     C_2   0.491307 0.132976 0.499614 -0.379464
H11   H     H_    0.481941 0.092078 0.598691 0.170521
C45   C     C_2   0.470629 0.432753 0.924535 0.267371
N3    N     N_2   0.499480 0.498660 0.846910 -0.300614
H12   H     H_    0.519936 0.565739 0.893295 0.177221
C46   C     C_2   0.467839 0.442626 0.078938 -0.034761
N4    N     N_2   0.499460 0.498630 0.153040 -0.288784
H13   H     H_    0.438429 0.395593 0.131281 0.198828
H14   H     H_    0.529203 0.535990 0.105075 0.195474
I1    I     I_    0.362513 0.251388 0.345642 -0.251108
I2    I     I_    0.976544 0.660491 0.086966 -0.453080
C47   C     C_3   0.651308 0.672391 0.683495 -0.390528
C48   C     C_3   0.631089 0.780956 0.603124 -0.775220
H15   H     H_    0.660390 0.827844 0.544462 0.265193
H16   H     H_    0.602769 0.750681 0.529869 0.231958
H17   H     H_    0.615024 0.847507 0.676082 0.243045
H18   H     H_    0.622994 0.629897 0.749275 0.224996
H19   H     H_    0.678867 0.708842 0.756221 0.208488
C49   C     C_3   0.877475 0.774493 0.238497 -0.320108
C50   C     C_3   0.861706 0.871932 0.342155 -0.740987
H20   H     H_    0.835742 0.834886 0.419044 0.273401
H21   H     H_    0.893658 0.908282 0.398267 0.235148
H22   H     H_    0.844425 0.948933 0.286390 0.255605
H23   H     H_    0.904107 0.821326 0.170673 0.214995
H24   H     H_    0.847785 0.746858 0.168518 0.254758
I3    I     I_    0.427456 0.858014 0.257866 -0.175686
I4    I     I_    0.511719 0.121507 0.181734 -0.266210
I5    I     I_    0.421673 0.300702 0.843340 -0.205398
I6    I     I_    0.751504 0.300445 0.255630 -0.291222
C51   C     C_3   0.029299 0.338353 0.840272 -0.432107
C52   C     C_3   0.056698 0.396018 0.961456 -0.733725
H25   H     H_    0.092179 0.351900 0.976501 0.242667
H26   H     H_    0.062194 0.495833 0.943681 0.279907
H27   H     H_    0.035600 0.383156 0.058063 0.256962
H28   H     H_    0.992052 0.372999 0.850098 0.240455
H29   H     H_    0.028812 0.237075 0.852852 0.205732
I7    I     I_    0.366042 0.748799 0.658484 -0.231786

loop_
_geom_bond_atom_site_label_1
_geom_bond_atom_site_label_2
_geom_bond_distance
_ccdc_geom_bond_type
C40   H9    1.078878 S    
C10   H1    1.082879 S    
N2    C27   1.361976 A    
C21   C22   1.386065 A    
C28   I6    2.118580 S    
C4    C17   1.470877 S    
C46   N4    1.285497 D    
C43   I4    2.142610 S    
C47   C48   1.527206 S    
Cu1   Cu2   2.686331 S    
Cu1   N3    2.018033 S    
C30   C31   1.402699 A    
Cu1   O7    1.945354 S    
N1    C11   1.433479 S    
C22   C23   1.397395 A    
N4    H14   1.026745 S    
O3    Cu1   1.946332 S    
O4    C2    1.296151 A    
O7    C4    1.297279 A    
C5    C13   1.404678 A    
C41   C43   1.461064 S    
C5    O9    1.349720 S    
Cu2   N4    2.018648 S    
C26   O12   1.346376 S    
C5    N1    1.368013 A    
N3    H12   1.026752 S    
C23   C27   1.397148 A    
O5    C3    1.293689 A    
C49   H23   1.108183 S    
C29   H3    1.083726 S    
C2    C16   1.462319 S    
C7    C8    1.394843 A    
C12   C15   1.408156 A    
C44   H11   1.087479 S    
C50   H21   1.111121 S    
C47   H18   1.108093 S    
C6    O11   1.349635 S    
C41   C42   1.342561 D    
C22   H4    1.083423 S    
O1    Cu1   1.954161 S    
C9    C10   1.395790 A    
C45   C46   1.502090 S    
C25   C39   1.427095 A    
C37   C40   1.389828 A    
C8    I7    2.124746 S    
C45   I5    2.123884 S    
C7    H6    1.082883 S    
C12   C34   1.417992 A    
C51   H29   1.111100 S    
C49   H24   1.107804 S    
C17   C29   1.404495 A    
C21   H5    1.079904 S    
C42   H10   1.086806 S    
C18   C21   1.408474 A    
C1    C44   1.452156 S    
C35   C40   1.410867 A    
C12   C13   1.404884 A    
O3    C2    1.296344 A    
C15   C37   1.397226 A    
C25   C26   1.421758 A    
C8    C16   1.410419 A    
C34   C35   1.419440 A    
C13   C14   1.396939 A    
C48   H15   1.111014 S    
C52   H27   1.111008 S    
C31   H8    1.083797 S    
C38   C39   1.407545 A    
O1    C1    1.299488 A    
C18   C20   1.422024 A    
C7    C11   1.398248 A    
C28   C29   1.393377 A    
C23   C24   1.411756 A    
C39   C49   1.524129 S    
C14   C36   1.401949 A    
C51   C52   1.532953 S    
Cu2   O8    1.946326 S    
C33   C36   1.432512 A    
C9    I1    2.124539 S    
C52   H26   1.110913 S    
N1    C6    1.367975 A    
N2    C32   1.433487 S    
C27   O10   1.350080 S    
C50   H22   1.110508 S    
C46   H13   1.084126 S    
C47   H19   1.112058 S    
C26   N2    1.367211 A    
C9    C16   1.410663 A    
O8    C4    1.299295 A    
C14   H2    1.082926 S    
C19   C38   1.417646 A    
C48   H16   1.108270 S    
C3    C42   1.442305 S    
Cu1   O5    1.952930 S    
C31   C32   1.397760 A    
C38   I2    2.155302 S    
C20   C24   1.420303 A    
O2    Cu2   1.952930 S    
C6    C15   1.403411 A    
C45   N3    1.306594 D    
O6    C3    1.290241 A    
O4    Cu2   1.945356 S    
C19   C35   1.420416 A    
C48   H17   1.110571 S    
C36   C51   1.526410 S    
O2    C1    1.288825 A    
C24   C25   1.418861 A    
C52   H25   1.109427 S    
C19   C20   1.413316 A    
C51   H28   1.107702 S    
C30   C47   1.516582 S    
C43   C44   1.349414 D    
C18   C33   1.422229 A    
C37   H7    1.083308 S    
C49   C50   1.530779 S    
Cu2   O6    1.954161 S    
C33   C34   1.418900 A    
C17   C30   1.420805 A    
C10   C11   1.398268 A    
C50   H20   1.108216 S    
C28   C32   1.401078 A    
C41   I3    2.141289 S    
