data_mof_unit_58882.cif
_audit_creation_date              2012-12-11T16:05:12-0500
_audit_creation_method            fapswitch 2.2
_symmetry_space_group_name_H-M    P1
_symmetry_Int_Tables_number       1
_space_group_crystal_system       triclinic
_cell_length_a                    10.689266
_cell_length_b                    10.558774
_cell_length_c                    16.854555
_cell_angle_alpha                 98.614382
_cell_angle_beta                  98.868055
_cell_angle_gamma                 61.132994
_cell_volume                      1639.75507527

loop_
_atom_site_label
_atom_site_type_symbol
_atom_type_description
_atom_site_fract_x
_atom_site_fract_y
_atom_site_fract_z
_atom_type_partial_charge
C1    C     C_R   0.381376 0.709014 0.386633 0.529434
C2    C     C_3   0.428450 0.644632 0.234039 -0.162849
C3    C     C_3   0.369613 0.752671 0.307134 0.050867
C4    C     C_R   0.405262 0.374471 0.356991 0.539408
C5    C     C_3   0.426380 0.849701 0.284258 -0.083015
C6    C     C_3   0.280669 0.933754 0.235874 -0.093643
C7    C     C_3   0.224342 0.836520 0.259650 -0.107132
C8    C     C_3   0.282521 0.728763 0.185748 -0.117830
C9    C     C_3   0.338692 0.825585 0.162503 0.052334
C10   C     C_3   0.482911 0.285354 0.795777 -0.114893
C11   C     C_3   0.427517 0.432295 0.760547 -0.151149
C12   C     C_3   0.755266 0.286825 0.239659 -0.152341
C13   C     C_3   0.380385 0.368174 0.681211 0.042992
C14   C     C_3   0.435841 0.222136 0.715567 -0.095527
C15   C     C_3   0.286018 0.276924 0.742860 -0.103805
C16   C     C_R   0.728717 0.403483 0.389639 0.511374
C17   C     C_3   0.230378 0.423594 0.708023 -0.097707
C18   C     C_3   0.276987 0.486665 0.789132 -0.129175
C19   C     C_3   0.333291 0.339829 0.822649 0.049439
C20   C     C_1   0.848307 0.327027 0.705555 -0.049390
C21   C     C_1   0.895045 0.293710 0.773007 -0.050632
C22   C     C_1   0.338197 0.812473 0.709711 -0.048439
C23   C     C_3   0.800217 0.358513 0.316510 0.037798
C24   C     C_1   0.313149 0.839033 0.778556 -0.046633
C25   C     C_R   0.961522 0.282750 0.102871 0.558910
C26   C     C_R   0.321781 0.303076 0.119301 0.535971
C27   C     C_R   0.298347 0.883671 0.085359 0.535023
C28   C     C_R   0.356354 0.772214 0.627031 0.551240
C29   C     C_R   0.944156 0.274941 0.856017 0.562786
C30   C     C_R   0.310991 0.298719 0.895231 0.539839
C31   C     C_R   0.280232 0.884129 0.859180 0.535266
C32   C     C_R   0.409598 0.378607 0.601666 0.573798
C33   C     C_R   0.779845 0.376269 0.628572 0.553141
C34   C     C_3   0.958629 0.258034 0.305825 0.022423
C35   C     C_1   0.372641 0.361406 0.272566 -0.063443
C36   C     C_1   0.347815 0.343142 0.201498 -0.062578
C37   C     C_3   0.915525 0.184883 0.227847 -0.151093
C38   C     C_2   0.067401 0.179945 0.372397 0.237566
C39   C     C_3   0.960200 0.371116 0.258204 -0.094251
C40   C     C_3   0.800069 0.472252 0.269471 -0.126412
C41   C     C_3   0.754844 0.400605 0.191931 -0.112444
C42   C     C_3   0.913731 0.300414 0.181380 0.033036
C43   C     C_3   0.484191 0.742991 0.209173 -0.142900
Cr1   Cr    Cr6+3 0.608340 0.611040 0.520430 1.025673
Cr2   Cr    Cr6+3 0.287650 0.601120 0.489350 1.036167
Cr3   Cr    Cr6+3 0.604040 0.287870 0.490280 1.024042
Cr4   Cr    Cr6+3 0.054020 0.052700 0.970850 1.017116
Cr5   Cr    Cr6+3 0.059230 0.375120 0.993390 1.012826
Cr6   Cr    Cr6+3 0.374950 0.061200 0.992340 1.020965
H1    H     H_    0.670799 0.252680 0.233654 0.122723
H2    H     H_    0.212162 0.594021 0.821272 0.137243
H3    H     H_    0.961534 0.068113 0.206776 0.120427
H4    H     H_    0.045787 0.403781 0.263868 0.144085
H5    H     H_    0.754492 0.589550 0.289720 0.127833
H6    H     H_    0.673811 0.455390 0.141938 0.136621
H7    H     H_    0.486442 0.525828 0.236404 0.085512
H8    H     H_    0.586067 0.711342 0.183872 0.119021
H9    H     H_    0.484546 0.899172 0.326522 0.156145
H10   H     H_    0.055401 0.102409 0.401856 0.123687
H11   H     H_    0.222901 0.053197 0.233347 0.127060
H12   H     H_    0.118637 0.873317 0.281881 0.120207
H13   H     H_    0.224655 0.678747 0.143631 0.130026
H14   H     H_    0.486938 0.495535 0.765549 0.112926
H15   H     H_    0.585921 0.229510 0.833458 0.143239
H16   H     H_    0.500729 0.113138 0.684989 0.145236
H17   H     H_    0.226975 0.213056 0.736994 0.109338
H18   H     H_    0.127197 0.479477 0.670511 0.146772
O1    O     O_R   0.751220 0.499230 0.435170 -0.500139
O2    O     O_R   0.412990 0.180750 0.091610 -0.503191
O3    O     O_R   0.366620 0.943130 0.065760 -0.497487
O4    O     O_R   0.477220 0.727600 0.436870 -0.497407
O5    O     O_R   0.160510 0.906330 0.879210 -0.520331
O6    O     O_R   0.930190 0.179050 0.889450 -0.486621
O7    O     O_R   0.909140 0.398170 0.896710 -0.496519
O8    O     O_R   0.186190 0.363460 0.918830 -0.517435
O9    O     O_R   0.401670 0.173200 0.913310 -0.512146
O10   O     O_R   0.356120 0.936130 0.900470 -0.492260
O11   O     O_3   0.162740 0.163010 0.985530 -0.290950
O12   O     O_R   0.297880 0.469080 0.560050 -0.476680
O13   O     O_R   0.258650 0.745120 0.411470 -0.520095
O14   O     O_R   0.297070 0.467240 0.395960 -0.471549
O15   O     O_R   0.488830 0.252610 0.387790 -0.476847
O16   O     O_R   0.724400 0.302390 0.420980 -0.521435
O17   O     O_R   0.752100 0.501210 0.612190 -0.497303
O18   O     O_R   0.478040 0.729440 0.600970 -0.487666
O19   O     O_R   0.259530 0.747110 0.588490 -0.511685
O20   O     O_2   0.169582 0.202876 0.393667 -0.475346
O21   O     O_R   0.489720 0.254590 0.564810 -0.493740
O22   O     O_R   0.725220 0.304230 0.585080 -0.508915
O23   O     O_3   0.500010 0.500010 0.500020 -0.335188
O24   O     O_R   0.171830 0.913880 0.057510 -0.531079
O25   O     O_R   0.940690 0.186050 0.054730 -0.487633
O26   O     O_R   0.920470 0.405720 0.075010 -0.510772
O27   O     O_R   0.196690 0.370460 0.084120 -0.519830

loop_
_geom_bond_atom_site_label_1
_geom_bond_atom_site_label_2
_ccdc_geom_bond_type
C26   O27   A    
C11   C18   S    
C25   O26   A    
C34   C37   S    
C41   C42   S    
C13   C32   S    
C35   C36   T    
C6    C9    S    
C7    C8    S    
Cr3   O22   S    
C15   C19   S    
C12   C23   S    
C1    O4    A    
Cr5   O27   S    
C5    H9    S    
C3    C7    S    
C5    C6    S    
C29   O6    A    
C23   C40   S    
C32   O21   A    
C12   C37   S    
Cr6   O11   S    
Cr1   O4    S    
C18   C19   S    
Cr4   O25   S    
Cr5   O11   S    
C37   C42   S    
C41   H6    S    
Cr3   O15   S    
C7    H12   S    
C4    O14   A    
C8    C9    S    
C27   O24   A    
C16   O1    A    
C10   C19   S    
C5    C43   S    
C4    C35   S    
Cr6   O2    S    
C13   C14   S    
Cr5   O8    S    
Cr5   O7    S    
C18   H2    S    
C31   O10   A    
C39   C42   S    
Cr3   O21   S    
Cr2   O14   S    
C9    C43   S    
C17   H18   S    
Cr5   O26   S    
C34   C39   S    
C6    H11   S    
Cr4   O6    S    
C10   C14   S    
C39   C40   S    
C37   H3    S    
C29   O7    A    
Cr1   O17   S    
C15   H17   S    
C21   C29   S    
C16   O16   A    
Cr3   O16   S    
C1    C3    S    
C12   C41   S    
C33   O22   A    
C30   O9    A    
C2    C43   S    
C23   C34   S    
C17   C18   S    
Cr6   O9    S    
Cr2   O12   S    
Cr2   O23   S    
C27   O3    A    
C20   C33   S    
C26   C36   S    
C31   O5    A    
C16   C23   S    
C40   H5    S    
Cr6   O3    S    
C28   O19   A    
C22   C24   T    
Cr1   O1    S    
Cr1   O18   S    
Cr1   O23   S    
C9    C27   S    
C15   C17   S    
C40   C41   S    
C25   O25   A    
C34   C38   S    
Cr4   O24   S    
C2    C8    S    
C3    C5    S    
C25   C42   S    
C12   H1    S    
C6    C7    S    
Cr3   O23   S    
C11   H14   S    
C13   C17   S    
C38   O20   D    
C10   H15   S    
Cr2   O19   S    
C24   C31   S    
C2    H7    S    
C32   O12   A    
C30   O8    A    
C11   C13   S    
C39   H4    S    
C14   H16   S    
Cr6   O10   S    
C2    C3    S    
Cr2   O13   S    
C33   O17   A    
Cr4   O5    S    
C10   C11   S    
C43   H8    S    
C38   H10   S    
C4    O15   A    
C20   C21   T    
C28   O18   A    
C26   O2    A    
C14   C15   S    
C1    O13   A    
C22   C28   S    
Cr4   O11   S    
C19   C30   S    
C8    H13   S    
