data_mof_unit_57352.cif
_audit_creation_date              2013-03-05T15:52:29-0500
_audit_creation_method            fapswitch 2.2
_symmetry_space_group_name_H-M    P1
_symmetry_Int_Tables_number       1
_space_group_crystal_system       triclinic
_cell_length_a                    11.416167
_cell_length_b                    11.45359
_cell_length_c                    18.524392
_cell_angle_alpha                 90.400948
_cell_angle_beta                  90.421609
_cell_angle_gamma                 59.546193
_cell_volume                      2087.93740188

loop_
_atom_site_label
_atom_site_type_symbol
_atom_site_description
_atom_site_fract_x
_atom_site_fract_y
_atom_site_fract_z
_atom_type_partial_charge
O1    O     O_R   0.748670 0.497520 0.427970 -0.533109
O2    O     O_R   0.476470 0.723930 0.429450 -0.484989
C1    C     C_R   0.354579 0.777484 0.401204 0.580547
O3    O     O_R   0.264730 0.744140 0.416740 -0.491968
O4    O     O_R   0.309440 0.472410 0.418220 -0.495556
C2    C     C_R   0.384168 0.344555 0.391752 0.550974
O5    O     O_R   0.501630 0.260530 0.414310 -0.477199
O6    O     O_R   0.727920 0.305730 0.428950 -0.434789
C3    C     C_R   0.716763 0.415469 0.395371 0.558025
O7    O     O_R   0.738670 0.496020 0.588600 -0.511855
O8    O     O_R   0.467190 0.722540 0.578350 -0.516778
C4    C     C_R   0.343433 0.770825 0.602662 0.547088
O9    O     O_R   0.254720 0.742640 0.577370 -0.490546
O10   O     O_R   0.300170 0.471020 0.567120 -0.515600
C5    C     C_R   0.371487 0.352148 0.595146 0.534872
O11   O     O_R   0.491630 0.259030 0.574940 -0.527831
O12   O     O_R   0.718640 0.304340 0.577850 -0.492668
C6    C     C_R   0.704308 0.410138 0.615661 0.550706
Cr1   Cr    Cr6+3 0.601740 0.606840 0.505840 1.058989
Cr2   Cr    Cr6+3 0.291500 0.601560 0.495070 1.071545
Cr3   Cr    Cr6+3 0.606780 0.291630 0.499130 1.095046
O13   O     O_3   0.500010 0.500010 0.500020 -0.340111
C7    C     C_R   0.860498 0.867696 0.117999 0.032898
C8    C     C_R   0.848557 0.902377 0.190223 0.002895
C9    C     C_R   0.720824 0.981040 0.222392 -0.016367
C10   C     C_R   0.597664 0.024618 0.185536 0.013225
C11   C     C_R   0.327723 0.223202 0.182420 -0.001722
C12   C     C_R   0.453933 0.151626 0.298824 0.171403
C13   C     C_R   0.457268 0.129915 0.220776 -0.019373
C14   C     C_R   0.114758 0.593715 0.303281 0.329966
C15   C     C_R   0.040951 0.708586 0.346974 -0.011066
C16   C     C_R   0.619649 0.966407 0.115630 -0.019113
C17   C     C_R   0.743641 0.903064 0.079064 0.240176
C18   C     C_R   0.213069 0.298771 0.225435 -0.081267
C19   C     C_R   0.226891 0.344207 0.293559 -0.004265
C20   C     C_R   0.985641 0.701678 0.413289 0.237425
C21   C     C_R   0.994372 0.579802 0.433079 -0.088517
C22   C     C_R   0.063512 0.465585 0.389415 -0.194771
C23   C     C_R   0.121304 0.471912 0.323884 0.025304
C24   C     C_R   0.352216 0.280955 0.327762 0.014457
H1    H     H_    0.036460 0.800878 0.332267 0.156348
H2    H     H_    0.958856 0.813354 0.092569 0.196778
H3    H     H_    0.938063 0.869996 0.221995 0.202518
H4    H     H_    0.721548 0.013218 0.275737 0.229113
H5    H     H_    0.545772 0.962102 0.087275 0.202776
H6    H     H_    0.115150 0.336799 0.201544 0.170116
H7    H     H_    0.954384 0.570549 0.484154 0.173765
H8    H     H_    0.076871 0.370023 0.408005 0.154613
C25   C     C_R   0.818778 0.387923 0.172402 0.080512
C26   C     C_R   0.723159 0.359534 0.197632 0.055628
C27   C     C_R   0.669773 0.390463 0.266997 -0.081302
C28   C     C_R   0.831182 0.458022 0.293402 -0.125177
C29   C     C_R   0.853039 0.462666 0.219837 0.205715
C30   C     C_3   0.739322 0.226368 0.204287 0.351517
C31   C     C_3   0.638484 0.281292 0.265748 -0.224760
C32   C     C_R   0.748626 0.407883 0.318816 0.003701
H9    H     H_    0.857529 0.514937 0.328649 0.184566
H10   H     H_    0.531928 0.321533 0.249419 0.185226
H11   H     H_    0.666179 0.222958 0.316340 0.211606
C33   C     C_R   0.293386 0.929103 0.189451 -0.016641
C34   C     C_R   0.415916 0.883370 0.222890 -0.035698
C35   C     C_R   0.432389 0.841659 0.294583 0.127847
C36   C     C_R   0.198821 0.920784 0.305745 -0.066007
C37   C     C_R   0.189409 0.933005 0.230855 -0.010753
C38   C     C_3   0.538070 0.757264 0.201429 -0.216722
C39   C     C_3   0.548770 0.708564 0.276823 -0.220929
C40   C     C_R   0.325851 0.862202 0.337796 0.053530
H12   H     H_    0.113621 0.935572 0.336969 0.209451
H13   H     H_    0.102040 0.940479 0.204489 0.237198
H14   H     H_    0.612138 0.786627 0.190140 0.255359
H15   H     H_    0.521471 0.696189 0.159991 0.187298
H16   H     H_    0.521111 0.631098 0.281705 0.168252
H17   H     H_    0.639290 0.687451 0.307428 0.223898
C41   C     C_R   0.312878 0.311178 0.812426 0.034780
C42   C     C_R   0.377781 0.196545 0.767939 0.034673
C43   C     C_R   0.383633 0.207476 0.694673 0.027368
C44   C     C_R   0.248663 0.451704 0.707186 -0.110072
C45   C     C_R   0.246912 0.439484 0.781702 -0.070093
C46   C     C_3   0.522416 0.083994 0.772302 -0.242509
C47   C     C_3   0.527624 0.091838 0.691588 -0.272972
C48   C     C_R   0.324603 0.335315 0.663635 0.019479
H18   H     H_    0.203127 0.552876 0.685088 0.183096
H19   H     H_    0.198388 0.529029 0.815053 0.223387
H20   H     H_    0.534132 0.987824 0.791373 0.167490
H21   H     H_    0.587873 0.115776 0.800735 0.190189
H22   H     H_    0.603516 0.118732 0.674872 0.166114
H23   H     H_    0.536284 0.002948 0.662607 0.147924
C49   C     C_R   0.788829 0.351952 0.842569 0.038364
C50   C     C_R   0.741194 0.479239 0.809211 0.018279
C51   C     C_R   0.707367 0.498133 0.736736 -0.026721
C52   C     C_R   0.738948 0.275106 0.729531 -0.161439
C53   C     C_R   0.770381 0.256781 0.803848 -0.167826
C54   C     C_3   0.794533 0.575597 0.803734 0.108705
C55   C     C_3   0.763557 0.588839 0.724422 -0.213804
C56   C     C_R   0.718651 0.392774 0.694160 0.021771
H24   H     H_    0.743491 0.192416 0.699078 0.134689
H25   H     H_    0.794324 0.162988 0.828816 0.184516
H26   H     H_    0.733399 0.670988 0.834885 0.146049
H27   H     H_    0.690925 0.693032 0.709175 0.091401
H28   H     H_    0.855346 0.541825 0.689536 0.209762
C57   C     C_R   0.303438 0.838488 0.825993 -0.000338
C58   C     C_R   0.202083 0.834125 0.785138 0.056826
C59   C     C_R   0.207091 0.830238 0.710851 -0.001111
C60   C     C_R   0.415625 0.832083 0.714312 -0.161885
C61   C     C_R   0.416056 0.826796 0.789467 -0.164589
C62   C     C_3   0.051798 0.927946 0.784876 0.105170
C63   C     C_3   0.058619 0.928792 0.703187 -0.246119
C64   C     C_R   0.312974 0.830237 0.674226 0.015170
H29   H     H_    0.494550 0.837239 0.686373 0.126159
H30   H     H_    0.498620 0.824832 0.819140 0.138114
H31   H     H_    0.021893 0.026635 0.810733 0.118905
H32   H     H_    0.004867 0.884998 0.673700 0.201944
H33   H     H_    0.037882 0.027866 0.681497 0.126499
O14   O     O_R   0.186620 0.923750 0.087000 -0.503306
O15   O     O_R   0.957350 0.194160 0.084660 -0.437316
C65   C     C_R   0.903118 0.323792 0.107704 0.572609
O16   O     O_R   0.935120 0.407280 0.085350 -0.507266
O17   O     O_R   0.203800 0.365060 0.067090 -0.415739
C66   C     C_R   0.304115 0.247866 0.100955 0.581796
O18   O     O_R   0.417470 0.174910 0.067830 -0.482953
O19   O     O_R   0.375160 0.946380 0.070880 -0.549001
C67   C     C_R   0.273896 0.955693 0.111951 0.515876
O20   O     O_R   0.160500 0.919670 0.926690 -0.463228
O21   O     O_R   0.933140 0.190380 0.936050 -0.488908
C68   C     C_R   0.878586 0.312821 0.906880 0.556935
O22   O     O_R   0.909010 0.403210 0.925030 -0.461961
O23   O     O_R   0.179590 0.361290 0.918480 -0.422772
C69   C     C_R   0.297141 0.287391 0.886811 0.574574
O24   O     O_R   0.391360 0.170840 0.907510 -0.489415
O25   O     O_R   0.350950 0.942600 0.922260 -0.487147
C70   C     C_R   0.274146 0.896208 0.898266 0.549086
Cr4   Cr    Cr6+3 0.062440 0.063060 0.008240 1.129642
Cr5   Cr    Cr6+3 0.062950 0.375000 0.998920 1.159278
Cr6   Cr    Cr6+3 0.374550 0.061770 0.992470 1.080878
O26   O     O_3   0.166650 0.166610 0.999880 -0.373622
S1    S     S_3+6 0.554519 0.017119 0.363687 -0.011429
O27   O     O_2   0.459708 0.014035 0.418579 -0.305766
O28   O     O_2   0.632315 0.882452 0.328833 -0.298103
O29   O     O_3   0.676890 0.031413 0.407114 -0.449042
H34   H     H_    0.666012 0.017913 0.458867 0.397676
N1    N     N_R   0.933735 0.813225 0.463442 0.086611
O30   O     O_R   0.952065 0.914934 0.452267 -0.301837
O31   O     O_R   0.879513 0.808083 0.524043 -0.385930
S2    S     S_3+6 0.874954 0.595162 0.187922 -0.066761
O32   O     O_2   0.832236 0.698252 0.246853 -0.339230
O33   O     O_2   0.016425 0.554300 0.165689 -0.254607
O34   O     O_3   0.776292 0.656689 0.113803 -0.580843
H35   H     H_    0.838500 0.639797 0.073134 0.399764
N2    N     N_R   0.877875 0.129413 0.232886 0.022246
O35   O     O_R   0.888282 0.062245 0.291208 -0.423141
O36   O     O_R   0.971281 0.161787 0.228371 -0.428342
N3    N     N_R   0.695294 0.195443 0.135822 0.030226
O37   O     O_R   0.570139 0.274667 0.115236 -0.297017
O38   O     O_R   0.783406 0.128148 0.085871 -0.323636
N4    N     N_R   0.750849 0.865102 0.004284 0.066126
O39   O     O_R   0.866552 0.777243 0.975982 -0.265394
O40   O     O_R   0.641725 0.914332 0.964518 -0.306098
N5    N     N_R   0.939205 0.514327 0.815488 0.114536
O41   O     O_R   0.980747 0.569681 0.862629 -0.209894
O42   O     O_R   0.023633 0.396332 0.787741 -0.380655
S3    S     S_3+6 0.970062 0.842011 0.819166 0.030627
O43   O     O_2   0.054201 0.755072 0.880962 -0.176888
O44   O     O_2   0.830474 0.940717 0.846433 -0.281043
O45   O     O_3   0.958743 0.743862 0.754696 -0.531330
H36   H     H_    0.866706 0.799162 0.733483 0.342554
S4    S     S_3+6 0.228975 0.596968 0.238449 -0.002314
O46   O     O_2   0.325284 0.623584 0.279738 -0.359768
O47   O     O_2   0.311399 0.468343 0.197336 -0.268463
O48   O     O_3   0.150312 0.717009 0.176352 -0.568086
H37   H     H_    0.218863 0.695085 0.138215 0.394441

loop_
_geom_bond_atom_site_label_1
_geom_bond_atom_site_label_2
_geom_bond_distance
_ccdc_geom_bond_type
S4    O47   1.491786 D    
C61   H30   1.078011 S    
C10   C16   1.416871 A    
C57   C58   1.399743 A    
C31   H11   1.102261 S    
O20   Cr4   2.087828 S    
C11   C13   1.492311 A    
C63   H32   1.108945 S    
O34   H35   0.987877 S    
C60   C64   1.391855 A    
C42   C43   1.369058 A    
O16   Cr5   2.075790 S    
C69   O24   1.277332 A    
S3    O43   1.501604 D    
C51   C56   1.387598 A    
C5    C48   1.432240 S    
O4    Cr2   1.981016 S    
C44   C45   1.389727 A    
C41   C69   1.436568 S    
O8    Cr1   1.965143 S    
C21   C22   1.391585 A    
C7    H2    1.079524 S    
C35   C40   1.377325 A    
C55   H27   1.090730 S    
O45   H36   0.991146 S    
C27   C32   1.392224 A    
C47   H23   1.107086 S    
O2    C1    1.309546 A    
N2    O36   1.297739 A    
C46   H20   1.100628 S    
N4    O40   1.301079 A    
C62   C63   1.516164 S    
C12   C24   1.443744 A    
O15   C65   1.353968 A    
C65   O16   1.257478 A    
O21   Cr4   1.977367 S    
C18   C19   1.399776 A    
C16   H5    1.012385 S    
C62   S3    1.786448 S    
O17   C66   1.396342 A    
C63   H33   1.112580 S    
C47   H22   1.103278 S    
C52   H24   1.077536 S    
C30   C31   1.514057 S    
C45   H19   1.077362 S    
C39   H16   1.086590 S    
C49   C53   1.402361 A    
O22   Cr5   2.112246 S    
O6    C3    1.352939 A    
C7    C17   1.380618 A    
C7    C8    1.380840 A    
C59   C64   1.390502 A    
C18   H6    1.066324 S    
C55   H28   1.112995 S    
O19   Cr6   1.968221 S    
C21   H7    1.082407 S    
C15   C20   1.406216 A    
C22   H8    1.084033 S    
O15   Cr4   1.966513 S    
Cr3   O13   2.057451 S    
N5    O42   1.302597 A    
C6    C56   1.465761 S    
S4    O46   1.486921 D    
O25   Cr6   1.992469 S    
S2    O34   1.684213 S    
C9    H4    1.053698 S    
C60   C61   1.393810 A    
S3    O44   1.500101 D    
C53   H25   1.072442 S    
C51   C55   1.491265 S    
C30   N2    1.493694 S    
C62   H31   1.107849 S    
C11   C18   1.398077 A    
C57   C61   1.402026 A    
C22   C23   1.405570 A    
C36   C40   1.382874 A    
O1    Cr1   2.084102 S    
C41   C42   1.399900 A    
C35   C39   1.464116 S    
C19   C24   1.384071 A    
C58   C59   1.377210 A    
O48   H37   0.990472 S    
O10   Cr2   1.975508 S    
Cr1   O13   2.072282 S    
O1    C3    1.310098 A    
C8    C9    1.402410 A    
C14   S4    1.793566 S    
S1    O28   1.480062 D    
C52   C53   1.410129 A    
C4    C64   1.447643 S    
S2    O32   1.493261 D    
C30   N3    1.466764 S    
C27   C31   1.464185 S    
C26   C27   1.390799 A    
C9    C10   1.404057 A    
C38   H15   1.113189 S    
C39   H17   1.089859 S    
O12   Cr3   1.984056 S    
O24   Cr6   2.085514 S    
C33   C34   1.365216 A    
S1    O29   1.684951 S    
N5    O41   1.296308 A    
C38   H14   1.078742 S    
C19   C23   1.455743 S    
C20   N1    1.438964 S    
C49   C68   1.481239 S    
C34   C38   1.465367 S    
O10   C5    1.290784 A    
C44   C48   1.415356 A    
O7    Cr1   2.094207 S    
O29   H34   0.990798 S    
O12   C6    1.332128 A    
C3    C32   1.457676 S    
C26   C30   1.446577 S    
C37   H13   1.071259 S    
C4    O9    1.292954 A    
C33   C67   1.461529 S    
O19   C67   1.346652 A    
Cr6   O26   2.051186 S    
O17   Cr5   1.994933 S    
S4    O48   1.665936 S    
C57   C70   1.453064 S    
S2    O33   1.495974 D    
N3    O38   1.296114 A    
C38   C39   1.488605 S    
C68   O22   1.289728 A    
C2    C24   1.523060 S    
C46   C47   1.501930 S    
C54   N5    1.445548 S    
O23   C69   1.309466 A    
C46   H21   1.111574 S    
S3    O45   1.683118 S    
C28   C29   1.393423 A    
O23   Cr5   1.957584 S    
C36   H12   1.072009 S    
C12   C13   1.462789 A    
C15   H1    1.069180 S    
O9    Cr2   2.097330 S    
O20   C70   1.298988 A    
O2    Cr1   1.974540 S    
C12   S1    1.829769 S    
O14   Cr4   2.096064 S    
C1    C40   1.454809 S    
C43   C47   1.500991 S    
Cr2   O13   2.054071 S    
S1    O27   1.504072 D    
O6    Cr3   1.970926 S    
C43   C48   1.390864 A    
C66   O18   1.287543 A    
C17   N4    1.439350 S    
O11   Cr3   2.090871 S    
C2    O5    1.260236 A    
O3    Cr2   2.094382 S    
C11   C66   1.533819 S    
C54   C55   1.499246 S    
C33   C37   1.399437 A    
C29   S2    1.764849 S    
C16   C17   1.398249 A    
N1    O31   1.301919 A    
O25   C70   1.308404 A    
O5    Cr3   2.105830 S    
N1    O30   1.301858 A    
C14   C15   1.402664 A    
O4    C2    1.357338 A    
C44   H18   1.083261 S    
O7    C6    1.331808 A    
Cr4   O26   2.069189 S    
C25   C29   1.407770 A    
C5    O11   1.295349 A    
C14   C23   1.413807 A    
C58   C62   1.493114 S    
O18   Cr6   2.115748 S    
C50   C54   1.510909 S    
C34   C35   1.393383 A    
C28   H9    1.063788 S    
C52   C56   1.411712 A    
C36   C37   1.393202 A    
O14   C67   1.304060 A    
C28   C32   1.413722 A    
C25   C65   1.480109 S    
C49   C50   1.416692 A    
C10   C13   1.579396 S    
C20   C21   1.399475 A    
C25   C26   1.373017 A    
C41   C45   1.390764 A    
C31   H10   1.100867 S    
N4    O39   1.299094 A    
Cr5   O26   2.057833 S    
C8    H3    1.066816 S    
C60   H29   1.069771 S    
C59   C63   1.492154 S    
N3    O37   1.301095 A    
C50   C51   1.382093 A    
N2    O35   1.300093 A    
C42   C46   1.495509 S    
C54   H26   1.112617 S    
C1    O3    1.297608 A    
O8    C4    1.310960 A    
O21   C68   1.329221 A    
