data_mof_unit_59734.cif
_audit_creation_date              2012-12-10T17:31:05-0500
_audit_creation_method            fapswitch 2.2
_symmetry_space_group_name_H-M    P1
_symmetry_Int_Tables_number       1
_space_group_crystal_system       triclinic
_cell_length_a                    12.059703
_cell_length_b                    12.899266
_cell_length_c                    15.309942
_cell_angle_alpha                 86.082104
_cell_angle_beta                  116.801538
_cell_angle_gamma                 94.853543
_cell_volume                      2116.94236232

loop_
_atom_site_label
_atom_site_type_symbol
_atom_type_description
_atom_site_fract_x
_atom_site_fract_y
_atom_site_fract_z
_atom_type_partial_charge
C1    C     C_R   0.475565 0.299182 0.498633 0.952230
C2    C     C_R   0.618726 0.977283 0.455726 0.357164
C3    C     C_R   0.371990 0.130494 0.524377 0.375918
C4    C     C_R   0.618370 0.868815 0.463628 0.366349
C5    C     C_R   0.534858 0.135418 0.471083 -0.261286
C6    C     C_R   0.462853 0.864967 0.524443 -0.210689
C7    C     C_R   0.537296 0.028404 0.479395 -0.038825
C8    C     C_R   0.457496 0.971604 0.512880 -0.042030
C9    C     C_R   0.003542 0.600287 0.409351 -0.350427
C10   C     C_R   0.996477 0.399583 0.590599 -0.350128
C11   C     C_R   0.124490 0.590044 0.416334 0.700276
C12   C     C_R   0.523574 0.700789 0.499911 0.952608
C13   C     C_R   0.874384 0.407732 0.581074 0.657158
C14   C     C_R   0.160469 0.457215 0.540223 -0.072034
C15   C     C_R   0.840073 0.543330 0.460463 -0.062677
C16   C     C_R   0.577787 0.493062 0.681482 0.960819
C17   C     C_R   0.421904 0.506149 0.318169 0.949289
C18   C     C_R   0.039575 0.463461 0.532887 -0.014852
C19   C     C_R   0.960527 0.536173 0.466985 -0.007413
C20   C     C_R   0.627973 0.478440 0.788068 -0.222952
C21   C     C_R   0.369404 0.505984 0.210613 -0.228282
C22   C     C_R   0.788315 0.498982 0.955187 -0.157159
C23   C     C_R   0.638656 0.459513 0.119234 -0.245749
C24   C     C_R   0.205532 0.466362 0.048058 -0.163376
C25   C     C_R   0.749349 0.513978 0.854405 0.343681
C26   C     C_R   0.243730 0.476306 0.148181 0.333061
C27   C     C_R   0.548915 0.430246 0.824773 0.277236
C28   C     C_R   0.451935 0.526355 0.169804 0.290244
C29   C     C_R   0.574790 0.446285 0.921600 -0.022870
C30   C     C_R   0.421458 0.487501 0.078033 -0.030409
C31   C     C_R   0.700502 0.467705 0.989880 -0.046906
C32   C     C_R   0.294426 0.469886 0.012370 -0.063534
C33   C     C_R   0.479473 0.451273 0.950618 0.036218
C34   C     C_R   0.352459 0.452249 0.882521 -0.230025
C35   C     C_R   0.513673 0.467859 0.049732 0.043964
C36   C     C_3   0.878744 0.386196 0.235006 -0.169848
C37   C     C_3   0.111985 0.551543 0.790385 -0.160962
C38   C     C_3   0.852792 0.243641 0.644225 -0.199443
C39   C     C_3   0.081972 0.692344 0.273174 -0.205282
C40   C     C_R   0.733776 0.460035 0.090441 0.536746
C41   C     C_R   0.259895 0.459108 0.912708 0.518698
C42   C     C_R   0.538878 0.813141 0.497637 -0.235687
C43   C     C_R   0.457628 0.186867 0.497014 -0.229868
C44   C     C_R   0.372692 0.022171 0.533007 0.364241
Cl1   Cl    Cl    0.574560 0.623894 0.220635 -0.576258
Cl2   Cl    Cl    0.441708 0.327888 0.759425 -0.566204
Cl3   Cl    Cl    0.130770 0.450700 0.190193 -0.598966
Cl4   Cl    Cl    0.852929 0.581150 0.815643 -0.605270
Cl5   Cl    Cl    0.713539 0.805626 0.426027 -0.468542
Cl6   Cl    Cl    0.264363 0.191970 0.549707 -0.470570
Cl7   Cl    Cl    0.266074 0.951365 0.568694 -0.493297
Cl8   Cl    Cl    0.719916 0.047204 0.413971 -0.537503
H1    H     H_    0.942761 0.657595 0.360058 0.194162
H2    H     H_    0.222347 0.402098 0.591705 0.227611
H3    H     H_    0.825103 0.310851 0.207899 0.169446
H4    H     H_    0.857361 0.416795 0.291316 0.143841
H5    H     H_    0.978497 0.369739 0.272390 0.240575
H6    H     H_    0.167342 0.565450 0.748610 0.129549
H7    H     H_    0.128836 0.617661 0.838804 0.193036
H8    H     H_    0.013010 0.549199 0.735503 0.237549
H9    H     H_    0.948720 0.227621 0.699717 0.190838
H10   H     H_    0.834329 0.215785 0.571317 0.175774
H11   H     H_    0.787575 0.197940 0.667121 0.200836
H12   H     H_    0.058363 0.345550 0.644029 0.205500
H13   H     H_    0.041739 0.760667 0.286097 0.178150
H14   H     H_    0.008203 0.631969 0.232289 0.213974
H15   H     H_    0.127408 0.719910 0.226229 0.210051
H16   H     H_    0.883551 0.521360 0.005702 0.232167
H17   H     H_    0.107826 0.449612 0.999789 0.233918
H18   H     H_    0.662722 0.455753 0.196251 0.181498
H19   H     H_    0.322563 0.450334 0.804889 0.194082
H20   H     H_    0.405532 0.820500 0.553027 0.233526
H21   H     H_    0.595113 0.180339 0.445608 0.226006
H22   H     H_    0.779014 0.599549 0.410154 0.238206
N1    N     N_R   0.799120 0.480200 0.517090 -0.142620
N2    N     N_R   0.200880 0.519800 0.482910 -0.136434
O1    O     O_R   0.580150 0.341050 0.504560 -0.612252
O2    O     O_3   0.135922 0.455922 0.844475 -0.600996
O3    O     O_3   0.832239 0.350229 0.641320 -0.567277
O4    O     O_3   0.173373 0.652265 0.362353 -0.577021
O5    O     O_R   0.419850 0.658950 0.495440 -0.591088
O6    O     O_R   0.388090 0.353760 0.493600 -0.561090
O7    O     O_R   0.611910 0.646240 0.506400 -0.566353
O8    O     O_R   0.650890 0.490020 0.640860 -0.533776
O9    O     O_R   0.349110 0.509980 0.359140 -0.539327
O10   O     O_R   0.458830 0.502730 0.629890 -0.612874
O11   O     O_R   0.541170 0.497270 0.370110 -0.603345
O12   O     O_3   0.858738 0.461174 0.158167 -0.603628
Zn1   Zn    Zn3+2 0.628240 0.491510 0.507320 1.057216
Zn2   Zn    Zn3+2 0.371760 0.508490 0.492680 1.063988

loop_
_geom_bond_atom_site_label_1
_geom_bond_atom_site_label_2
_ccdc_geom_bond_type
C15   N1    A    
C21   C26   A    
C13   O3    S    
C27   C29   A    
C1    O1    A    
C14   C18   A    
C2    C7    A    
C7    C8    A    
C36   O12   S    
C6    H20   S    
O1    Zn1   S    
C30   C35   A    
C17   O9    A    
C24   C26   A    
C11   N2    A    
C20   C25   A    
C23   C40   A    
C29   C33   A    
C16   O8    A    
C31   C40   A    
C18   C19   A    
C12   C42   S    
C15   C19   A    
C1    C43   S    
C13   N1    A    
C22   C25   A    
C32   C41   A    
C37   H6    S    
C38   H9    S    
C5    C43   A    
C16   O10   A    
C39   H13   S    
C23   H18   S    
C34   C41   A    
C3    Cl6   S    
C9    C19   A    
C24   H17   S    
O7    Zn1   S    
C3    C44   A    
C22   C31   A    
C36   H5    S    
O10   Zn2   S    
C41   O2    S    
C5    C7    A    
C28   Cl1   S    
C6    C8    A    
C1    O6    A    
C17   C21   S    
C12   O7    A    
C14   N2    A    
C2    C4    A    
C24   C32   A    
C38   O3    S    
C36   H4    S    
C16   C20   S    
C3    C43   A    
C33   C34   A    
C9    C11   A    
C25   Cl4   S    
C22   H16   S    
C37   H7    S    
C2    Cl8   S    
C26   Cl3   S    
O5    Zn2   S    
C44   Cl7   S    
C14   H2    S    
C21   C28   A    
C23   C35   A    
O11   Zn1   S    
C39   H14   S    
C9    H1    S    
O8    Zn1   S    
C27   Cl2   S    
C38   H11   S    
C17   O11   A    
C39   H15   S    
C10   H12   S    
C8    C44   A    
C10   C13   A    
O9    Zn2   S    
C20   C27   A    
C37   O2    S    
O6    Zn2   S    
C4    Cl5   S    
C39   O4    S    
C40   O12   S    
C28   C30   A    
C29   C31   A    
C36   H3    S    
C30   C32   A    
C4    C42   A    
C10   C18   A    
C33   C35   A    
C12   O5    A    
C5    H21   S    
C37   H8    S    
C11   O4    S    
N1    Zn1   S    
C15   H22   S    
C6    C42   A    
C34   H19   S    
N2    Zn2   S    
C38   H10   S    
