data_mof_unit_48383.cif
_audit_creation_date              2013-03-05T15:52:31-0500
_audit_creation_method            fapswitch 2.2
_symmetry_space_group_name_H-M    P1
_symmetry_Int_Tables_number       1
_space_group_crystal_system       triclinic
_cell_length_a                    27.801009
_cell_length_b                    10.828635
_cell_length_c                    9.572929
_cell_angle_alpha                 89.880765
_cell_angle_beta                  90.344707
_cell_angle_gamma                 92.414456
_cell_volume                      2879.28597243

loop_
_atom_site_label
_atom_site_type_symbol
_atom_site_description
_atom_site_fract_x
_atom_site_fract_y
_atom_site_fract_z
_atom_type_partial_charge
O1    O     O_R   0.500000 0.319640 0.618810 -0.538070
O2    O     O_R   0.500000 0.319660 0.381240 -0.577174
C1    C     C_R   0.504122 0.263002 0.501091 0.853679
O3    O     O_R   0.430260 0.500010 0.618770 -0.592582
O4    O     O_R   0.430270 0.500030 0.381200 -0.512494
C2    C     C_R   0.407455 0.497859 0.499746 0.872159
Cu1   Cu    Cu3+1 0.500000 0.499990 0.640660 0.963302
Cu2   Cu    Cu3+1 0.500000 0.500010 0.359340 0.978665
O5    O     O_R   0.500000 0.680340 0.618760 -0.617576
O6    O     O_R   0.500000 0.680360 0.381190 -0.603047
O7    O     O_R   0.569730 0.499970 0.618800 -0.589921
O8    O     O_R   0.569740 0.499990 0.381230 -0.607880
C3    C     C_R   0.496796 0.737444 0.500570 0.763617
C4    C     C_R   0.592466 0.502016 0.500397 0.759143
C5    C     C_R   0.176074 0.406459 0.555190 0.551529
O9    O     O_2   0.198892 0.300611 0.578003 -0.524647
N1    N     N_R   0.202239 0.514072 0.530218 -0.456908
C6    C     C_R   0.180103 0.623347 0.510660 0.551148
C7    C     C_R   0.283326 0.573925 0.617050 -0.069633
C8    C     C_R   0.333166 0.568625 0.607850 -0.257306
C9    C     C_R   0.324333 0.434487 0.404344 0.358084
C10   C     C_R   0.274338 0.442744 0.413671 -0.181910
C11   C     C_R   0.253716 0.511059 0.519952 0.282029
C12   C     C_R   0.101974 0.516465 0.535546 -0.043675
C13   C     C_R   0.125583 0.405485 0.557177 -0.023889
C14   C     C_R   0.098451 0.295982 0.580057 -0.138573
C15   C     C_R   0.129645 0.626681 0.513866 -0.025716
C16   C     C_R   0.354420 0.499946 0.501769 -0.156577
H1    H     H_    0.250910 0.394692 0.339082 0.187962
H2    H     H_    0.115744 0.209740 0.599550 0.188616
C17   C     C_R   0.645369 0.507889 0.501471 -0.031720
C18   C     C_R   0.972515 0.403412 0.540289 0.043595
C19   C     C_R   0.976430 0.631083 0.519332 0.044056
C20   C     C_R   0.949215 0.517215 0.527295 0.067438
C21   C     C_R   0.943750 0.292353 0.540280 -0.204807
C22   C     C_R   0.893875 0.293357 0.532670 -0.146520
C23   C     C_R   0.870590 0.404856 0.524374 -0.016877
C24   C     C_R   0.898075 0.517092 0.521759 -0.045108
C25   C     C_R   0.874288 0.629169 0.513333 -0.020280
C26   C     C_R   0.823757 0.626924 0.507809 0.534414
N2    N     N_R   0.797868 0.516711 0.510001 -0.466730
C27   C     C_R   0.820163 0.406713 0.518056 0.528254
C28   C     C_R   0.721244 0.474417 0.386381 -0.115205
C29   C     C_R   0.671023 0.470790 0.383876 -0.236377
C30   C     C_R   0.670716 0.551454 0.620131 -0.240058
C31   C     C_R   0.720879 0.555577 0.622170 -0.114787
C32   C     C_R   0.746300 0.516298 0.505756 0.358032
O10   O     O_2   0.793579 0.299539 0.521119 -0.551840
C33   C     C_R   0.023541 0.403991 0.550751 0.043410
C34   C     C_R   0.050818 0.517024 0.534616 0.070102
C35   C     C_R   0.027570 0.630418 0.516631 0.042265
C36   C     C_R   0.048499 0.295007 0.577189 -0.204132
H3    H     H_    0.652291 0.437289 0.290996 0.160665
H4    H     H_    0.740740 0.444182 0.295935 0.142550
H5    H     H_    0.873589 0.205690 0.533026 0.187529
H6    H     H_    0.958611 0.202167 0.542840 0.136409
H7    H     H_    0.030546 0.207014 0.598472 0.137423
O11   O     O_2   0.206774 0.728064 0.486012 -0.524625
C37   C     C_R   0.106473 0.737220 0.493250 -0.136913
H8    H     H_    0.355284 0.619062 0.683898 0.178131
H9    H     H_    0.267683 0.626500 0.700123 0.166355
H10   H     H_    0.126893 0.823132 0.475074 0.191009
C38   C     C_R   0.951278 0.742044 0.514349 -0.203721
C39   C     C_R   0.901289 0.740811 0.511219 -0.147670
O12   O     O_2   0.800665 0.733877 0.499355 -0.539890
C40   C     C_R   0.056539 0.739349 0.494606 -0.202609
H11   H     H_    0.969071 0.832273 0.515114 0.135458
H12   H     H_    0.651811 0.581999 0.711480 0.151008
H13   H     H_    0.883858 0.828385 0.506940 0.184447
H14   H     H_    0.740049 0.587896 0.714785 0.141100
H15   H     H_    0.041837 0.828071 0.474506 0.138249
H16   H     H_    0.506351 0.112486 0.279033 0.162370
C41   C     C_R   0.525296 0.113758 0.764584 0.458728
C42   C     C_R   0.510648 0.056028 0.888849 -0.195730
H17   H     H_    0.520635 0.097009 0.988546 0.147875
C43   C     C_R   0.484040 0.944668 0.885311 -0.203832
H18   H     H_    0.471627 0.901885 0.981622 0.167095
C44   C     C_R   0.475788 0.884773 0.758328 -0.142843
H19   H     H_    0.454724 0.798666 0.760724 0.174794
C45   C     C_R   0.492966 0.937964 0.631839 0.048070
C46   C     C_R   0.509673 0.062438 0.633522 -0.032859
C47   C     C_R   0.508984 0.128933 0.505038 -0.126407
C48   C     C_R   0.505413 0.064489 0.378462 -0.173435
H20   H     H_    0.501082 0.889569 0.278542 0.164109
C49   C     C_R   0.500662 0.937048 0.378022 -0.197356
C50   C     C_R   0.494462 0.872180 0.503696 -0.080810
H21   H     H_    0.450550 0.349083 0.128450 0.208197
C51   C     C_R   0.562268 0.668664 0.144807 -0.150870
H22   H     H_    0.566510 0.674014 0.254791 0.200973
C52   C     C_R   0.592053 0.752408 0.072672 -0.209736
H23   H     H_    0.615786 0.816827 0.129172 0.157366
C53   C     C_R   0.592157 0.752057 0.928792 -0.207531
H24   H     H_    0.615923 0.816277 0.872621 0.149853
C54   C     C_R   0.562469 0.667972 0.856293 -0.147388
H25   H     H_    0.566737 0.672867 0.746440 0.196451
C55   C     C_R   0.530423 0.583332 0.925403 0.201472
C56   C     C_R   0.530320 0.583569 0.075157 0.193688
N3    N     N_R   0.500460 0.501210 0.147910 -0.213870
C57   C     C_R   0.472458 0.417777 0.073530 -0.007362
H26   H     H_    0.449197 0.351796 0.869878 0.158640
C58   C     C_R   0.472068 0.418586 0.925554 -0.007321
N4    N     N_R   0.500480 0.501290 0.852040 -0.202029
S1    S     S_3+6 0.346586 0.337621 0.273171 0.009804
O13   O     O_2   0.363038 0.416878 0.152226 -0.272560
O14   O     O_2   0.388075 0.266546 0.327626 -0.320223
O15   O     O_3   0.303023 0.237028 0.216621 -0.491676
H27   H     H_    0.295890 0.182340 0.297632 0.360100
O16   O     O_3   0.557675 0.214018 0.775983 -0.593838
C59   C     C_3   0.602129 0.185640 0.715188 0.060862
H28   H     H_    0.601991 0.213652 0.603364 0.138433
H29   H     H_    0.609799 0.085261 0.722383 0.120826
C60   C     C_3   0.642570 0.258057 0.791515 -0.360030
H30   H     H_    0.635103 0.357934 0.790386 0.240714
H31   H     H_    0.643863 0.227156 0.902245 0.215050
C61   C     C_3   0.691281 0.238915 0.724021 -0.818509
H32   H     H_    0.700221 0.140004 0.729726 0.256945
H33   H     H_    0.719697 0.294838 0.779935 0.261254
H34   H     H_    0.690730 0.268443 0.612884 0.278156

loop_
_geom_bond_atom_site_label_1
_geom_bond_atom_site_label_2
_geom_bond_distance
_ccdc_geom_bond_type
C58   N4    1.365899 A    
C10   H1    1.082698 S    
C55   N4    1.381554 A    
N2    C27   1.367544 A    
C7    C8    1.392531 A    
C12   C15   1.408119 A    
C4    C17   1.469430 S    
C60   H31   1.111735 S    
C56   N3    1.382589 A    
Cu1   Cu2   2.693056 S    
C49   C50   1.399740 A    
Cu1   O7    1.951087 S    
C25   C39   1.396084 A    
N1    C11   1.436798 S    
C42   C43   1.388229 A    
C22   C23   1.395703 A    
C43   C44   1.392250 A    
C59   H29   1.118363 S    
C37   C40   1.389503 A    
O4    C2    1.303070 A    
O7    C4    1.300800 A    
C44   C45   1.416658 A    
C5    C13   1.403539 A    
O15   H27   0.990701 S    
C61   H32   1.110845 S    
O16   C59   1.414894 S    
C5    N1    1.368846 A    
C41   C42   1.397508 A    
C23   C27   1.403845 A    
O5    C3    1.292651 A    
C53   H24   1.083185 S    
C45   C50   1.421517 A    
C29   H3    1.083152 S    
C6    O11   1.349623 S    
C2    C16   1.475804 S    
C21   C22   1.388557 A    
C61   H33   1.110527 S    
Cu1   N4    2.023565 S    
C3    C50   1.463551 S    
C8    H8    1.083683 S    
C51   C56   1.417396 A    
C19   C38   1.416023 A    
C54   C55   1.416772 A    
C61   H34   1.110474 S    
O1    Cu1   1.964546 S    
C9    C10   1.399924 A    
C30   H12   1.082462 S    
O3    Cu1   1.948892 S    
C41   C46   1.430956 A    
C60   H30   1.109855 S    
C46   C47   1.424376 A    
H21   C57   1.079246 S    
C43   H18   1.082749 S    
C12   C34   1.422442 A    
C38   H11   1.076398 S    
C17   C29   1.404631 A    
C18   C21   1.415900 A    
C12   C13   1.407734 A    
O3    C2    1.300357 A    
C42   H17   1.083087 S    
C59   C60   1.526791 S    
C25   C26   1.404695 A    
C44   H19   1.080255 S    
C41   O16   1.384875 S    
C8    C16   1.407421 A    
C34   C35   1.421175 A    
C13   C14   1.395908 A    
C30   C31   1.393452 A    
C47   C48   1.400459 A    
O1    C1    1.292120 A    
C35   C40   1.416141 A    
C18   C20   1.421027 A    
C7    C11   1.396877 A    
C28   C29   1.395172 A    
C23   C24   1.408351 A    
C14   C36   1.388424 A    
C28   H4    1.082784 S    
C52   C53   1.377383 A    
C40   H15   1.076325 S    
Cu2   O8    1.948886 S    
C33   C36   1.415591 A    
C55   C56   1.433613 A    
C1    C47   1.464108 S    
C53   C54   1.387223 A    
N1    C6    1.368586 A    
N2    C32   1.433784 S    
S1    O14   1.503456 D    
C27   O10   1.349752 S    
C39   H13   1.083575 S    
H20   C49   1.083543 S    
Cu2   N3    2.024133 S    
C26   N2    1.367669 A    
C48   C49   1.380780 A    
C9    C16   1.419619 A    
C51   C52   1.387759 A    
C33   C34   1.421090 A    
C26   O12   1.349677 S    
Cu1   O5    1.963731 S    
C31   C32   1.399676 A    
C37   H10   1.083543 S    
C57   C58   1.416553 A    
C21   H6    1.076465 S    
C20   C24   1.422371 A    
O2    Cu2   1.963731 S    
C6    C15   1.405277 A    
O8    C4    1.300498 A    
C45   C46   1.407144 A    
O6    C3    1.305702 A    
O4    Cu2   1.951090 S    
C14   H2    1.083563 S    
C19   C35   1.422448 A    
O2    C1    1.306648 A    
C22   H5    1.083590 S    
C15   C37   1.396138 A    
C59   H28   1.112051 S    
C52   H23   1.083046 S    
C24   C25   1.408293 A    
C7    H9    1.082858 S    
H26   C58   1.081763 S    
C19   C20   1.421381 A    
S1    O15   1.682186 S    
C54   H25   1.059963 S    
C18   C33   1.421247 A    
C31   H14   1.082794 S    
H16   C48   1.083466 S    
C36   H7    1.076506 S    
C38   C39   1.389387 A    
C9    S1    1.768976 S    
C51   H22   1.060175 S    
Cu2   O6    1.964547 S    
N3    C57   1.366024 A    
C17   C30   1.404999 A    
S1    O13   1.501810 D    
C10   C11   1.398925 A    
C28   C32   1.400989 A    
C60   C61   1.526121 S    
C5    O9    1.349958 S    
