data_mof_unit_52224.cif
_audit_creation_date              2012-10-26T19:07:25-0400
_audit_creation_method            fapswitch 2.2
_symmetry_space_group_name_H-M    P1
_symmetry_Int_Tables_number       1
_space_group_crystal_system       triclinic
_cell_length_a                    15.017763
_cell_length_b                    13.869483
_cell_length_c                    10.605889
_cell_angle_alpha                 90.222008
_cell_angle_beta                  87.994654
_cell_angle_gamma                 90.300905
_cell_volume                      2207.68744155

loop_
_atom_site_label
_atom_site_type_symbol
_atom_type_description
_atom_site_fract_x
_atom_site_fract_y
_atom_site_fract_z
_atom_type_partial_charge
C1    C     C_R   0.329358 0.499652 0.496754 0.581098
C2    C     C_R   0.953375 0.444993 0.284142 -0.108652
C3    C     C_R   0.439179 0.793898 0.575392 0.147844
C4    C     C_R   0.560821 0.206101 0.424608 0.147844
C5    C     C_R   0.560865 0.794091 0.424755 0.148282
C6    C     C_R   0.439135 0.205909 0.575245 0.148282
C7    C     C_R   0.561418 0.896910 0.422684 -0.011404
C8    C     C_R   0.438582 0.103090 0.577316 -0.011404
C9    C     C_R   0.438621 0.896736 0.577419 -0.009767
C10   C     C_R   0.561379 0.103264 0.422581 -0.009767
C11   C     C_R   0.500008 0.948328 0.500022 0.029226
C12   C     C_R   0.670642 0.500348 0.503246 0.581100
C13   C     C_R   0.499992 0.051672 0.499978 0.029226
C14   C     C_R   0.621169 0.949827 0.343836 -0.122279
C15   C     C_R   0.378831 0.050173 0.656164 -0.122278
C16   C     C_R   0.378893 0.949526 0.656287 -0.121107
C17   C     C_R   0.621107 0.050474 0.343712 -0.121107
C18   C     C_R   0.500372 0.499778 0.259465 0.556375
C19   C     C_R   0.499628 0.500222 0.740535 0.556376
C20   C     C_3   0.428650 0.548290 0.046187 -0.117178
C21   C     C_3   0.571350 0.451709 0.953813 -0.117178
C22   C     C_3   0.503415 0.591742 0.959784 -0.102952
C23   C     C_R   0.953018 0.500076 0.502431 0.055723
C24   C     C_3   0.496585 0.408257 0.040216 -0.102952
C25   C     C_3   0.425032 0.457391 0.961612 -0.125140
C26   C     C_3   0.574968 0.542609 0.038387 -0.125140
C27   C     C_3   0.499789 0.500745 0.877501 0.050534
C28   C     C_3   0.500211 0.499255 0.122499 0.050535
C29   C     C_R   0.814241 0.473839 0.397807 -0.105711
C30   C     C_R   0.185759 0.526161 0.602193 -0.105710
C31   C     C_R   0.766954 0.501570 0.507184 0.040056
C32   C     C_R   0.233046 0.498430 0.492816 0.040055
C33   C     C_R   0.811326 0.527874 0.617753 0.012528
C34   C     C_R   0.046982 0.499924 0.497569 0.055723
C35   C     C_R   0.188674 0.472126 0.382246 0.012527
C36   C     C_R   0.905591 0.527464 0.615000 -0.003608
C37   C     C_R   0.094409 0.472536 0.385000 -0.003608
C38   C     C_2   0.760010 0.551109 0.736625 0.209036
C39   C     C_2   0.239991 0.448892 0.263374 0.209036
C40   C     C_2   0.372903 0.741094 0.654929 0.266560
C41   C     C_2   0.627097 0.258906 0.345071 0.266560
C42   C     C_2   0.626908 0.741435 0.345073 0.276085
C43   C     C_2   0.373092 0.258565 0.654927 0.276085
C44   C     C_R   0.906722 0.472875 0.394454 0.024300
C45   C     C_R   0.093278 0.527125 0.605545 0.024300
C46   C     C_R   0.954035 0.555679 0.720617 -0.124399
C47   C     C_R   0.045965 0.444321 0.279383 -0.124398
C48   C     C_R   0.046625 0.555007 0.715858 -0.108651
Cu1   Cu    Cu3+1 0.500000 0.597420 0.500000 1.009043
Cu2   Cu    Cu3+1 0.500000 0.402580 0.500000 1.009043
H1    H     H_    0.363613 0.422758 0.927171 0.114766
H2    H     H_    0.219426 0.477985 0.174239 0.079818
H3    H     H_    0.921382 0.579535 0.807577 0.111788
H4    H     H_    0.078618 0.420465 0.192422 0.111790
H5    H     H_    0.081908 0.576749 0.798849 0.117984
H6    H     H_    0.918092 0.423251 0.201151 0.117984
H7    H     H_    0.392813 0.702545 0.737654 0.099946
H8    H     H_    0.607186 0.297455 0.262345 0.099946
H9    H     H_    0.607002 0.704344 0.260629 0.097651
H10   H     H_    0.392998 0.295656 0.739371 0.097651
H11   H     H_    0.668512 0.914159 0.280428 0.149069
H12   H     H_    0.636387 0.577242 0.072829 0.114766
H13   H     H_    0.331488 0.085841 0.719572 0.149070
H14   H     H_    0.331643 0.913804 0.719921 0.150504
H15   H     H_    0.668357 0.086196 0.280079 0.150504
H16   H     H_    0.370313 0.587712 0.087239 0.118166
H17   H     H_    0.629687 0.412288 0.912761 0.118166
H18   H     H_    0.506312 0.666929 0.924282 0.129568
H19   H     H_    0.493688 0.333071 0.075718 0.129568
H20   H     H_    0.778405 0.453348 0.314582 0.118641
H21   H     H_    0.221595 0.546652 0.685417 0.118640
H22   H     H_    0.780576 0.522019 0.825762 0.079816
N1    N     N_R   0.500000 0.743810 0.500000 -0.272319
N2    N     N_R   0.500000 0.256190 0.500000 -0.272319
O1    O     O_R   0.370260 0.582280 0.500030 -0.494530
O2    O     O_2   0.304188 0.395366 0.263275 -0.475718
O3    O     O_2   0.294062 0.743868 0.630747 -0.519928
O4    O     O_2   0.705938 0.256132 0.369253 -0.519928
O5    O     O_2   0.705508 0.743000 0.370875 -0.496761
O6    O     O_2   0.294492 0.257000 0.629125 -0.496761
O7    O     O_R   0.629740 0.417720 0.499970 -0.494530
O8    O     O_R   0.629740 0.582280 0.499970 -0.435323
O9    O     O_R   0.370260 0.417720 0.500030 -0.435324
O10   O     O_R   0.499980 0.582260 0.316850 -0.543287
O11   O     O_R   0.500020 0.417740 0.683150 -0.543287
O12   O     O_R   0.500020 0.582260 0.683150 -0.504528
O13   O     O_R   0.499980 0.417740 0.316850 -0.504529
O14   O     O_2   0.695812 0.604634 0.736723 -0.475717

loop_
_geom_bond_atom_site_label_1
_geom_bond_atom_site_label_2
_ccdc_geom_bond_type
C48   H5    S    
C21   C26   S    
C8    C13   A    
C34   C37   A    
C30   C45   A    
C5    C42   S    
C19   O12   A    
C30   H21   S    
C7    C11   A    
Cu1   O10   S    
C20   H16   S    
C35   C37   A    
C9    C16   A    
C41   H8    S    
Cu2   N2    S    
C4    C41   S    
C10   C17   A    
C15   C16   A    
C33   C36   A    
Cu2   O11   S    
C7    C14   A    
C2    C44   A    
Cu2   O9    S    
C18   O10   A    
C31   C33   A    
C36   C46   A    
C37   C47   A    
C19   C27   S    
C4    N2    A    
C39   H2    S    
C21   C27   S    
C42   O5    D    
C21   H17   S    
C14   C17   A    
C24   H19   S    
C6    N2    A    
C46   C48   A    
C38   H22   S    
C1    O1    A    
C32   C35   A    
C18   C28   S    
C24   C25   S    
C41   O4    D    
C5    C7    A    
C6    C8    A    
C20   C28   S    
C43   O6    D    
C14   H11   S    
C1    C32   S    
C23   C44   A    
C38   O14   D    
Cu1   O8    S    
C35   C39   S    
C25   H1    S    
C3    C9    A    
C23   C34   A    
Cu1   O1    S    
C12   O8    A    
C34   C45   A    
C39   O2    D    
C9    C11   A    
C22   H18   S    
Cu2   O13   S    
C47   H4    S    
C43   H10   S    
C20   C22   S    
C3    C40   S    
Cu1   Cu2   S    
C8    C15   A    
C6    C43   S    
C29   C44   A    
C22   C26   S    
Cu1   N1    S    
C25   C27   S    
C4    C10   A    
C29   H20   S    
C45   C48   A    
C40   H7    S    
C26   C28   S    
Cu1   O12   S    
C24   C28   S    
C19   O11   A    
C10   C13   A    
C42   H9    S    
C2    C47   A    
C1    O9    A    
C17   H15   S    
C33   C38   S    
C22   C27   S    
C26   H12   S    
C12   C31   S    
C2    H6    S    
C30   C32   A    
C11   C13   A    
C46   H3    S    
C12   O7    A    
C5    N1    A    
C3    N1    A    
C18   O13   A    
C29   C31   A    
C23   C36   A    
C20   C25   S    
C21   C24   S    
C15   H13   S    
C40   O3    D    
C16   H14   S    
Cu2   O7    S    
