data_mof_unit_39487.cif
_audit_creation_date              2012-12-10T19:44:25-0500
_audit_creation_method            fapswitch 2.2
_symmetry_space_group_name_H-M    P1
_symmetry_Int_Tables_number       1
_space_group_crystal_system       triclinic
_cell_length_a                    10.909553
_cell_length_b                    12.490162
_cell_length_c                    13.781934
_cell_angle_alpha                 117.364889
_cell_angle_beta                  75.622227
_cell_angle_gamma                 100.144365
_cell_volume                      1611.37050456

loop_
_atom_site_label
_atom_site_type_symbol
_atom_type_description
_atom_site_fract_x
_atom_site_fract_y
_atom_site_fract_z
_atom_type_partial_charge
C1    C     C_R   0.510337 0.853768 0.287958 0.846570
C2    C     C_R   0.702944 0.804584 0.789582 -0.153531
C3    C     C_R   0.039203 0.932845 0.543174 -0.179404
C4    C     C_R   0.128709 0.998270 0.495473 -0.094594
C5    C     C_R   0.085586 0.065905 0.453649 -0.000133
C6    C     C_R   0.957116 0.066720 0.460264 -0.192523
C7    C     C_R   0.867916 0.004681 0.511220 -0.083941
C8    C     C_R   0.909957 0.941137 0.558058 -0.010336
C9    C     C_R   0.167040 0.258099 0.442219 -0.154748
C10   C     C_R   0.247223 0.321398 0.387785 -0.239305
C11   C     C_R   0.331584 0.259007 0.289530 0.107509
C12   C     C_R   0.734850 0.004322 0.507811 0.859331
C13   C     C_R   0.327948 0.132652 0.240564 -0.093649
C14   C     C_R   0.246688 0.069134 0.293937 -0.140526
C15   C     C_R   0.169825 0.132302 0.396828 0.143709
C16   C     C_R   0.605940 0.280146 0.970365 -0.087014
C17   C     C_R   0.497168 0.229600 0.822471 -0.025523
C18   C     C_R   0.468475 0.817526 0.104659 -0.189281
C19   C     C_R   0.447455 0.743663 0.996846 -0.150041
C20   C     C_R   0.460584 0.619590 0.948069 -0.156360
C21   C     C_R   0.494935 0.566355 0.007182 0.081410
C22   C     C_R   0.509663 0.641389 0.119460 0.107070
C23   C     C_R   0.483105 0.145252 0.710274 0.770099
C24   C     C_R   0.515716 0.440386 0.959700 0.056649
C25   C     C_R   0.578226 0.400547 0.014632 0.140535
C26   C     C_R   0.599694 0.478236 0.119655 -0.181107
C27   C     C_R   0.541427 0.584886 0.175891 -0.194589
C28   C     C_R   0.476124 0.352318 0.861925 -0.212970
C29   C     C_R   0.560372 0.194194 0.877708 -0.240426
C30   C     C_R   0.496949 0.769137 0.169586 -0.082276
C31   C     C_R   0.719096 0.345416 0.342645 -0.235294
C32   C     C_R   0.327057 0.760817 0.647162 0.105724
C33   C     C_R   0.290698 0.663783 0.675749 -0.095869
C34   C     C_R   0.263390 0.998957 0.497317 0.773855
C35   C     C_R   0.359783 0.562312 0.618357 -0.207797
C36   C     C_R   0.466551 0.554720 0.534703 -0.079553
C37   C     C_R   0.502957 0.654703 0.505474 0.190458
C38   C     C_R   0.537684 0.449360 0.480137 -0.027278
C39   C     C_R   0.648725 0.446631 0.401796 0.064915
C40   C     C_R   0.689284 0.542064 0.377187 -0.303205
C41   C     C_R   0.620373 0.642982 0.421452 0.212738
C42   C     C_R   0.503718 0.344077 0.498249 -0.016338
C43   C     C_R   0.678572 0.244336 0.359555 0.473313
C44   C     C_R   0.738913 0.927959 0.828076 -0.098204
C45   C     C_R   0.803700 0.975816 0.753090 0.009603
C46   C     C_R   0.827315 0.898158 0.637601 0.045202
C47   C     C_R   0.797918 0.773653 0.601625 -0.080033
C48   C     C_R   0.733469 0.727276 0.676642 -0.137740
Cu1   Cu    Cu3+1 0.529370 0.098270 0.475420 0.999395
Cu2   Cu    Cu3+1 0.470630 0.901730 0.524580 0.985318
H1    H     H_    0.655843 0.768108 0.847822 0.156608
H2    H     H_    0.389621 0.084112 0.162102 0.150242
H3    H     H_    0.245034 0.971456 0.256655 0.124343
H4    H     H_    0.580417 0.100888 0.845599 0.150926
H5    H     H_    0.644274 0.449279 0.164442 0.205984
H6    H     H_    0.659109 0.251441 0.009738 0.224421
H7    H     H_    0.427778 0.376487 0.815990 0.145611
H8    H     H_    0.460876 0.913316 0.138073 0.154140
H9    H     H_    0.448547 0.568049 0.862714 0.136716
H10   H     H_    0.423294 0.783580 0.949565 0.138945
H11   H     H_    0.718455 0.985620 0.916727 0.181151
H12   H     H_    0.517571 0.616159 0.263165 0.202810
H13   H     H_    0.778167 0.533130 0.317489 0.199974
H14   H     H_    0.803389 0.343139 0.280382 0.171161
H15   H     H_    0.422378 0.335413 0.557568 0.135493
H16   H     H_    0.329794 0.490917 0.643811 0.183049
H17   H     H_    0.830279 0.712253 0.515861 0.160800
H18   H     H_    0.710352 0.630965 0.647611 0.145625
H19   H     H_    0.068994 0.879111 0.574564 0.226517
H20   H     H_    0.927554 0.116089 0.423736 0.197864
H21   H     H_    0.104708 0.306878 0.520445 0.156470
H22   H     H_    0.247728 0.418938 0.424733 0.149364
N1    N     N_R   0.573890 0.246290 0.438210 -0.218043
N2    N     N_R   0.426890 0.754320 0.561170 -0.229746
O1    O     O_R   0.536940 0.972510 0.318130 -0.535988
O2    O     O_R   0.487330 0.806530 0.359650 -0.580669
O3    O     O_R   0.705160 0.082990 0.479250 -0.562480
O4    O     O_R   0.655550 0.917010 0.520760 -0.543281
O5    O     O_R   0.512670 0.193470 0.640350 -0.594067
O6    O     O_R   0.463060 0.027490 0.681870 -0.618902
O7    O     O_R   0.344450 0.082990 0.479240 -0.585125
O8    O     O_R   0.294840 0.917010 0.520750 -0.566004
C49   C     C_2   0.431542 0.326001 0.244177 0.323991
H23   H     H_    0.423431 0.420343 0.267732 0.063404
O9    O     O_2   0.528161 0.277394 0.185858 -0.592525
Br1   Br    Br    0.774094 0.105411 0.266732 -0.473216
C50   C     C_2   0.263692 0.873746 0.719289 0.386431
H24   H     H_    0.307923 0.945875 0.784575 0.084259
O10   O     O_2   0.155077 0.881264 0.716185 -0.581128
C51   C     C_2   0.182846 0.668361 0.768661 0.355172
H25   H     H_    0.130086 0.748185 0.818576 0.120759
O11   O     O_2   0.151199 0.582316 0.791141 -0.540596
Br2   Br    Br    0.724420 0.728476 0.336603 -0.534286
C52   C     C_2   0.855153 0.103881 0.796326 0.341863
H26   H     H_    0.883475 0.148785 0.742184 0.081468
O12   O     O_2   0.869692 0.160028 0.892702 -0.529323

loop_
_geom_bond_atom_site_label_1
_geom_bond_atom_site_label_2
_ccdc_geom_bond_type
C43   N1    A    
C37   N2    A    
C17   C29   A    
C35   C36   A    
C50   H24   S    
C26   H5    S    
C7    C8    A    
C28   H7    S    
C26   C27   A    
C17   C23   S    
C40   H13   S    
C31   C43   A    
C36   C37   A    
C3    H19   S    
C38   C42   A    
Cu2   N2    S    
C32   N2    A    
C5    C6    A    
C29   H4    S    
C18   C19   A    
Cu1   O7    S    
C18   H8    S    
C41   Br2   S    
C47   C48   A    
C2    C44   A    
C12   O4    A    
C42   H15   S    
Cu1   O1    S    
C18   C30   A    
C34   O7    A    
C23   O6    A    
C9    C10   A    
C21   C22   A    
C37   C41   A    
C1    O2    A    
C45   C52   S    
Cu2   O4    S    
C47   H17   S    
C7    C12   S    
C4    C34   S    
C5    C15   S    
C1    O1    A    
C9    H21   S    
C24   C25   A    
C3    C8    A    
C10   C11   A    
C39   C40   A    
C35   H16   S    
C11   C49   S    
C16   C29   A    
C45   C46   A    
C32   C50   S    
Cu1   O5    S    
C16   H6    S    
C27   H12   S    
Cu2   O2    S    
C13   H2    S    
C51   O11   D    
C49   H23   S    
C12   O3    A    
C48   H18   S    
C20   H9    S    
C52   O12   D    
C40   C41   A    
C49   O9    D    
C22   C27   A    
C50   O10   D    
C44   H11   S    
Cu1   N1    S    
C3    C4    A    
C44   C45   A    
Cu2   O8    S    
C16   C25   A    
C6    H20   S    
C46   C47   A    
C42   N1    A    
C22   C30   A    
C17   C28   A    
C31   H14   S    
C24   C28   A    
C4    C5    A    
Cu2   O6    S    
C6    C7    A    
C19   H10   S    
C2    C48   A    
C32   C33   A    
C19   C20   A    
C36   C38   A    
C25   C26   A    
C33   C51   S    
C11   C13   A    
C51   H25   S    
C38   C39   A    
C1    C30   S    
C33   C35   A    
Cu1   O3    S    
C9    C15   A    
C52   H26   S    
C8    C46   S    
C43   Br1   S    
C2    H1    S    
C14   H3    S    
C20   C21   A    
Cu1   Cu2   S    
C21   C24   A    
C31   C39   A    
C14   C15   A    
C34   O8    A    
C23   O5    A    
C13   C14   A    
C10   H22   S    
