data_mof_unit_7619.cif
_audit_creation_date              2012-12-11T16:56:15-0500
_audit_creation_method            fapswitch 2.2
_symmetry_space_group_name_H-M    P1
_symmetry_Int_Tables_number       1
_space_group_crystal_system       triclinic
_cell_length_a                    6.966056
_cell_length_b                    14.627103
_cell_length_c                    16.131439
_cell_angle_alpha                 90.207725
_cell_angle_beta                  89.55655
_cell_angle_gamma                 89.80933
_cell_volume                      1643.61495264

loop_
_atom_site_label
_atom_site_type_symbol
_atom_type_description
_atom_site_fract_x
_atom_site_fract_y
_atom_site_fract_z
_atom_type_partial_charge
O1    O     O_R   0.505830 0.583360 0.413880 -0.538470
O2    O     O_R   0.175830 0.595460 0.585520 -0.514656
O3    O     O_R   0.005520 0.416640 0.586120 -0.543594
C1    C     C_R   0.344244 0.617923 0.614066 0.736843
O4    O     O_R   0.176120 0.594390 0.414490 -0.546220
O5    O     O_R   0.005810 0.415570 0.413870 -0.555832
C2    C     C_R   0.345067 0.615885 0.385652 0.687707
O6    O     O_R   0.505540 0.584430 0.586130 -0.542786
O7    O     O_3   0.339200 0.441330 0.500000 -0.382497
V1    V     V_3+5 0.064350 0.510880 0.500000 1.404192
O8    O     O_R   0.676100 0.404540 0.414480 -0.540309
C3    C     C_R   0.846104 0.382466 0.386127 0.696842
O9    O     O_R   0.675810 0.405610 0.585510 -0.537322
C4    C     C_R   0.844840 0.383559 0.613477 0.747339
V2    V     V_3+5 0.564340 0.489120 0.500000 1.406455
O10   O     O_3   0.839360 0.558670 0.500000 -0.366115
C5    C     C_2   0.721177 0.209024 0.786468 -0.133566
C6    C     C_2   0.885797 0.182047 0.822771 -0.312747
H1    H     H_    0.022644 0.210306 0.803894 0.126820
C7    C     C_2   0.708428 0.277546 0.718486 -0.134266
C8    C     C_2   0.861172 0.314946 0.680011 -0.311527
H2    H     H_    0.564961 0.297174 0.699370 0.133530
H3    H     H_    0.005721 0.295777 0.697117 0.128985
C9    C     C_R   0.722374 0.186536 0.241439 -0.122665
C10   C     C_R   0.873271 0.186589 0.183239 -0.122967
C11   C     C_R   0.016553 0.252555 0.193935 -0.069282
H4    H     H_    0.128482 0.257393 0.148574 0.165450
C12   C     C_R   0.010449 0.315559 0.260203 -0.193951
H5    H     H_    0.120266 0.367611 0.263846 0.135042
C13   C     C_R   0.861134 0.312737 0.319635 -0.147869
C14   C     C_R   0.724808 0.243387 0.311621 0.012187
C15   C     C_3   0.513840 0.252561 0.319198 0.229178
C16   C     C_3   0.508973 0.208703 0.232926 0.665927
H6    H     H_    0.462438 0.324815 0.321225 0.070949
C17   C     C_R   0.493496 0.676744 0.745614 0.021862
C18   C     C_R   0.351993 0.684178 0.684485 -0.200559
C19   C     C_R   0.214211 0.754993 0.694534 0.408172
C20   C     C_R   0.224433 0.816065 0.762853 -0.268560
C21   C     C_R   0.377508 0.812122 0.819709 -0.156450
C22   C     C_R   0.507217 0.739412 0.810635 0.092125
C23   C     C_3   0.721209 0.739190 0.806952 -0.378224
C24   C     C_3   0.706318 0.670205 0.736515 -0.348788
H7    H     H_    0.785883 0.710093 0.863877 0.163975
H8    H     H_    0.780691 0.806122 0.787077 0.182647
H9    H     H_    0.761548 0.601287 0.752983 0.158662
C25   C     C_R   0.510778 0.743364 0.309153 0.102822
C26   C     C_R   0.353346 0.685075 0.318748 -0.108257
C27   C     C_R   0.200610 0.695671 0.262808 -0.176808
H10   H     H_    0.077094 0.651564 0.267269 0.132602
C28   C     C_R   0.212261 0.758451 0.196790 -0.178774
H11   H     H_    0.096079 0.762081 0.152918 0.130488
C29   C     C_R   0.377862 0.811743 0.184289 -0.107705
C30   C     C_R   0.522984 0.804820 0.243517 0.087219
C31   C     C_3   0.731761 0.787307 0.231479 -0.415150
C32   C     C_3   0.718568 0.720327 0.303005 -0.394670
H12   H     H_    0.819631 0.848617 0.245776 0.169958
H13   H     H_    0.763058 0.753841 0.170879 0.172045
H14   H     H_    0.798677 0.742895 0.358578 0.173564
H15   H     H_    0.742757 0.648002 0.284086 0.167685
O11   O     O_R   0.229930 0.912420 0.917160 -0.538872
O12   O     O_R   0.559420 0.902500 0.088780 -0.542565
O13   O     O_R   0.729660 0.081330 0.089380 -0.552194
C33   C     C_R   0.389984 0.878277 0.115321 0.696218
O14   O     O_R   0.559650 0.901420 0.917750 -0.540208
O15   O     O_R   0.729880 0.080250 0.917130 -0.539853
C34   C     C_R   0.391136 0.879982 0.888430 0.717257
O16   O     O_R   0.229700 0.913500 0.089410 -0.537016
O17   O     O_3   0.396250 0.055540 0.003280 -0.382842
V3    V     V_3+5 0.671130 0.986010 0.003260 1.380972
O18   O     O_R   0.059600 0.091310 0.917720 -0.547185
C35   C     C_R   0.891071 0.113310 0.889663 0.734676
O19   O     O_R   0.059370 0.092380 0.088750 -0.524862
C36   C     C_R   0.888765 0.115871 0.116467 0.677031
V4    V     V_3+5 0.171120 0.007820 0.003230 1.398378
O20   O     O_3   0.896130 0.938240 0.003240 -0.370227
H16   H     H_    0.585953 0.180287 0.807674 0.135268
O21   O     O_3   0.373232 0.136268 0.225912 -0.562351
C37   C     C_3   0.432039 0.052407 0.261460 0.114812
H17   H     H_    0.528890 0.059531 0.315332 0.148857
H18   H     H_    0.510498 0.011783 0.214277 0.122306
C38   C     C_3   0.254412 0.000635 0.290566 -0.712268
H19   H     H_    0.159355 0.985563 0.237449 0.222741
H20   H     H_    0.296814 0.935805 0.320859 0.174004
H21   H     H_    0.172041 0.041820 0.336352 0.219813
O22   O     O_3   0.073693 0.767477 0.635709 -0.558036
C39   C     C_3   0.138032 0.833353 0.578112 0.092563
H22   H     H_    0.286660 0.818323 0.555354 0.097353
H23   H     H_    0.134114 0.902773 0.606638 0.120111
C40   C     C_3   0.006263 0.832629 0.503439 -0.713510
H24   H     H_    0.053789 0.884868 0.457949 0.172619
H25   H     H_    0.011449 0.764265 0.473373 0.227115
H26   H     H_    0.856336 0.847943 0.523101 0.215346
H27   H     H_    0.118183 0.870033 0.768271 0.135573
H28   H     H_    0.756780 0.696687 0.675789 0.225146
O23   O     O_3   0.453789 0.196403 0.385833 -0.563000
C41   C     C_3   0.266983 0.219531 0.412161 0.105986
H29   H     H_    0.161918 0.197712 0.364991 0.160491
H30   H     H_    0.253362 0.293798 0.424351 0.153960
C42   C     C_3   0.221522 0.169971 0.492631 -0.723452
H31   H     H_    0.323094 0.191611 0.541639 0.221708
H32   H     H_    0.072928 0.186832 0.513131 0.177392
H33   H     H_    0.233706 0.094883 0.483434 0.216911
O24   O     O_3   0.472147 0.281697 0.176582 -0.592228
C43   C     C_3   0.485786 0.255864 0.092460 0.110538
H34   H     H_    0.396278 0.195376 0.079626 0.187133
H35   H     H_    0.636367 0.243640 0.073919 0.124327
C44   C     C_3   0.416480 0.334414 0.038503 -0.775412
H36   H     H_    0.507515 0.395562 0.048767 0.231736
H37   H     H_    0.426581 0.314349 0.972124 0.183975
H38   H     H_    0.265237 0.352465 0.053187 0.213080

loop_
_geom_bond_atom_site_label_1
_geom_bond_atom_site_label_2
_ccdc_geom_bond_type
C1    C18   S    
C32   H15   S    
C44   H37   S    
C23   C24   S    
O23   C41   S    
C1    O6    A    
C43   H35   S    
C38   H19   S    
O21   C37   S    
C11   H4    S    
C4    C8    S    
C19   O22   S    
C12   H5    S    
O22   C39   S    
C20   C21   A    
C37   H18   S    
O17   V4    S    
V2    O10   S    
C41   C42   S    
C5    C7    S    
C20   H27   S    
C6    H1    S    
O11   V4    S    
O12   C33   A    
C17   C24   S    
C31   C32   S    
O8    V2    S    
C17   C18   A    
O17   V3    S    
C41   H30   S    
C25   C32   S    
O18   V4    S    
C5    H16   S    
C28   C29   A    
C44   H36   S    
O13   C36   A    
O18   C35   A    
O1    V2    S    
C40   H25   S    
O7    V1    S    
C10   C36   S    
C27   C28   A    
O11   C34   A    
O1    C2    A    
O9    C4    A    
C23   H7    S    
C24   H28   S    
C43   H34   S    
C38   H20   S    
C28   H11   S    
C31   H12   S    
C33   O16   A    
V4    O20   S    
C26   C27   A    
C9    C10   A    
O19   V4    S    
C21   C22   A    
O4    C2    A    
C37   H17   S    
C10   C11   A    
O15   C35   A    
C39   C40   S    
O13   V3    S    
C24   H9    S    
C2    C26   S    
O2    C1    A    
C19   C20   A    
C14   C15   S    
C41   H29   S    
C15   O23   S    
C5    C6    D    
O16   V4    S    
O14   V3    S    
C40   H26   S    
O14   C34   A    
O3    C4    A    
C27   H10   S    
C42   H32   S    
C7    H2    S    
O6    V2    S    
O9    V2    S    
C21   C34   S    
O2    V1    S    
C38   H21   S    
C29   C30   A    
C39   H22   S    
O12   V3    S    
C6    C35   S    
C25   C26   A    
C22   C23   S    
C3    C13   S    
C16   O24   S    
O19   C36   A    
C29   C33   S    
O5    V1    S    
O8    C3    A    
C30   C31   S    
C11   C12   A    
C9    C16   S    
C42   H31   S    
C44   H38   S    
C15   C16   S    
C8    H3    S    
C17   C22   A    
O7    V2    S    
C9    C14   A    
O4    V1    S    
O3    V1    S    
V1    O10   S    
O5    C3    A    
C37   C38   S    
C16   O21   S    
C13   C14   A    
O15   V3    S    
C25   C30   A    
C12   C13   A    
C23   H8    S    
V3    O20   S    
C39   H23   S    
C42   H33   S    
C7    C8    D    
C18   C19   A    
C32   H14   S    
O24   C43   S    
C40   H24   S    
C43   C44   S    
C15   H6    S    
C31   H13   S    
