data_mof_unit_41524.cif
_audit_creation_date              2013-03-05T16:03:47-0500
_audit_creation_method            fapswitch 2.2
_symmetry_space_group_name_H-M    P1
_symmetry_Int_Tables_number       1
_space_group_crystal_system       triclinic
_cell_length_a                    10.837808
_cell_length_b                    9.554599
_cell_length_c                    10.952311
_cell_angle_alpha                 89.999242
_cell_angle_beta                  90.997415
_cell_angle_gamma                 89.999571
_cell_volume                      1133.94992442

loop_
_atom_site_label
_atom_site_type_symbol
_atom_site_description
_atom_site_fract_x
_atom_site_fract_y
_atom_site_fract_z
_atom_type_partial_charge
O1    O     O_R   0.319640 0.618740 0.499990 -0.564360
O2    O     O_R   0.680360 0.618740 0.500010 -0.564472
O3    O     O_R   0.319620 0.381170 0.499990 -0.590100
O4    O     O_R   0.680380 0.381170 0.500010 -0.590038
C1    C     C_R   0.262171 0.499884 0.500441 0.808128
C2    C     C_R   0.737828 0.499884 0.499559 0.808160
O5    O     O_R   0.500000 0.618750 0.321940 -0.545369
O6    O     O_R   0.500000 0.618750 0.678060 -0.545384
O7    O     O_R   0.499970 0.381180 0.321940 -0.549721
O8    O     O_R   0.500030 0.381180 0.678060 -0.549701
C3    C     C_R   0.501060 0.499634 0.265221 0.915588
C4    C     C_R   0.498965 0.499630 0.734783 0.915449
Cu1   Cu    Cu3+1 0.500000 0.640660 0.500000 1.076127
Cu2   Cu    Cu3+1 0.500000 0.359340 0.500000 1.036444
C5    C     C_2   0.485356 0.383285 0.934310 0.259642
C6    C     C_2   0.515001 0.383340 0.065722 0.259656
C7    C     C_2   0.507916 0.498622 0.867159 -0.427950
C8    C     C_2   0.492177 0.498624 0.132846 -0.427867
H1    H     H_    0.544688 0.592880 0.909529 0.189571
H2    H     H_    0.455234 0.592791 0.090459 0.189472
C9    C     C_R   0.063879 0.372342 0.500143 -0.135514
C10   C     C_R   0.936122 0.372341 0.499816 -0.135362
H3    H     H_    0.111898 0.272909 0.500029 0.175790
H4    H     H_    0.888104 0.272908 0.499895 0.175822
C11   C     C_R   0.871729 0.499566 0.499126 -0.033186
C12   C     C_R   0.128271 0.499567 0.500874 -0.033191
C13   C     C_R   0.936227 0.626532 0.498686 -0.116112
C14   C     C_R   0.063771 0.626532 0.501357 -0.116039
H5    H     H_    0.888601 0.725989 0.496263 0.201388
H6    H     H_    0.111395 0.725989 0.503814 0.201345
C15   C     C_R   0.433307 0.075204 0.414857 -0.021847
C16   C     C_R   0.566711 0.075201 0.585128 -0.021697
H7    H     H_    0.379467 0.131927 0.347040 0.183812
H8    H     H_    0.620574 0.131921 0.652925 0.183902
C17   C     C_R   0.433501 0.926938 0.413718 0.383325
C18   C     C_R   0.566515 0.926935 0.586268 0.383372
N1    N     N_R   0.500000 0.852070 0.500000 -0.292241
N2    N     N_R   0.500000 0.147940 0.500000 -0.223508
N3    N     N_R   0.432471 0.259318 0.880587 0.171342
O9    O     O_R   0.496551 0.144523 0.874808 -0.262045
O10   O     O_R   0.321686 0.262986 0.832953 -0.326112
N4    N     N_R   0.568149 0.259528 0.119486 0.171336
O11   O     O_R   0.504334 0.144544 0.125244 -0.261901
O12   O     O_R   0.678860 0.263563 0.167281 -0.326279
N5    N     N_R   0.364295 0.857412 0.319846 0.145593
O13   O     O_R   0.404211 0.861723 0.208583 -0.287501
O14   O     O_R   0.248319 0.830672 0.337003 -0.372954
N6    N     N_R   0.635784 0.857407 0.680095 0.145658
O15   O     O_R   0.595823 0.861487 0.791334 -0.287449
O16   O     O_R   0.751807 0.831005 0.662989 -0.373026

loop_
_geom_bond_atom_site_label_1
_geom_bond_atom_site_label_2
_geom_bond_distance
_ccdc_geom_bond_type
C4    C7    1.451410 S    
O7    Cu2   1.961294 S    
N4    O12   1.301273 A    
C3    C8    1.451355 S    
O6    Cu1   1.961369 S    
C16   N2    1.360704 A    
Cu2   N2    2.019842 S    
Cu1   N1    2.019938 S    
C15   N2    1.360717 A    
O6    C4    1.296790 A    
C9    C12   1.401622 A    
O3    C1    1.293961 A    
N6    O16   1.299260 A    
N3    O10   1.301230 A    
C6    C8    1.349556 D    
C9    C10   1.384548 A    
O5    C3    1.296759 A    
O7    C3    1.291202 A    
C5    N3    1.437335 S    
O2    C2    1.295254 A    
O3    Cu2   1.966016 S    
O8    C4    1.291198 A    
O1    C1    1.295257 A    
C16   C18   1.416678 A    
C15   C17   1.416681 A    
C14   H6    1.081511 S    
C18   N1    1.378533 A    
C17   N1    1.378539 A    
C18   N6    1.426182 S    
C8    H2    1.085746 S    
N5    O14   1.299500 A    
C9    H3    1.083250 S    
O4    Cu2   1.966019 S    
C10   H4    1.083248 S    
C2    C11   1.451281 S    
C11   C13   1.400150 A    
N4    O11   1.300313 A    
C5    C6    1.469223 S    
C17   N5    1.426203 S    
C6    N4    1.437397 S    
O5    Cu1   1.961376 S    
O1    Cu1   1.965896 S    
C13   H5    1.081504 S    
O4    C2    1.293963 A    
O8    Cu2   1.961298 S    
N3    O9    1.300328 A    
C5    C7    1.349569 D    
O2    Cu1   1.965891 S    
N6    O15   1.300683 A    
C15   H7    1.082029 S    
Cu1   Cu2   2.687900 S    
C7    H1    1.085734 S    
N5    O13   1.300823 A    
C12   C14   1.400151 A    
C1    C12   1.451284 S    
C13   C14   1.382101 A    
C10   C11   1.401618 A    
C16   H8    1.082019 S    
