data_mof_unit_38513.cif
_audit_creation_date              2013-03-05T16:30:50-0500
_audit_creation_method            fapswitch 2.2
_symmetry_space_group_name_H-M    P1
_symmetry_Int_Tables_number       1
_space_group_crystal_system       triclinic
_cell_length_a                    11.00152
_cell_length_b                    10.822858
_cell_length_c                    9.558274
_cell_angle_alpha                 90.448749
_cell_angle_beta                  102.794903
_cell_angle_gamma                 90.80774
_cell_volume                      1109.64350852

loop_
_atom_site_label
_atom_site_type_symbol
_atom_site_description
_atom_site_fract_x
_atom_site_fract_y
_atom_site_fract_z
_atom_type_partial_charge
O1    O     O_R   0.500000 0.319640 0.618810 -0.593424
O2    O     O_R   0.500010 0.319680 0.381230 -0.586799
C1    C     C_R   0.496351 0.262374 0.498590 0.796463
O3    O     O_R   0.320680 0.500000 0.575130 -0.585034
O4    O     O_R   0.320690 0.500040 0.337550 -0.574335
C2    C     C_R   0.262331 0.501758 0.441924 0.840774
Cu1   Cu    Cu3+1 0.499990 0.499980 0.640670 0.975232
Cu2   Cu    Cu3+1 0.500010 0.500020 0.359330 0.972995
O5    O     O_R   0.499990 0.680320 0.618770 -0.584840
O6    O     O_R   0.500000 0.680360 0.381190 -0.558168
O7    O     O_R   0.679310 0.499960 0.662450 -0.544926
O8    O     O_R   0.679320 0.500000 0.424870 -0.590205
C3    C     C_R   0.496926 0.737756 0.499507 0.809692
C4    C     C_R   0.736722 0.490374 0.557735 0.751884
H1    H     H_    0.899757 0.599522 0.440597 0.102657
H2    H     H_    0.117873 0.448653 0.616895 0.200760
C5    C     C_2   0.127004 0.514745 0.412621 -0.363216
C6    C     C_2   0.068206 0.490687 0.517967 -0.074305
C7    C     C_2   0.869997 0.461483 0.585557 0.307285
C8    C     C_2   0.938517 0.523346 0.508762 -0.185781
H3    H     H_    0.077249 0.550610 0.310333 0.175049
C9    C     C_R   0.482384 0.065040 0.620416 0.120826
C10   C     C_R   0.481281 0.129296 0.494344 -0.091657
C11   C     C_R   0.460477 0.063037 0.363894 -0.230896
H4    H     H_    0.451135 0.110148 0.262603 0.163757
C12   C     C_R   0.460199 0.933995 0.364587 -0.184510
H5    H     H_    0.450031 0.884710 0.263541 0.205633
C13   C     C_R   0.481961 0.870755 0.495764 -0.105775
C14   C     C_R   0.483079 0.937900 0.621275 0.122826
C15   C     C_3   0.572553 0.935724 0.763542 -0.473139
C16   C     C_3   0.570903 0.075668 0.762980 -0.451724
H6    H     H_    0.529473 0.895490 0.848031 0.207783
H7    H     H_    0.664511 0.898251 0.756015 0.198966
H8    H     H_    0.526550 0.115663 0.846498 0.196605
H9    H     H_    0.661856 0.118560 0.756582 0.201049
C17   C     C_R   0.541476 0.601542 0.085839 0.203143
N1    N     N_R   0.500780 0.500930 0.148120 -0.197264
C18   C     C_R   0.445535 0.406231 0.059574 -0.048353
H10   H     H_    0.403374 0.329135 0.103553 0.127992
C19   C     C_R   0.444884 0.406583 0.910668 -0.035120
H11   H     H_    0.401741 0.330013 0.843592 0.125674
N2    N     N_R   0.500790 0.500890 0.852210 -0.162650
C20   C     C_R   0.544990 0.599862 0.939588 0.103743
C21   C     C_3   0.674402 0.655427 0.974924 0.060235
C22   C     C_3   0.665925 0.663195 0.131774 0.156733
H12   H     H_    0.681914 0.746161 0.925197 0.111522
H13   H     H_    0.733512 0.606547 0.208109 0.146253
N3    N     N_R   0.771206 0.570457 0.955167 0.119320
O9    O     O_R   0.865402 0.613043 0.907595 -0.422863
O10   O     O_R   0.774544 0.458810 0.005613 -0.419431
O11   O     O_3   0.653283 0.785690 0.178043 -0.592006
C23   C     C_3   0.772723 0.840542 0.225286 0.054415
H14   H     H_    0.825225 0.840208 0.138080 0.159497
H15   H     H_    0.827066 0.791186 0.319990 0.138942
C24   C     C_3   0.759155 0.974113 0.269469 -0.747404
H16   H     H_    0.717300 0.977348 0.364965 0.252566
H17   H     H_    0.852277 0.020317 0.297278 0.208411
H18   H     H_    0.698961 0.024562 0.179956 0.250644
O12   O     O_3   0.913124 0.346992 0.639688 -0.607397
C25   C     C_3   0.887701 0.325489 0.775318 0.121173
H19   H     H_    0.785930 0.316644 0.768656 0.186753
H20   H     H_    0.930586 0.399744 0.851866 0.231114
C26   C     C_3   0.945951 0.204105 0.832279 -0.816369
H21   H     H_    0.048491 0.208927 0.842567 0.248094
H22   H     H_    0.926360 0.185678 0.939369 0.223367
H23   H     H_    0.906230 0.127007 0.758007 0.247764

loop_
_geom_bond_atom_site_label_1
_geom_bond_atom_site_label_2
_geom_bond_distance
_ccdc_geom_bond_type
O4    Cu2   1.937357 S    
C18   C19   1.421747 A    
C10   C11   1.405813 A    
C26   H22   1.110716 S    
C3    C13   1.450934 S    
C19   H11   1.081150 S    
C14   C15   1.492280 S    
C9    C14   1.376226 A    
Cu1   O7    1.937359 S    
N2    C20   1.368500 A    
C1    C10   1.446690 S    
C7    C8    1.339354 D    
C23   C24   1.521468 S    
Cu2   O8    1.933022 S    
C24   H16   1.110186 S    
C19   N2    1.369575 A    
C5    C6    1.337161 D    
C26   H23   1.110961 S    
C17   C22   1.488589 S    
C22   H13   1.113858 S    
H2    C6    1.088371 S    
C21   C22   1.524331 S    
C15   H6    1.111591 S    
C12   H5    1.082704 S    
C18   H10   1.081206 S    
O3    Cu1   1.933021 S    
N3    O9    1.300624 A    
O4    C2    1.300607 A    
N3    O10   1.302479 A    
C13   C14   1.395354 A    
N1    C18   1.370096 A    
O8    C4    1.292731 A    
O2    C1    1.294147 A    
C6    C8    1.458588 S    
C24   H17   1.110468 S    
C20   C21   1.504134 S    
C15   C16   1.514991 S    
O7    C4    1.300662 A    
C16   H9    1.111271 S    
C11   H4    1.083064 S    
C16   H8    1.111659 S    
O3    C2    1.293150 A    
C25   C26   1.520971 S    
Cu2   N1    2.020796 S    
C22   O11   1.412722 S    
C26   H21   1.110907 S    
C21   N3    1.459299 S    
O12   C25   1.405885 S    
O11   C23   1.412082 S    
C23   H14   1.114302 S    
C25   H20   1.109493 S    
Cu1   Cu2   2.689178 S    
C9    C16   1.491665 S    
Cu1   N2    2.019971 S    
Cu1   O5    1.964618 S    
C2    C5    1.461693 S    
C24   H18   1.111425 S    
C9    C10   1.393837 A    
C17   N1    1.361992 A    
C17   C20   1.406955 A    
O5    C3    1.296807 A    
C21   H12   1.104306 S    
C15   H7    1.111981 S    
C7    O12   1.395034 S    
O1    Cu1   1.961323 S    
C12   C13   1.408181 A    
C4    C7    1.469647 S    
H1    C8    1.086880 S    
Cu2   O6    1.961324 S    
O2    Cu2   1.964616 S    
C11   C12   1.396633 A    
C23   H15   1.113135 S    
C25   H19   1.110009 S    
O1    C1    1.293786 A    
O6    C3    1.293250 A    
C5    H3    1.086770 S    
