data_mof_unit_39690.cif
_audit_creation_date              2013-03-05T15:59:22-0500
_audit_creation_method            fapswitch 2.2
_symmetry_space_group_name_H-M    P1
_symmetry_Int_Tables_number       1
_space_group_crystal_system       triclinic
_cell_length_a                    10.547557
_cell_length_b                    12.674123
_cell_length_c                    13.072791
_cell_angle_alpha                 82.423152
_cell_angle_beta                  89.826858
_cell_angle_gamma                 101.888326
_cell_volume                      1694.34825448

loop_
_atom_site_label
_atom_site_type_symbol
_atom_site_description
_atom_site_fract_x
_atom_site_fract_y
_atom_site_fract_z
_atom_type_partial_charge
O1    O     O_R   0.467970 0.366730 0.627150 -0.576118
O2    O     O_R   0.510820 0.544830 0.662520 -0.584350
C1    C     C_R   0.470394 0.439632 0.690885 0.921186
O3    O     O_R   0.664630 0.410960 0.482340 -0.642864
O4    O     O_R   0.707470 0.589060 0.517710 -0.538677
C2    C     C_R   0.741735 0.500519 0.498070 0.976256
Zn1   Zn    Zn3+2 0.471390 0.381080 0.476380 1.002990
Zn2   Zn    Zn3+2 0.528610 0.618920 0.523620 1.049753
O5    O     O_R   0.489180 0.455170 0.337480 -0.600270
O6    O     O_R   0.532030 0.633270 0.372850 -0.644577
O7    O     O_R   0.292530 0.410940 0.482290 -0.616394
O8    O     O_R   0.335370 0.589040 0.517660 -0.596418
C3    C     C_R   0.517688 0.561164 0.308846 0.927348
C4    C     C_R   0.258145 0.500694 0.497609 0.957952
C5    C     C_3   0.953076 0.478507 0.590537 0.487321
C6    C     C_3   0.059077 0.578290 0.550736 -0.141328
H1    H     H_    0.103826 0.644346 0.594803 0.235191
C7    C     C_3   0.122759 0.501500 0.495055 -0.105391
C8    C     C_3   0.017931 0.401302 0.536598 -0.257015
C9    C     C_3   0.940205 0.423750 0.438413 -0.217055
C10   C     C_3   0.048444 0.522966 0.396068 -0.185482
C11   C     C_3   0.982367 0.596423 0.453181 0.285047
C12   C     C_3   0.876499 0.500099 0.494536 -0.184668
H2    H     H_    0.037306 0.320790 0.568739 0.184789
H3    H     H_    0.887723 0.361425 0.392736 0.199630
H4    H     H_    0.091626 0.542516 0.316537 0.199322
C13   C     C_R   0.427032 0.714005 0.069582 -0.099701
H5    H     H_    0.442466 0.742612 0.225786 0.200574
H6    H     H_    0.382882 0.783595 0.050056 0.212534
C14   C     C_R   0.517941 0.601706 0.199759 -0.158345
C15   C     C_R   0.390110 0.294358 0.843152 0.280321
C16   C     C_R   0.409449 0.267027 0.948455 -0.391295
C17   C     C_R   0.460935 0.347893 0.010922 0.531649
C18   C     C_R   0.464853 0.459369 0.970432 -0.004024
C19   C     C_R   0.427474 0.482188 0.867705 -0.211945
C20   C     C_R   0.487043 0.546434 0.031027 -0.073212
C21   C     C_R   0.433743 0.640034 0.999914 -0.090464
C22   C     C_R   0.378980 0.654438 0.903116 0.352147
C23   C     C_R   0.374788 0.575411 0.837520 0.286878
C24   C     C_R   0.551646 0.541366 0.125357 0.366485
C25   C     C_R   0.463048 0.691893 0.170191 -0.223098
C26   C     C_R   0.428582 0.404037 0.800725 -0.174356
H7    H     H_    0.381557 0.182823 0.982689 0.200030
C27   C     C_R   0.302397 0.084663 0.362647 -0.211108
H8    H     H_    0.277055 0.249234 0.350930 0.151633
H9    H     H_    0.222153 0.062160 0.313142 0.209344
N1    N     N_R   0.432930 0.222190 0.444670 -0.131659
C28   C     C_R   0.662755 0.801183 0.622344 0.622710
C29   C     C_R   0.698157 0.907204 0.646129 -0.500525
C30   C     C_R   0.621219 0.983139 0.615798 0.442387
C31   C     C_R   0.533249 0.961927 0.534661 -0.080302
C32   C     C_R   0.505386 0.854650 0.507685 0.050897
C33   C     C_R   0.470537 0.041174 0.479967 -0.021521
C34   C     C_R   0.374440 0.009503 0.406966 0.026160
C35   C     C_R   0.352486 0.903829 0.379597 0.263302
C36   C     C_R   0.416770 0.828398 0.431255 -0.212565
C37   C     C_R   0.503259 0.152648 0.490438 0.026116
C38   C     C_R   0.332355 0.190823 0.384010 0.026552
N2    N     N_R   0.566370 0.776980 0.554790 -0.138822
H10   H     H_    0.586028 0.188388 0.530864 0.197467
H11   H     H_    0.781174 0.928873 0.692923 0.163860
H12   H     H_    0.399422 0.749626 0.407465 0.217031
N3    N     N_R   0.664429 0.492776 0.138569 0.235632
O9    O     O_R   0.719320 0.466141 0.059250 -0.434870
O10   O     O_R   0.728170 0.495726 0.223618 -0.399959
N4    N     N_R   0.313421 0.215135 0.786282 0.231219
O11   O     O_R   0.276761 0.114997 0.829645 -0.445255
O12   O     O_R   0.250750 0.246936 0.706358 -0.375839
O13   O     O_3   0.482049 0.319339 0.115281 -0.607205
C39   C     C_3   0.534685 0.224285 0.133948 0.114184
H13   H     H_    0.591144 0.210434 0.066444 0.133796
H14   H     H_    0.454277 0.152668 0.155099 0.178572
C40   C     C_3   0.626871 0.232982 0.223342 -0.710137
H15   H     H_    0.588925 0.272271 0.284132 0.281528
H16   H     H_    0.639267 0.150650 0.256825 0.188075
H17   H     H_    0.723278 0.282357 0.195786 0.276117
N5    N     N_R   0.294986 0.580212 0.749413 0.236931
O14   O     O_R   0.206048 0.496228 0.735408 -0.438896
O15   O     O_R   0.303204 0.671004 0.688342 -0.418750
N6    N     N_R   0.273353 0.873704 0.294198 0.213587
O16   O     O_R   0.209431 0.774020 0.296104 -0.387383
O17   O     O_R   0.287992 0.937496 0.206539 -0.426046
O18   O     O_3   0.727732 0.721160 0.662853 -0.546004
C41   C     C_3   0.731764 0.714870 0.771783 0.037203
H18   H     H_    0.634122 0.709967 0.806721 0.103633
H19   H     H_    0.800978 0.785263 0.795625 0.146974
C42   C     C_3   0.779531 0.614105 0.815892 -0.636402
H20   H     H_    0.880594 0.620559 0.787857 0.292203
H21   H     H_    0.778674 0.607867 0.901223 0.233899
H22   H     H_    0.715794 0.540511 0.792870 0.256471
O19   O     O_3   0.896967 0.464034 0.690998 -0.620870
C43   C     C_3   0.904823 0.361645 0.744507 0.096712
H23   H     H_    0.005403 0.347616 0.743066 0.216957
H24   H     H_    0.839302 0.296134 0.709976 0.148535
C44   C     C_3   0.864650 0.356784 0.857206 -0.747564
H25   H     H_    0.762316 0.365067 0.863825 0.242463
H26   H     H_    0.874793 0.277814 0.900821 0.212282
H27   H     H_    0.927791 0.423546 0.891753 0.292660
O20   O     O_3   0.626754 0.075429 0.664798 -0.632803
C45   C     C_3   0.673716 0.066309 0.766416 0.096882
H28   H     H_    0.780900 0.093967 0.763260 0.162563
H29   H     H_    0.646893 0.982256 0.808601 0.120408
C46   C     C_3   0.614967 0.137885 0.828906 -0.843876
H30   H     H_    0.511851 0.100140 0.847282 0.278055
H31   H     H_    0.665749 0.144960 0.902662 0.204363
H32   H     H_    0.621975 0.219969 0.784723 0.266178
N7    N     N_R   0.957252 0.701082 0.407585 0.260315
O21   O     O_R   0.997338 0.787549 0.451802 -0.361631
O22   O     O_R   0.891494 0.707778 0.323841 -0.321032
O23   O     O_3   0.309346 0.735490 0.879077 -0.569281
C47   C     C_3   0.392252 0.830373 0.828856 0.085816
H33   H     H_    0.465102 0.812568 0.775405 0.119537
H34   H     H_    0.444050 0.878233 0.887039 0.127297
C48   C     C_3   0.310763 0.899570 0.765653 -0.592292
H35   H     H_    0.232192 0.913666 0.815462 0.283919
H36   H     H_    0.372537 0.978588 0.732615 0.239351
H37   H     H_    0.265960 0.858226 0.701005 0.260462

loop_
_geom_bond_atom_site_label_1
_geom_bond_atom_site_label_2
_geom_bond_distance
_ccdc_geom_bond_type
C15   N4    1.442585 S    
N4    O12   1.301524 A    
C35   C36   1.389016 A    
N3    O10   1.301805 A    
C1    C26   1.484339 S    
C15   C26   1.402686 A    
C13   H6    1.081882 S    
C7    C10   1.537568 S    
C40   H16   1.110693 S    
C40   H15   1.106456 S    
C4    C7    1.430597 S    
C8    C9    1.551355 S    
C41   C42   1.513266 S    
C42   H20   1.109549 S    
C48   H35   1.109554 S    
C44   H27   1.110808 S    
C47   H34   1.110224 S    
C33   C34   1.427753 A    
Zn1   O7    2.002300 S    
C30   O20   1.396989 S    
C24   N3    1.448870 S    
O18   C41   1.416977 S    
C23   N5    1.430850 S    
C20   C21   1.427487 A    
C41   H19   1.110146 S    
C18   C19   1.410773 A    
Zn2   N2    2.055549 S    
O4    C2    1.303209 A    
O7    C4    1.302032 A    
C9    H3    1.110487 S    
C5    C6    1.536394 S    
H5    C25   1.080870 S    
C7    C8    1.538223 S    
C19   C26   1.407610 A    
O5    C3    1.317378 A    
O23   C47   1.413125 S    
C43   H23   1.111704 S    
C5    C8    1.541901 S    
O20   C45   1.417932 S    
C27   C38   1.382978 A    
C6    H1    1.105255 S    
N7    O21   1.300585 A    
C14   C25   1.395955 A    
C39   H13   1.115760 S    
C22   O23   1.385854 S    
C17   O13   1.395217 S    
C5    C12   1.519524 S    
N4    O11   1.299376 A    
C10   C11   1.535410 S    
N7    O22   1.300434 A    
C47   C48   1.521297 S    
O3    Zn1   1.998625 S    
C45   H29   1.113086 S    
C10   H4    1.110182 S    
C27   H9    1.081237 S    
C30   C31   1.427106 A    
N5    O15   1.298173 A    
H8    C38   1.081804 S    
C29   H11   1.079272 S    
C31   C32   1.421893 A    
C3    C14   1.450478 S    
C20   C24   1.411143 A    
C41   H18   1.111957 S    
N6    O17   1.301500 A    
O19   C43   1.409068 S    
C33   C37   1.408669 A    
C37   H10   1.072195 S    
N5    O14   1.299061 A    
C45   C46   1.516000 S    
C11   N7    1.456765 S    
O1    C1    1.319847 A    
Zn1   N1    2.067931 S    
C19   C23   1.417536 A    
C21   C22   1.398277 A    
C32   N2    1.365806 A    
N1    C37   1.348357 A    
C13   C25   1.379277 A    
C15   C16   1.400599 A    
C9    C12   1.542169 S    
Zn2   O8    1.998627 S    
C39   C40   1.523141 S    
C43   H24   1.111343 S    
C17   C18   1.434107 A    
C14   C24   1.401188 A    
C46   H31   1.109398 S    
O3    C2    1.293958 A    
C28   C29   1.394939 A    
O8    C4    1.299549 A    
C42   H21   1.107742 S    
C40   H17   1.109746 S    
C36   H12   1.064840 S    
C46   H30   1.105995 S    
C28   N2    1.362314 A    
Zn1   O5    1.920896 S    
C34   C35   1.405177 A    
C6    C11   1.529526 S    
C47   H33   1.113280 S    
O1    Zn1   1.954863 S    
Zn2   O6    1.954866 S    
O2    Zn2   1.920894 S    
N6    O16   1.300778 A    
O6    C3    1.305222 A    
O4    Zn2   2.002297 S    
C48   H36   1.108794 S    
C44   H26   1.110091 S    
C28   O18   1.387712 S    
C16   C17   1.416435 A    
O2    C1    1.315826 A    
N1    C38   1.351548 A    
C35   N6    1.440666 S    
C22   C23   1.396054 A    
C13   C21   1.401985 A    
C2    C12   1.423166 S    
C45   H28   1.111450 S    
C16   H7    1.081524 S    
C8    H2    1.110383 S    
C46   H32   1.109487 S    
C18   C20   1.423071 A    
C43   C44   1.521659 S    
O13   C39   1.420567 S    
C48   H37   1.108749 S    
C5    O19   1.412684 S    
N3    O9    1.301372 A    
C27   C34   1.405651 A    
C9    C10   1.553122 S    
C6    C7    1.543182 S    
C29   C30   1.401823 A    
C42   H22   1.108797 S    
C44   H25   1.109990 S    
C11   C12   1.513352 S    
C39   H14   1.111247 S    
C31   C33   1.429954 A    
C32   C36   1.395637 A    
