data_mof_unit_56678.cif
_audit_creation_date              2012-12-10T17:54:20-0500
_audit_creation_method            fapswitch 2.2
_symmetry_space_group_name_H-M    P1
_symmetry_Int_Tables_number       1
_space_group_crystal_system       triclinic
_cell_length_a                    27.700317
_cell_length_b                    10.683683
_cell_length_c                    9.916711
_cell_angle_alpha                 88.885654
_cell_angle_beta                  89.715087
_cell_angle_gamma                 92.864807
_cell_volume                      2930.49137853

loop_
_atom_site_label
_atom_site_type_symbol
_atom_type_description
_atom_site_fract_x
_atom_site_fract_y
_atom_site_fract_z
_atom_type_partial_charge
C1    C     C_R   0.501264 0.259120 0.502352 0.861954
C2    C     C_R   0.277505 0.474702 0.629431 0.007096
C3    C     C_R   0.252426 0.468431 0.505675 0.247591
C4    C     C_R   0.100962 0.461702 0.493114 -0.047615
C5    C     C_R   0.125245 0.349471 0.483110 -0.020424
C6    C     C_R   0.098738 0.235988 0.469428 -0.134674
C7    C     C_R   0.127965 0.576064 0.505962 -0.019429
C8    C     C_R   0.353200 0.490272 0.502074 -0.056327
C9    C     C_R   0.645998 0.477520 0.498762 -0.062493
C10   C     C_R   0.971858 0.340612 0.489664 0.046390
C11   C     C_R   0.974963 0.572294 0.487510 0.047632
C12   C     C_R   0.406042 0.498302 0.500433 0.841166
C13   C     C_R   0.948132 0.455442 0.488816 0.071876
C14   C     C_R   0.943367 0.226988 0.498720 -0.211840
C15   C     C_R   0.893278 0.226290 0.501872 -0.130740
C16   C     C_R   0.869683 0.338593 0.496468 -0.024146
C17   C     C_R   0.896952 0.453494 0.489719 -0.051195
C18   C     C_R   0.872915 0.566549 0.484255 -0.023432
C19   C     C_R   0.822423 0.562660 0.486182 0.511023
C20   C     C_R   0.819144 0.339094 0.498706 0.509188
C21   C     C_R   0.721046 0.454153 0.618844 -0.100017
C22   C     C_R   0.671347 0.466710 0.620425 -0.194568
C23   C     C_R   0.493105 0.737259 0.499367 0.921187
C24   C     C_R   0.670684 0.465913 0.375870 -0.190673
C25   C     C_R   0.720340 0.453394 0.374427 -0.099758
C26   C     C_R   0.745541 0.449778 0.495789 0.317474
C27   C     C_R   0.023036 0.343017 0.483213 0.047533
C28   C     C_R   0.049795 0.459605 0.490559 0.071401
C29   C     C_R   0.026004 0.574131 0.495899 0.046356
C30   C     C_R   0.048616 0.232559 0.469219 -0.209802
C31   C     C_R   0.104248 0.687605 0.515992 -0.131776
C32   C     C_R   0.949616 0.683786 0.477303 -0.212986
C33   C     C_R   0.899568 0.680698 0.476201 -0.132535
C34   C     C_R   0.593832 0.495124 0.499740 0.902118
C35   C     C_R   0.054258 0.686919 0.511420 -0.211047
C36   C     C_R   0.499326 0.101752 0.762651 -0.154439
C37   C     C_R   0.482158 0.035218 0.877099 -0.106690
C38   C     C_R   0.457263 0.920112 0.863587 -0.094755
C39   C     C_R   0.453986 0.865985 0.737175 -0.100461
C40   C     C_R   0.475029 0.928402 0.622404 0.118900
C41   C     C_R   0.491229 0.054091 0.631383 0.093374
C42   C     C_R   0.498798 0.123858 0.508077 -0.117285
C43   C     C_R   0.496163 0.063799 0.383806 -0.206437
C44   C     C_R   0.489095 0.936428 0.379809 -0.175278
C45   C     C_R   0.175796 0.353715 0.486855 0.573284
C46   C     C_R   0.482508 0.867799 0.499562 -0.146341
C47   C     C_R   0.435061 0.336451 0.143872 -0.161607
C48   C     C_R   0.402615 0.257321 0.075410 -0.197005
C49   C     C_R   0.402476 0.258129 0.935746 -0.166463
C50   C     C_R   0.434987 0.337531 0.863730 -0.161275
C51   C     C_R   0.467980 0.419772 0.929694 0.133901
C52   C     C_R   0.468013 0.419562 0.074191 0.154937
C53   C     C_R   0.530673 0.577759 0.069662 -0.074798
C54   C     C_R   0.530659 0.577850 0.926168 -0.075075
C55   C     C_R   0.178389 0.575930 0.509938 0.552987
C56   C     C_R   0.277576 0.472022 0.382978 -0.113592
C57   C     C_R   0.327626 0.482695 0.380882 -0.197428
C58   C     C_R   0.328085 0.486069 0.625530 -0.269784
H1    H     H_    0.348011 0.490486 0.719204 0.200321
H2    H     H_    0.258016 0.467879 0.288727 0.157239
H3    H     H_    0.124256 0.776420 0.528049 0.193449
H4    H     H_    0.967321 0.775546 0.467234 0.138501
H5    H     H_    0.651817 0.466008 0.280904 0.217027
H6    H     H_    0.881833 0.768710 0.469122 0.190504
H7    H     H_    0.739404 0.448485 0.279217 0.145630
H8    H     H_    0.038906 0.776609 0.523867 0.140285
H9    H     H_    0.500817 0.114556 0.288563 0.178343
H10   H     H_    0.520425 0.187056 0.781110 0.178467
H11   H     H_    0.487673 0.073966 0.976263 0.146982
H12   H     H_    0.442421 0.870265 0.951657 0.138775
H13   H     H_    0.435431 0.774768 0.729914 0.147829
H14   H     H_    0.490454 0.891778 0.283141 0.216948
H15   H     H_    0.433269 0.329632 0.251050 0.204525
H16   H     H_    0.377602 0.194508 0.131244 0.164465
H17   H     H_    0.377507 0.195604 0.882714 0.164779
H18   H     H_    0.433812 0.330622 0.756750 0.206266
H19   H     H_    0.116648 0.148764 0.459182 0.189580
H20   H     H_    0.652978 0.467474 0.716612 0.216632
H21   H     H_    0.740673 0.449859 0.712855 0.145695
H22   H     H_    0.873087 0.136858 0.508954 0.193069
H23   H     H_    0.958593 0.136401 0.506902 0.139422
H24   H     H_    0.031045 0.141592 0.455234 0.138686
H25   H     H_    0.346203 0.485029 0.284422 0.177992
N1    N     N_R   0.200980 0.465677 0.501654 -0.338153
N2    N     N_R   0.796887 0.450136 0.493710 -0.359883
N3    N     N_R   0.499540 0.498800 0.142780 -0.167454
N4    N     N_R   0.499520 0.498720 0.857170 -0.172575
O1    O     O_R   0.500000 0.316780 0.614690 -0.658914
O2    O     O_2   0.792408 0.230002 0.505687 -0.540970
O3    O     O_2   0.204784 0.684771 0.522223 -0.550924
O4    O     O_2   0.798869 0.670284 0.480920 -0.541145
O5    O     O_R   0.500000 0.316750 0.385360 -0.640529
O6    O     O_R   0.428760 0.500030 0.614650 -0.654094
O7    O     O_R   0.428750 0.500010 0.385320 -0.644719
O8    O     O_R   0.500000 0.683250 0.614640 -0.600656
O9    O     O_R   0.500000 0.683220 0.385310 -0.596261
O10   O     O_R   0.571250 0.499990 0.614680 -0.605962
O11   O     O_R   0.571240 0.499970 0.385350 -0.603777
O12   O     O_2   0.199682 0.247160 0.477117 -0.549203
Zn1   Zn    Zn3+2 0.500000 0.500020 0.653130 0.951023
Zn2   Zn    Zn3+2 0.500000 0.499980 0.346870 0.964730
C59   C     C_2   0.252175 0.469388 0.762769 0.935743
O13   O     O_2   0.274586 0.495552 0.865307 -0.634274
O14   O     O_R   0.203068 0.433125 0.772758 -0.803125
H26   H     H_    0.190462 0.433334 0.868904 0.350637
C60   C     C_2   0.564502 0.665252 0.138924 1.000292
O15   O     O_2   0.551778 0.768905 0.168628 -0.644722
O16   O     O_R   0.612503 0.634889 0.155787 -0.801718
H27   H     H_    0.632722 0.704068 0.200244 0.347893
C61   C     C_2   0.564687 0.665369 0.852626 1.003040
O17   O     O_2   0.552270 0.769528 0.819439 -0.611238
O18   O     O_R   0.612611 0.634342 0.835752 -0.804283
H28   H     H_    0.633011 0.703447 0.788290 0.346629

loop_
_geom_bond_atom_site_label_1
_geom_bond_atom_site_label_2
_ccdc_geom_bond_type
C10   C27   A    
C21   C26   A    
C38   H12   S    
C37   H11   S    
C41   C42   A    
C31   H3    S    
C7    C55   A    
C53   C54   A    
C23   O9    A    
C40   C46   A    
C28   C29   A    
C55   O3    S    
C33   H6    S    
C38   C39   A    
C9    C22   A    
C60   O15   D    
C2    C59   S    
C15   C16   A    
C34   O10   A    
O16   H27   S    
C54   C61   S    
C18   C19   A    
C61   O17   D    
O18   H28   S    
C8    C58   A    
C53   C60   S    
C15   H22   S    
O7    Zn2   S    
C16   C17   A    
C49   H17   S    
C53   N3    A    
C8    C12   S    
C1    O1    A    
C23   C46   S    
C21   C22   A    
C27   C30   A    
C12   O7    A    
C36   C41   A    
C59   O13   D    
C4    C7    A    
O14   H26   S    
C4    C28   A    
C44   C46   A    
C17   C18   A    
C7    C31   A    
C51   C52   A    
C48   H16   S    
C25   H7    S    
C24   C25   A    
C47   H15   S    
C45   O12   S    
C51   N4    A    
C39   C40   A    
O8    Zn1   S    
C6    H19   S    
C35   H8    S    
C58   H1    S    
C5    C45   A    
C56   H2    S    
C30   H24   S    
C43   C44   A    
C37   C38   A    
C50   H18   S    
C8    C57   A    
C3    C56   A    
C47   C48   A    
C16   C20   A    
C20   N2    A    
C21   H21   S    
C57   H25   S    
C50   C51   A    
C59   O14   S    
O6    Zn1   S    
C22   H20   S    
O1    Zn1   S    
O5    Zn2   S    
C54   N4    A    
C43   H9    S    
C48   C49   A    
C6    C30   A    
C11   C32   A    
C1    O5    A    
C10   C14   A    
C9    C34   S    
C31   C35   A    
C12   O6    A    
C45   N1    A    
C56   C57   A    
C3    N1    S    
O10   Zn1   S    
N4    Zn1   S    
C40   C41   A    
C4    C5    A    
C19   N2    A    
C10   C13   A    
C36   H10   S    
C9    C24   A    
C47   C52   A    
C24   H5    S    
O11   Zn2   S    
C20   O2    S    
C29   C35   A    
C13   C17   A    
C32   C33   A    
C52   N3    A    
C2    C3    A    
C25   C26   A    
C32   H4    S    
C11   C13   A    
C5    C6    A    
C60   O16   S    
C26   N2    S    
C34   O11   A    
C23   O8    A    
C44   H14   S    
C2    C58   A    
C18   C33   A    
C61   O18   S    
C19   O4    S    
C1    C42   S    
C11   C29   A    
C36   C37   A    
C49   C50   A    
C42   C43   A    
C27   C28   A    
C39   H13   S    
C14   C15   A    
C14   H23   S    
C55   N1    A    
O9    Zn2   S    
N3    Zn2   S    
