data_mof_unit_32770.cif
_audit_creation_date              2012-12-10T18:13:36-0500
_audit_creation_method            fapswitch 2.2
_symmetry_space_group_name_H-M    P1
_symmetry_Int_Tables_number       1
_space_group_crystal_system       triclinic
_cell_length_a                    12.57138
_cell_length_b                    13.126669
_cell_length_c                    16.972012
_cell_angle_alpha                 90.971103
_cell_angle_beta                  98.265055
_cell_angle_gamma                 97.986158
_cell_volume                      2742.80918575

loop_
_atom_site_label
_atom_site_type_symbol
_atom_type_description
_atom_site_fract_x
_atom_site_fract_y
_atom_site_fract_z
_atom_type_partial_charge
C1    C     C_R   0.560446 0.691493 0.512979 0.856449
C2    C     C_R   0.489443 0.532003 0.734415 -0.187454
C3    C     C_R   0.281198 0.052270 0.533158 -0.212511
C4    C     C_R   0.512288 0.494763 0.349630 0.863451
C5    C     C_R   0.401718 0.196216 0.492648 -0.078883
C6    C     C_R   0.706007 0.839650 0.515575 -0.212450
C7    C     C_R   0.739427 0.945604 0.516355 0.263629
C8    C     C_R   0.663603 0.012651 0.522547 -0.202637
C9    C     C_R   0.555311 0.974409 0.532309 0.052234
C10   C     C_R   0.529439 0.869291 0.546600 0.076118
C11   C     C_R   0.470604 0.035764 0.526090 0.091402
C12   C     C_R   0.612134 0.472281 0.236225 -0.200500
C13   C     C_R   0.367742 0.995344 0.545795 0.127777
C14   C     C_R   0.351654 0.897080 0.575505 -0.234553
C15   C     C_R   0.432192 0.834817 0.576714 -0.188549
C16   C     C_R   0.438901 0.307579 0.490351 0.869699
C17   C     C_R   0.483847 0.134255 0.496767 -0.302496
C18   C     C_R   0.295617 0.151392 0.503673 0.192133
C19   C     C_R   0.600085 0.801168 0.527974 -0.177058
C20   C     C_R   0.904006 0.364712 0.623378 0.419924
C21   C     C_R   0.209023 0.625506 0.403808 0.016550
C22   C     C_R   0.106606 0.654385 0.385010 -0.259595
C23   C     C_R   0.586218 0.585081 0.866478 0.127298
C24   C     C_R   0.022266 0.608969 0.423209 -0.205548
C25   C     C_R   0.040469 0.533921 0.480613 0.056268
C26   C     C_R   0.146555 0.508204 0.498086 0.240020
C27   C     C_R   0.958121 0.483215 0.520919 -0.061392
C28   C     C_R   0.488693 0.507939 0.650318 0.878239
C29   C     C_R   0.984679 0.413307 0.581538 0.052914
C30   C     C_R   0.090450 0.391261 0.598132 -0.288455
C31   C     C_R   0.168970 0.435682 0.555212 -0.236612
C32   C     C_R   0.849384 0.497659 0.502569 -0.109200
C33   C     C_R   0.797471 0.380196 0.599894 -0.071321
C34   C     C_R   0.587619 0.568467 0.784884 0.436613
C35   C     C_R   0.514880 0.483948 0.264702 -0.033743
C36   C     C_R   0.418822 0.483789 0.211302 -0.210854
C37   C     C_R   0.421153 0.478108 0.130275 -0.159097
C38   C     C_R   0.519688 0.473486 0.102058 0.198167
C39   C     C_R   0.614273 0.466573 0.154741 -0.173608
C40   C     C_3   0.195068 0.201387 0.483158 -0.898900
C41   C     C_3   0.853868 0.987892 0.506532 -0.931763
C42   C     C_3   0.702776 0.681007 0.725301 0.136843
C43   C     C_3   0.809558 0.694865 0.691813 -0.792172
C44   C     C_3   0.963443 0.354544 0.756488 0.072066
C45   C     C_R   0.390150 0.525165 0.763524 -0.282349
C46   C     C_3   0.868172 0.372154 0.799119 -0.850284
C47   C     C_3   0.692599 0.616564 0.921068 -0.877615
C48   C     C_R   0.388214 0.544858 0.843437 -0.217964
C49   C     C_R   0.485395 0.569370 0.895281 0.121155
C50   C     C_2   0.526670 0.486220 0.018331 -0.241186
C51   C     C_2   0.479172 0.559397 0.979337 -0.213103
H1    H     H_    0.342191 0.489842 0.231878 0.159150
H2    H     H_    0.112354 0.336553 0.642567 0.182249
H3    H     H_    0.821264 0.548717 0.457778 0.143699
H4    H     H_    0.275236 0.660643 0.374653 0.143213
H5    H     H_    0.944708 0.634990 0.407221 0.135164
H6    H     H_    0.092684 0.711954 0.341242 0.151521
H7    H     H_    0.246131 0.409636 0.566669 0.223919
H8    H     H_    0.313962 0.500812 0.725029 0.184138
H9    H     H_    0.428467 0.605631 0.007122 0.152459
H10   H     H_    0.690471 0.462303 0.132904 0.129482
H11   H     H_    0.686825 0.470522 0.276602 0.156463
H12   H     H_    0.311091 0.533203 0.865891 0.149884
H13   H     H_    0.577527 0.440879 0.989746 0.170020
H14   H     H_    0.346836 0.480572 0.089606 0.128848
H15   H     H_    0.205297 0.266280 0.443045 0.266299
H16   H     H_    0.129059 0.144564 0.450436 0.235332
H17   H     H_    0.167816 0.225370 0.538833 0.244812
H18   H     H_    0.904250 0.925527 0.501792 0.233598
H19   H     H_    0.853538 0.032905 0.451712 0.243465
H20   H     H_    0.891642 0.039153 0.558735 0.257990
H21   H     H_    0.707156 0.741864 0.772531 0.122143
H22   H     H_    0.636427 0.691974 0.676783 0.121111
H23   H     H_    0.275238 0.866755 0.594673 0.148805
H24   H     H_    0.806832 0.636528 0.643163 0.268208
H25   H     H_    0.824152 0.772917 0.667819 0.207246
H26   H     H_    0.877565 0.685760 0.739519 0.241364
H27   H     H_    0.014673 0.429531 0.749667 0.129018
H28   H     H_    0.015751 0.308371 0.795277 0.170424
H29   H     H_    0.815601 0.297965 0.804222 0.263149
H30   H     H_    0.899169 0.406174 0.859811 0.213432
H31   H     H_    0.819369 0.426190 0.765996 0.280729
H32   H     H_    0.737588 0.687091 0.900098 0.238082
H33   H     H_    0.681520 0.634638 0.983124 0.242103
H34   H     H_    0.201365 0.018546 0.544748 0.147056
H35   H     H_    0.743308 0.553661 0.921605 0.249017
H36   H     H_    0.559145 0.165326 0.477183 0.167605
H37   H     H_    0.761874 0.787326 0.503789 0.158868
H38   H     H_    0.691979 0.093998 0.521240 0.147651
H39   H     H_    0.416860 0.759014 0.600339 0.168456
H40   H     H_    0.733057 0.342240 0.629549 0.165770
N1    N     N_R   0.774070 0.445420 0.541180 -0.134371
N2    N     N_R   0.226730 0.554050 0.459240 -0.135042
O1    O     O_R   0.631480 0.627510 0.519670 -0.618365
O2    O     O_3   0.926906 0.297775 0.683594 -0.629856
O3    O     O_R   0.455770 0.662400 0.493360 -0.611742
O4    O     O_R   0.598240 0.480510 0.398910 -0.619067
O5    O     O_R   0.422540 0.515400 0.372600 -0.623520
O6    O     O_R   0.544230 0.337600 0.506640 -0.613223
O7    O     O_R   0.368520 0.372490 0.480330 -0.630628
O8    O     O_R   0.577460 0.484600 0.627400 -0.565825
O9    O     O_R   0.401760 0.519490 0.601090 -0.651584
O10   O     O_3   0.686011 0.581623 0.756031 -0.607854
Zn1   Zn    Zn3+2 0.617320 0.476700 0.517570 0.943173
Zn2   Zn    Zn3+2 0.382680 0.523300 0.482430 0.918866

loop_
_geom_bond_atom_site_label_1
_geom_bond_atom_site_label_2
_ccdc_geom_bond_type
C8    C9    A    
O3    Zn2   S    
C4    O5    A    
C27   C29   A    
C50   H13   S    
C35   C36   A    
C42   O10   S    
C22   H6    S    
C7    C8    A    
C32   N1    A    
C6    C19   A    
O7    Zn2   S    
C29   C30   A    
O5    Zn2   S    
O9    Zn2   S    
C43   H26   S    
C14   H23   S    
C31   H7    S    
C21   C22   A    
C36   C37   A    
C10   C15   A    
C33   H40   S    
C30   C31   A    
C23   C49   A    
C3    H34   S    
C6    H37   S    
C3    C18   A    
C18   C40   S    
C5    C16   S    
N2    Zn2   S    
C46   H31   S    
C28   O8    A    
C11   C17   A    
C1    O1    A    
C49   C51   S    
C40   H16   S    
C37   H14   S    
C47   H32   S    
C9    C10   A    
C3    C13   A    
C41   H20   S    
C2    C34   A    
C26   N2    A    
O6    Zn1   S    
C4    C35   S    
O1    Zn1   S    
C26   C31   A    
C40   H15   S    
C13   C14   A    
C32   H3    S    
C44   C46   S    
C20   C29   A    
C2    C45   A    
C43   H24   S    
C39   H10   S    
C30   H2    S    
C1    C19   S    
C23   C47   S    
C47   H35   S    
C24   C25   A    
C33   N1    A    
C21   H4    S    
C16   O7    A    
C48   H12   S    
C5    C18   A    
C25   C26   A    
C37   C38   A    
C46   H30   S    
C12   H11   S    
C10   C19   A    
C23   C34   A    
C42   H21   S    
C50   C51   D    
C47   H33   S    
C12   C35   A    
C9    C11   A    
C20   C33   A    
C48   C49   A    
C20   O2    S    
O8    Zn1   S    
C22   C24   A    
C25   C27   A    
C42   C43   S    
C41   H18   S    
C45   C48   A    
C43   H25   S    
C45   H8    S    
C42   H22   S    
C27   C32   A    
C17   H36   S    
C8    H38   S    
C44   H28   S    
C36   H1    S    
C16   O6    A    
C6    C7    A    
C38   C50   S    
C24   H5    S    
C34   O10   S    
C12   C39   A    
C44   H27   S    
C44   O2    S    
C15   H39   S    
C46   H29   S    
C11   C13   A    
C38   C39   A    
C21   N2    A    
C1    O3    A    
C7    C41   S    
O4    Zn1   S    
N1    Zn1   S    
C28   O9    A    
C5    C17   A    
C40   H17   S    
C14   C15   A    
C2    C28   S    
C51   H9    S    
C4    O4    A    
C41   H19   S    
