data_mof_unit_19029.cif
_audit_creation_date              2013-03-05T16:17:51-0500
_audit_creation_method            fapswitch 2.2
_symmetry_space_group_name_H-M    P1
_symmetry_Int_Tables_number       1
_space_group_crystal_system       triclinic
_cell_length_a                    8.23065
_cell_length_b                    22.934726
_cell_length_c                    27.061704
_cell_angle_alpha                 96.583558
_cell_angle_beta                  92.159226
_cell_angle_gamma                 89.729132
_cell_volume                      5071.08601924

loop_
_atom_site_label
_atom_site_type_symbol
_atom_site_description
_atom_site_fract_x
_atom_site_fract_y
_atom_site_fract_z
_atom_type_partial_charge
P1    P     P_3+3 0.092730 0.547450 0.611370 0.494214
O1    O     O_2   0.919820 0.530450 0.618560 -0.358116
O2    O     O_3   0.151800 0.530410 0.558380 -0.406576
O3    O     O_3   0.654050 0.426350 0.586890 -0.398513
O4    O     O_2   0.830003 0.453193 0.669654 -0.352736
O5    O     O_3   0.089780 0.623446 0.628464 -0.548095
O6    O     O_3   0.639789 0.365138 0.672422 -0.475367
C1    C     C_3   0.584784 0.263796 0.649005 -0.932801
H1    H     H_    0.711839 0.246088 0.650858 0.274666
H2    H     H_    0.531767 0.265310 0.686589 0.275333
P2    P     P_3+3 0.606840 0.368620 0.459370 0.509059
P3    P     P_3+3 0.061926 0.320690 0.560568 0.476097
O7    O     O_2   0.782760 0.360070 0.473730 -0.379839
O8    O     O_3   0.056430 0.397060 0.562000 -0.367622
O9    O     O_2   0.917173 0.295115 0.527420 -0.364763
O10   O     O_3   0.596024 0.353127 0.394545 -0.523135
O11   O     O_3   0.015750 0.303438 0.619683 -0.502411
C2    C     C_3   0.144605 0.321579 0.653193 0.356726
H3    H     H_    0.188127 0.366634 0.648772 0.084056
H4    H     H_    0.245855 0.289545 0.647827 0.074319
C3    C     C_3   0.086357 0.322100 0.705947 -0.810738
H5    H     H_    0.992635 0.356740 0.713221 0.286784
H6    H     H_    0.033259 0.278753 0.710860 0.253580
C4    C     C_3   0.124659 0.342762 0.408590 0.145677
H7    H     H_    0.257605 0.336882 0.414224 0.119394
H8    H     H_    0.072536 0.362187 0.444000 0.127027
C5    C     C_3   0.043631 0.283289 0.392166 -0.047104
H9    H     H_    0.065714 0.269592 0.352199 0.186005
H10   H     H_    0.910002 0.287830 0.395848 0.170643
Ba1   Ba    Ba6+2 0.848110 0.472730 0.522970 1.583978
C6    C     C_3   0.067373 0.654809 0.587372 0.383511
H11   H     H_    0.935495 0.658290 0.578501 0.082981
H12   H     H_    0.128767 0.634555 0.553956 0.132423
C7    C     C_3   0.137922 0.716010 0.602034 -0.905784
H13   H     H_    0.070626 0.738812 0.633390 0.264667
H14   H     H_    0.130233 0.742857 0.570597 0.211697
H15   H     H_    0.267931 0.712619 0.613880 0.272120
C8    C     C_3   0.655594 0.400582 0.372493 0.233766
H16   H     H_    0.787378 0.405043 0.380756 0.077132
H17   H     H_    0.593349 0.442044 0.385962 0.117334
C9    C     C_3   0.623958 0.389344 0.316259 -0.096191
H18   H     H_    0.657110 0.428974 0.299057 0.095058
H19   H     H_    0.492055 0.380847 0.308115 0.164181
P4    P     P_3+3 0.096970 0.452510 0.388620 0.502137
O12   O     O_2   0.269870 0.469530 0.381410 -0.344898
O13   O     O_3   0.037890 0.469550 0.441610 -0.402387
O14   O     O_3   0.535640 0.573600 0.413100 -0.353909
O15   O     O_3   0.097948 0.376946 0.369400 -0.550606
P5    P     P_3+3 0.132294 0.679688 0.443659 0.497287
O16   O     O_3   0.647280 0.568810 0.525990 -0.387821
O17   O     O_3   0.133260 0.602900 0.438000 -0.388415
O18   O     O_2   0.304426 0.700348 0.462167 -0.385024
O19   O     O_3   0.116990 0.703748 0.384781 -0.475438
Ba2   Ba    Ba6+2 0.341700 0.527220 0.477020 1.570643
P6    P     P_3+3 0.655173 0.434596 0.651887 0.536319
C10   C     C_3   0.587348 0.324736 0.632162 0.478464
H20   H     H_    0.463257 0.336609 0.619088 -0.026606
H21   H     H_    0.509856 0.234113 0.621726 0.245661
O20   O     O_3   0.542410 0.431140 0.474010 -0.391018
C11   C     C_3   0.552466 0.619979 0.629471 0.378892
H22   H     H_    0.422887 0.610510 0.618713 0.093735
H23   H     H_    0.626396 0.579461 0.622010 0.116695
C12   C     C_3   0.565242 0.640426 0.685036 -0.881051
H24   H     H_    0.491704 0.681327 0.693385 0.265696
H25   H     H_    0.517874 0.606097 0.707216 0.216824
H26   H     H_    0.695887 0.649370 0.696421 0.272552
P7    P     P_3+3 0.593956 0.642770 0.539682 0.457765
O21   O     O_2   0.406930 0.639920 0.526240 -0.372854
O22   O     O_3   0.611638 0.664724 0.603725 -0.552770
H27   H     H_    0.190034 0.331153 0.733174 0.242598
C13   C     C_3   0.035066 0.661355 0.351889 0.307228
H28   H     H_    0.100269 0.618754 0.349995 0.099159
H29   H     H_    0.909431 0.656980 0.364289 -0.021534
C14   C     C_3   0.029950 0.679488 0.299248 -0.140697
H30   H     H_    0.149516 0.670301 0.282201 0.144855
H31   H     H_    0.936798 0.652646 0.276481 0.130800
P8    P     P_3+3 0.543403 0.570428 0.348348 0.456494
C15   C     C_3   0.559160 0.681122 0.345443 0.345307
H32   H     H_    0.668548 0.676060 0.322605 0.082901
O23   O     O_2   0.433723 0.519647 0.324650 -0.408012
O24   O     O_3   0.450697 0.634351 0.331059 -0.500304
H33   H     H_    0.595764 0.683279 0.385717 0.089580
H34   H     H_    0.570640 0.774854 0.343372 0.232290
C16   C     C_3   0.479133 0.739175 0.336715 -0.714095
H35   H     H_    0.380178 0.749310 0.362854 0.283340
H36   H     H_    0.428660 0.737655 0.297982 0.263704
C17   C     C_R   0.054725 0.466419 0.182416 0.563563
O25   O     O_2   0.101180 0.426677 0.206227 -0.552304
N1    N     N_R   0.957582 0.511507 0.204473 -0.163558
C18   C     C_R   0.904155 0.555252 0.175824 0.507593
C19   C     C_2   0.770588 0.536858 0.273267 -0.180092
C20   C     C_3   0.755606 0.558714 0.327654 0.077938
C21   C     C_1   0.985590 0.494703 0.343949 0.291205
C22   C     C_2   0.032196 0.495669 0.297181 -0.175860
C23   C     C_2   0.915253 0.514306 0.257356 0.094804
C24   C     C_R   0.033811 0.506993 0.102301 -0.068095
C25   C     C_R   0.099043 0.465105 0.131972 -0.078460
C26   C     C_R   0.206698 0.422528 0.110502 -0.057685
C27   C     C_R   0.933507 0.551648 0.124464 -0.041989
C28   C     C_2   0.855266 0.523122 0.361010 -0.477867
H37   H     H_    0.157325 0.484874 0.288352 0.199716
H38   H     H_    0.263015 0.390511 0.132551 0.176976
C29   C     C_2   0.353462 0.486557 0.640598 -0.518921
C30   C     C_R   0.207598 0.457068 0.977045 0.041697
C31   C     C_R   0.033468 0.544132 0.969487 0.038022
C32   C     C_R   0.137031 0.499251 0.947636 0.090345
C33   C     C_R   0.306766 0.412644 0.952922 -0.193702
C34   C     C_R   0.332327 0.409087 0.902002 -0.056661
C35   C     C_R   0.265199 0.450715 0.872791 -0.066722
C36   C     C_R   0.170441 0.496556 0.895766 -0.063043
C37   C     C_R   0.108867 0.539691 0.866749 -0.070299
C38   C     C_R   0.152818 0.538784 0.816556 0.595694
N2    N     N_R   0.244740 0.493107 0.794045 -0.156574
C39   C     C_R   0.292996 0.447701 0.821168 0.604915
C40   C     C_2   0.453090 0.486306 0.730111 0.301300
C41   C     C_3   0.500085 0.489521 0.676381 0.024906
C42   C     C_1   0.214129 0.508809 0.656179 0.315140
C43   C     C_2   0.170444 0.505244 0.702439 -0.208581
C44   C     C_2   0.294193 0.493778 0.742662 -0.027426
O26   O     O_2   0.360313 0.404593 0.800296 -0.571139
C45   C     C_R   0.175631 0.460255 0.029001 0.040151
C46   C     C_R   0.069487 0.504533 0.050588 0.085813
C47   C     C_R   0.998357 0.546466 0.021058 0.043750
C48   C     C_R   0.245642 0.420517 0.060537 -0.191545
H39   H     H_    0.408435 0.373816 0.885647 0.172137
H40   H     H_    0.365792 0.379111 0.972216 0.131729
O27   O     O_2   0.833101 0.598436 0.195070 -0.606420
C49   C     C_R   0.864488 0.592539 0.094985 -0.065865
H41   H     H_    0.673975 0.547333 0.247359 0.188877
H42   H     H_    0.784292 0.626945 0.110778 0.177692
C50   C     C_R   0.968366 0.585352 0.938577 -0.186259
C51   C     C_R   0.006853 0.583479 0.888738 -0.024124
O28   O     O_2   0.111845 0.579308 0.793179 -0.579447
C52   C     C_R   0.894160 0.589649 0.044548 -0.198377
H43   H     H_    0.887741 0.620458 0.951643 0.131558
H44   H     H_    0.954505 0.616615 0.867173 0.173855
H45   H     H_    0.046508 0.515443 0.712539 0.212833
H46   H     H_    0.832658 0.622443 0.025163 0.133964
H47   H     H_    0.374822 0.479746 0.600836 0.190568
H48   H     H_    0.809336 0.071719 0.405404 0.191960
H49   H     H_    0.896525 0.970120 0.402494 0.186575
C53   C     C_R   0.353903 0.334007 0.515756 -0.513852
C54   C     C_R   0.582702 0.938095 0.535310 -0.042898
C55   C     C_R   0.632907 0.878981 0.532898 0.519435
O29   O     O_2   0.588288 0.849181 0.564738 -0.583937
N3    N     N_R   0.734249 0.854859 0.495624 -0.170469
C56   C     C_R   0.792500 0.890011 0.461426 0.528991
O30   O     O_2   0.879355 0.868865 0.427953 -0.545505
C57   C     C_R   0.750093 0.950028 0.464169 -0.065370
C58   C     C_R   0.642849 0.973876 0.500965 -0.013519
C59   C     C_R   0.473513 0.962270 0.571388 -0.118931
C60   C     C_R   0.428778 0.021282 0.574164 -0.108222
C61   C     C_R   0.490642 0.057858 0.540678 -0.025482
C62   C     C_R   0.595104 0.033755 0.503370 -0.023329
C63   C     C_R   0.810769 0.986669 0.430560 -0.095212
C64   C     C_R   0.760692 0.045175 0.432273 -0.059973
C65   C     C_R   0.650613 0.069149 0.468200 -0.085122
C66   C     C_R   0.592691 0.127374 0.469053 0.599307
N4    N     N_R   0.498433 0.152802 0.507891 -0.166673
C67   C     C_R   0.451102 0.118063 0.544105 0.508299
C68   C     C_2   0.932386 0.773637 0.485316 -0.141573
C69   C     C_3   0.974347 0.709322 0.487047 0.121082
C70   C     C_1   0.693454 0.692261 0.502123 0.291102
C71   C     C_2   0.649129 0.747357 0.498818 -0.179464
C72   C     C_2   0.776584 0.792535 0.492318 0.110532
C73   C     C_R   0.295333 0.233802 0.529111 -0.109641
C74   C     C_R   0.253405 0.293376 0.534037 0.165151
C75   C     C_R   0.497329 0.316239 0.493220 0.290460
C76   C     C_R   0.549134 0.257861 0.493291 -0.165574
C77   C     C_R   0.448371 0.214818 0.510512 0.124067
O31   O     O_2   0.622991 0.154645 0.434224 -0.526336
O32   O     O_2   0.375530 0.139476 0.580048 -0.616718
C78   C     C_2   0.825101 0.670997 0.480607 -0.464874
H50   H     H_    0.344062 0.038057 0.602466 0.172660
H51   H     H_    0.206353 0.202825 0.538862 0.192658
H52   H     H_    0.422160 0.935610 0.597748 0.171857
H53   H     H_    0.522609 0.760593 0.502806 0.187383
H54   H     H_    0.667208 0.246614 0.479090 0.214027
H55   H     H_    0.316366 0.379375 0.516807 0.181506
H56   H     H_    0.837538 0.623891 0.470041 0.163528
H57   H     H_    0.672009 0.323209 0.600789 0.142534
N5    N     N_R   0.105985 0.237696 0.420967 0.232844
O33   O     O_R   0.252555 0.217804 0.414103 -0.368425
O34   O     O_R   0.006491 0.208734 0.445343 -0.369955
N6    N     N_R   0.717877 0.339232 0.294693 0.271232
O35   O     O_R   0.696035 0.287696 0.308918 -0.311961
O36   O     O_R   0.802755 0.343790 0.255498 -0.330373
N7    N     N_R   0.991927 0.741777 0.299318 0.298158
O37   O     O_R   0.103697 0.780905 0.313047 -0.312947
O38   O     O_R   0.854842 0.758053 0.279540 -0.355883
N8    N     N_R   0.580339 0.485596 0.768099 0.246714
O39   O     O_R   0.671700 0.439186 0.769944 -0.319765
O40   O     O_R   0.599394 0.529853 0.802568 -0.415681
H58   H     H_    0.331775 0.386908 0.047882 0.133434
H59   H     H_    0.837839 0.531486 0.400643 0.175600
H60   H     H_    0.030535 0.804743 0.483579 0.164717

loop_
_geom_bond_atom_site_label_1
_geom_bond_atom_site_label_2
_geom_bond_distance
_ccdc_geom_bond_type
P4    O15   1.751424 S    
C17   O25   1.226792 D    
C12   H25   1.122959 S    
P8    C20   1.863078 S    
C21   C22   1.338838 D    
N4    C77   1.473546 S    
C5    H10   1.111420 S    
C2    C3    1.521722 S    
C76   C77   1.421917 A    
C18   C27   1.412713 A    
C70   C71   1.325494 D    
C4    C5    1.532997 S    
O6    P6    1.752907 S    
C38   O28   1.222108 D    
C1    C10   1.519441 S    
P3    C74   1.834257 S    
C30   C32   1.429388 A    
C68   C69   1.518884 S    
N6    O35   1.299654 A    
C31   C50   1.422431 A    
C69   C78   1.506946 S    
C34   C35   1.405983 A    
C26   C48   1.396900 A    
Ba1   Ba2   4.516358 S    
C73   H51   1.083143 S    
C65   C66   1.413799 A    
C14   H31   1.108295 S    
C11   C12   1.522772 S    
N7    O38   1.301999 A    
C64   C65   1.416865 A    
C56   C57   1.412792 A    
C16   H36   1.109717 S    
C7    H13   1.109608 S    
C50   H43   1.077497 S    
N4    C67   1.399184 Am   
C8    H16   1.102041 S    
O2    Ba2   2.741766 S    
C66   O31   1.223133 D    
C28   H59   1.082524 S    
Ba2   O21   2.813024 S    
P6    C41   1.874219 S    
N5    O34   1.301252 A    
C54   C55   1.410519 A    
C7    H15   1.110367 S    
C24   C27   1.406656 A    
C10   H20   1.111183 S    
C31   C47   1.430815 A    
C11   H23   1.111507 S    
P1    O1    1.502922 D    
C9    H18   1.107333 S    
C43   C44   1.506985 S    
C45   C48   1.423829 A    
P4    C21   1.847857 S    
C1    H21   1.114981 S    
C53   C74   1.393262 A    
N2    C44   1.465278 S    
C54   C58   1.412720 A    
C56   O30   1.229475 D    
C22   H37   1.087032 S    
C1    H1    1.121495 S    
P5    O17   1.750187 S    
P3    O11   1.747178 S    
C18   O27   1.222026 D    
C6    H12   1.106691 S    
C34   H39   1.084733 S    
C43   H45   1.083538 S    
O16   P7    1.751656 S    
C2    H4    1.110940 S    
C51   H44   1.087860 S    
C40   N8    1.441029 S    
C54   C59   1.416185 A    
O5    C6    1.398120 S    
Ba1   O16   2.743924 S    
C12   H26   1.120671 S    
N7    O37   1.302013 A    
C3    H5    1.111181 S    
Ba1   O20   2.911668 S    
C9    H19   1.113246 S    
C29   C42   1.317174 D    
O6    C10   1.403148 S    
O8    Ba1   2.706117 S    
P2    O20   1.540314 S    
C38   N2    1.386311 Am   
P4    O13   1.538758 S    
C25   C26   1.405988 A    
C14   N7    1.460803 S    
Ba2   O20   2.743341 S    
C14   H30   1.111599 S    
N3    C56   1.394430 Am   
C47   C52   1.417440 A    
N8    O39   1.304877 A    
C4    O15   1.399709 S    
O7    Ba1   2.812598 S    
C16   H35   1.105283 S    
P2    Ba1   3.384068 S    
C62   C65   1.409579 A    
C55   N3    1.396550 Am   
N1    C18   1.396238 Am   
C19   C20   1.508860 S    
C13   H29   1.107615 S    
C15   H32   1.109283 S    
C2    H3    1.116006 S    
C30   C45   1.433739 A    
C78   H56   1.090754 S    
C26   H38   1.089269 S    
C19   C23   1.361021 D    
C15   C16   1.521323 S    
O3    Ba1   2.705735 S    
C36   C37   1.412635 A    
C68   H60   1.086166 S    
C11   H22   1.110713 S    
P1    O2    1.538734 S    
C66   N4    1.401167 Am   
N1    C23   1.479821 S    
O2    Ba1   2.911387 S    
P7    O21   1.568278 D    
N8    O40   1.303210 A    
C49   C52   1.389696 A    
P2    O10   1.748515 S    
C15   H33   1.115398 S    
C53   H55   1.081529 S    
P3    O9    1.540654 D    
P8    O24   1.752209 S    
C59   C60   1.395360 A    
P5    O18   1.543056 D    
C24   C25   1.412597 A    
O13   Ba2   2.912128 S    
O11   C2    1.401947 S    
C67   O32   1.227745 D    
C6    C7    1.525573 S    
C9    N6    1.459752 S    
P1    C42   1.844147 S    
C4    H7    1.108841 S    
C21   C28   1.322976 D    
C45   C46   1.424700 A    
C35   C39   1.417939 A    
C8    C9    1.526737 S    
O14   Ba2   2.705123 S    
C75   C76   1.403407 A    
N3    C72   1.463178 S    
H48   C64   1.088738 S    
O12   Ba2   2.811005 S    
C73   C77   1.421921 A    
C40   C44   1.368625 D    
C3    H6    1.111666 S    
O3    P6    1.747049 S    
C58   C62   1.421608 A    
C29   H47   1.090233 S    
H34   C16   1.109546 S    
O14   P8    1.749015 S    
C33   C34   1.394881 A    
C50   C51   1.392842 A    
O19   C13   1.398126 S    
C76   H54   1.077832 S    
C5    H9    1.112617 S    
P4    O12   1.503076 D    
C20   C28   1.503587 S    
N2    C39   1.389374 Am   
C32   C36   1.434870 A    
P8    O23   1.541969 D    
C71   C72   1.506969 S    
C59   H52   1.089276 S    
P1    O5    1.751572 S    
C37   C38   1.416611 A    
O4    P6    1.546077 D    
C6    H11   1.107299 S    
H49   C63   1.091289 S    
C4    H8    1.109974 S    
C33   H40   1.081453 S    
P3    O8    1.747901 S    
C55   O29   1.227063 D    
C49   H42   1.086295 S    
C52   H46   1.078871 S    
C13   C14   1.528154 S    
C27   C49   1.403912 A    
C19   H41   1.084617 S    
C24   C46   1.435459 A    
C31   C32   1.423318 A    
C42   C43   1.326961 D    
Ba1   O13   2.741189 S    
C3    H27   1.110575 S    
O1    Ba1   2.810617 S    
O17   Ba2   2.706761 S    
C61   C67   1.410583 A    
P5    C69   1.858564 S    
C29   C41   1.515346 S    
C57   C63   1.412901 A    
C5    N5    1.454616 S    
C60   H50   1.091305 S    
C13   H28   1.109453 S    
O16   Ba2   2.910935 S    
C57   C58   1.416537 A    
C8    H17   1.108858 S    
P2    O7    1.502788 D    
C15   O24   1.409349 S    
C40   C41   1.528553 S    
C73   C74   1.400313 A    
C11   O22   1.403564 S    
P5    O19   1.744986 S    
P1    Ba1   3.382742 S    
C7    H14   1.105693 S    
C22   C23   1.514685 S    
C39   O26   1.222242 D    
N6    O36   1.306136 A    
C53   C75   1.387184 A    
C12   H24   1.119677 S    
P7    C70   1.824315 S    
P4    Ba2   3.383157 S    
P2    C75   1.849216 S    
C60   C61   1.413243 A    
C1    H2    1.118597 S    
C10   H57   1.115831 S    
C48   H58   1.080104 S    
C63   C64   1.398016 A    
C46   C47   1.428945 A    
C17   N1    1.396954 Am   
C37   C51   1.400095 A    
P7    O22   1.749292 S    
C61   C62   1.413174 A    
C35   C36   1.406793 A    
C30   C33   1.417807 A    
C68   C72   1.364697 D    
C71   H53   1.089109 S    
N5    O33   1.300080 A    
O10   C8    1.398942 S    
C17   C25   1.423181 A    
C70   C78   1.314670 D    
