data_mof_unit_36405.cif
_audit_creation_date              2012-12-10T17:07:15-0500
_audit_creation_method            fapswitch 2.2
_symmetry_space_group_name_H-M    P1
_symmetry_Int_Tables_number       1
_space_group_crystal_system       triclinic
_cell_length_a                    10.135676
_cell_length_b                    10.648072
_cell_length_c                    13.5957
_cell_angle_alpha                 90.270767
_cell_angle_beta                  83.359516
_cell_angle_gamma                 90.847208
_cell_volume                      1457.31160604

loop_
_atom_site_label
_atom_site_type_symbol
_atom_type_description
_atom_site_fract_x
_atom_site_fract_y
_atom_site_fract_z
_atom_type_partial_charge
C1    C     C_R   0.502898 0.736575 0.487798 0.910454
C2    C     C_R   0.499520 0.262484 0.501403 0.807252
C3    C     C_R   0.523585 0.499530 0.314745 0.881727
C4    C     C_1   0.541495 0.500896 0.211164 -0.181252
C5    C     C_2   0.560774 0.505667 0.017996 0.399724
C6    C     C_2   0.447140 0.531053 0.980923 0.398872
C7    C     C_1   0.449898 0.521737 0.875982 -0.091521
C8    C     C_1   0.554509 0.502809 0.123402 -0.097073
C9    C     C_3   0.232667 0.612453 0.995671 0.111418
C10   C     C_3   0.115057 0.644204 0.070944 -0.844491
C11   C     C_3   0.851141 0.581088 0.652511 0.239877
C12   C     C_1   0.460001 0.511723 0.788563 -0.192106
C13   C     C_3   0.967909 0.652289 0.688867 -1.011957
C14   C     C_3   0.786051 0.451425 0.004275 0.101765
C15   C     C_3   0.906162 0.428037 0.928890 -0.826253
C16   C     C_3   0.662078 0.140620 0.341225 -0.455044
C17   C     C_3   0.720739 0.052552 0.258854 -0.883711
C18   C     C_3   0.314638 0.085712 0.607976 0.105781
C19   C     C_3   0.251085 0.982535 0.675377 -0.851822
C20   C     C_3   0.742538 0.912253 0.492920 -0.426985
C21   C     C_3   0.722014 0.915697 0.606081 -0.784150
C22   C     C_3   0.390127 0.897558 0.388911 -0.440648
C23   C     C_2   0.593221 0.072824 0.432401 0.053282
C24   C     C_3   0.379568 0.816247 0.297121 -0.855159
C25   C     C_3   0.131704 0.317371 0.388517 -0.389243
C26   C     C_3   0.064229 0.202311 0.439706 -0.892292
C27   C     C_3   0.914539 0.496077 0.318421 -0.461217
C28   C     C_3   0.883632 0.632965 0.298276 -0.860182
C29   C     C_2   0.504703 0.128023 0.500948 0.221407
C30   C     C_2   0.615383 0.940168 0.447657 0.216369
C31   C     C_2   0.509364 0.861014 0.443109 0.011329
C32   C     C_2   0.079672 0.436140 0.439731 0.221969
C33   C     C_2   0.942139 0.476945 0.424280 0.281333
C34   C     C_R   0.476582 0.501495 0.685232 0.913247
H1    H     H_    0.108795 0.583730 0.521439 0.185172
H2    H     H_    0.932393 0.708151 0.755672 0.232994
H3    H     H_    0.044123 0.585883 0.708558 0.286217
H4    H     H_    0.764362 0.364180 0.048465 0.147481
H5    H     H_    0.811382 0.530015 0.053413 0.144656
H6    H     H_    0.934686 0.515544 0.887175 0.254298
H7    H     H_    0.991089 0.397949 0.967463 0.207660
H8    H     H_    0.882840 0.353126 0.876168 0.270148
H9    H     H_    0.801082 0.995456 0.284179 0.256296
H10   H     H_    0.642156 0.989503 0.235000 0.269968
H11   H     H_    0.763724 0.108969 0.194146 0.250428
H12   H     H_    0.196490 0.548252 0.939423 0.152194
H13   H     H_    0.588970 0.200854 0.309528 0.193975
H14   H     H_    0.743322 0.201829 0.363146 0.229196
H15   H     H_    0.262098 0.087040 0.540618 0.141566
H16   H     H_    0.302201 0.176817 0.648069 0.175561
H17   H     H_    0.299524 0.979207 0.744520 0.261357
H18   H     H_    0.143680 0.001272 0.694632 0.212399
H19   H     H_    0.262057 0.890120 0.637267 0.258002
H20   H     H_    0.695085 0.011813 0.632452 0.284758
H21   H     H_    0.642596 0.848873 0.636066 0.257955
H22   H     H_    0.815867 0.890451 0.635375 0.226974
H23   H     H_    0.272091 0.701271 0.959685 0.142318
H24   H     H_    0.788047 0.823363 0.465274 0.207144
H25   H     H_    0.818972 0.985128 0.468596 0.206490
H26   H     H_    0.477632 0.809283 0.251779 0.251079
H27   H     H_    0.341815 0.721055 0.318452 0.289418
H28   H     H_    0.308163 0.858536 0.251171 0.244597
H29   H     H_    0.296721 0.888082 0.439973 0.219998
H30   H     H_    0.394270 0.996107 0.362860 0.209616
H31   H     H_    0.074377 0.204681 0.520141 0.271463
H32   H     H_    0.956939 0.200135 0.430158 0.258617
H33   H     H_    0.110146 0.115489 0.406668 0.235922
H34   H     H_    0.147698 0.705811 0.129977 0.263103
H35   H     H_    0.113245 0.315367 0.309848 0.176317
H36   H     H_    0.239838 0.310597 0.385982 0.256199
H37   H     H_    0.798508 0.666448 0.349142 0.285132
H38   H     H_    0.971420 0.693747 0.307567 0.237452
H39   H     H_    0.859080 0.642367 0.221188 0.246170
H40   H     H_    0.003451 0.474284 0.266309 0.187097
H41   H     H_    0.836892 0.429637 0.298846 0.228075
H42   H     H_    0.038712 0.693473 0.033843 0.207896
H43   H     H_    0.070381 0.556529 0.104638 0.255030
H44   H     H_    0.793114 0.540305 0.719345 0.200685
H45   H     H_    0.788578 0.650158 0.618835 0.170818
H46   H     H_    0.012558 0.719013 0.631530 0.240002
N1    N     N_2   0.147970 0.498670 0.498970 -0.192881
N2    N     N_2   0.852310 0.498640 0.498940 0.052641
O1    O     O_R   0.386960 0.680940 0.500020 -0.617904
O2    O     O_3   0.895093 0.480847 0.588649 -0.558921
O3    O     O_3   0.676594 0.482510 0.953897 -0.633590
O4    O     O_3   0.450627 0.060122 0.583947 -0.629041
O5    O     O_R   0.613100 0.680900 0.499980 -0.659765
O6    O     O_R   0.370650 0.500000 0.640370 -0.602810
O7    O     O_R   0.596800 0.499960 0.640330 -0.614152
O8    O     O_R   0.386900 0.319100 0.500020 -0.647963
O9    O     O_R   0.613040 0.319060 0.499980 -0.601679
O10   O     O_R   0.403200 0.500040 0.359670 -0.622331
O11   O     O_R   0.629350 0.500000 0.359630 -0.627282
O12   O     O_3   0.331009 0.553879 0.044512 -0.627141
Zn1   Zn    Zn3+2 0.349000 0.500030 0.500020 0.917328
Zn2   Zn    Zn3+2 0.651000 0.499970 0.499980 0.944897

loop_
_geom_bond_atom_site_label_1
_geom_bond_atom_site_label_2
_ccdc_geom_bond_type
C1    O5    A    
C24   H27   S    
C4    C8    T    
C16   H14   S    
H1    N1    S    
O8    Zn1   S    
C20   C30   S    
C27   C33   S    
C32   N1    D    
C18   O4    S    
C2    C29   S    
C26   H33   S    
C23   C29   D    
C17   H11   S    
C30   C31   D    
N1    Zn1   S    
C1    C31   S    
C18   C19   S    
C2    O8    A    
O9    Zn2   S    
C10   H42   S    
C19   H18   S    
C22   H29   S    
C16   C17   S    
C6    O12   S    
C14   O3    S    
C27   H40   S    
C9    C10   S    
C13   H3    S    
C5    O3    S    
C16   C23   S    
C19   H19   S    
C25   C32   S    
C14   H5    S    
O6    Zn1   S    
C9    H12   S    
C21   H22   S    
C28   H38   S    
C27   H41   S    
C28   H39   S    
C16   H13   S    
C10   H43   S    
C7    C12   T    
N2    Zn2   S    
C22   C31   S    
C26   H32   S    
C23   C30   S    
C15   H7    S    
C13   H2    S    
C21   H21   S    
C13   H46   S    
C25   C26   S    
O10   Zn1   S    
C3    O10   A    
C17   H9    S    
C11   H44   S    
C14   H4    S    
C24   H26   S    
O1    Zn1   S    
O5    Zn2   S    
C3    O11   A    
C34   O6    A    
C20   H25   S    
C29   O4    S    
C11   H45   S    
O11   Zn2   S    
N2    O2    S    
C22   C24   S    
C28   H37   S    
C25   H35   S    
C12   C34   S    
C3    C4    S    
C18   H16   S    
C33   N2    D    
C24   H28   S    
C26   H31   S    
C15   H8    S    
C5    C8    S    
C6    C7    S    
C10   H34   S    
C11   O2    S    
C1    O1    A    
C21   H20   S    
C32   C33   S    
O7    Zn2   S    
C34   O7    A    
C11   C13   S    
C5    C6    D    
C9    H23   S    
C2    O9    A    
C15   H6    S    
C17   H10   S    
C22   H30   S    
C19   H17   S    
C20   C21   S    
C27   C28   S    
C14   C15   S    
C25   H36   S    
C20   H24   S    
C9    O12   S    
C18   H15   S    
