data_mof_unit_57844.cif
_audit_creation_date              2012-10-26T21:00:16-0400
_audit_creation_method            fapswitch 2.2
_symmetry_space_group_name_H-M    P1
_symmetry_Int_Tables_number       1
_space_group_crystal_system       triclinic
_cell_length_a                    19.312459
_cell_length_b                    8.713979
_cell_length_c                    7.505863
_cell_angle_alpha                 102.842091
_cell_angle_beta                  95.175801
_cell_angle_gamma                 93.580693
_cell_volume                      1222.09628336

loop_
_atom_site_label
_atom_site_type_symbol
_atom_type_description
_atom_site_fract_x
_atom_site_fract_y
_atom_site_fract_z
_atom_type_partial_charge
Br1   Br    Br    0.415204 0.929249 0.236405 -0.422984
Br2   Br    Br    0.584805 0.070782 0.763551 -0.433282
Br3   Br    Br    0.410957 0.304315 0.902552 -0.328288
Br4   Br    Br    0.588858 0.696116 0.097466 -0.332584
C1    C     C_R   0.497000 0.200286 0.454464 0.579767
C2    C     C_R   0.810497 0.471003 0.330272 0.221843
C3    C     C_R   0.147163 0.506614 0.498875 0.052922
C4    C     C_R   0.854432 0.504941 0.498135 0.032114
C5    C     C_R   0.175595 0.426597 0.341276 0.223730
C6    C     C_R   0.824244 0.537306 0.666029 0.222099
C7    C     C_R   0.248069 0.423508 0.344523 -0.113161
C8    C     C_R   0.751729 0.530987 0.664389 -0.117731
C9    C     C_R   0.292124 0.500967 0.501386 -0.054419
C10   C     C_R   0.708466 0.501581 0.498397 -0.063953
C11   C     C_R   0.931060 0.506065 0.498432 0.353494
C12   C     C_R   0.502994 0.799717 0.545537 0.579002
C13   C     C_R   0.071335 0.507174 0.499068 0.376644
C14   C     C_3   0.169457 0.831300 0.809604 -0.092837
C15   C     C_3   0.828729 0.279102 0.083748 -0.066828
C16   C     C_3   0.136842 0.403120 0.039761 -0.052727
C17   C     C_3   0.870188 0.731693 0.910275 -0.058466
C18   C     C_2   0.485355 0.033949 0.434969 0.136733
C19   C     C_2   0.514636 0.966057 0.565031 0.136768
C20   C     C_R   0.367750 0.499520 0.500676 0.546870
C21   C     C_R   0.632428 0.500497 0.499305 0.549592
C22   C     C_R   0.263695 0.580923 0.657242 -0.116520
C23   C     C_R   0.738240 0.473807 0.332204 -0.115588
C24   C     C_R   0.191533 0.587601 0.655479 0.209035
Cu1   Cu    Cu3+1 0.507710 0.517380 0.684380 1.167124
Cu2   Cu    Cu3+1 0.492290 0.482620 0.315620 1.168935
H1    H     H_    0.297400 0.641128 0.779307 0.177877
H2    H     H_    0.854939 0.255698 0.955998 0.178656
H3    H     H_    0.125541 0.529489 0.071793 0.190582
H4    H     H_    0.097053 0.338770 0.927978 0.178232
H5    H     H_    0.188661 0.390202 0.987151 0.132197
H6    H     H_    0.818717 0.771979 0.947098 0.118855
H7    H     H_    0.892105 0.800365 0.816593 0.105053
H8    H     H_    0.906255 0.756696 0.038891 0.179258
H9    H     H_    0.705562 0.452151 0.202548 0.180019
H10   H     H_    0.269867 0.356623 0.226200 0.165419
H11   H     H_    0.729603 0.551473 0.794402 0.179854
H12   H     H_    0.141059 0.853631 0.683170 0.126842
H13   H     H_    0.224912 0.879836 0.825071 0.145303
H14   H     H_    0.144891 0.895909 0.928975 0.169430
H15   H     H_    0.772509 0.238650 0.044928 0.130774
H16   H     H_    0.853004 0.209341 0.176678 0.108882
N1    N     N_R   0.040186 0.480497 0.645226 -0.208231
N2    N     N_R   0.962573 0.533602 0.352774 -0.163698
N3    N     N_R   0.971325 0.479440 0.644524 -0.171423
N4    N     N_R   0.031395 0.533694 0.352764 -0.201380
N5    N     N_2   0.480680 0.456420 0.038530 0.032568
N6    N     N_2   0.519320 0.543580 0.961470 0.030483
O1    O     O_R   0.505010 0.286130 0.619770 -0.468687
O2    O     O_3   0.838160 0.442524 0.163537 -0.512530
O3    O     O_3   0.132067 0.336360 0.193406 -0.567868
O4    O     O_3   0.865313 0.567923 0.832759 -0.506006
O5    O     O_R   0.494990 0.713870 0.380230 -0.468037
O6    O     O_R   0.491990 0.256780 0.308370 -0.453871
O7    O     O_R   0.508010 0.743220 0.691630 -0.453747
O8    O     O_R   0.406650 0.514660 0.655750 -0.487711
O9    O     O_R   0.593350 0.485340 0.344250 -0.490326
O10   O     O_R   0.393640 0.485310 0.344340 -0.489282
O11   O     O_R   0.606360 0.514690 0.655660 -0.492893
O12   O     O_3   0.164218 0.669173 0.809435 -0.581898

loop_
_geom_bond_atom_site_label_1
_geom_bond_atom_site_label_2
_ccdc_geom_bond_type
C13   N4    A    
C17   O4    S    
C2    C4    A    
Cu2   N5    S    
Cu1   O11   S    
C8    H11   S    
C5    O3    S    
C14   H14   S    
C10   C23   A    
C12   C19   S    
C5    C7    A    
Cu1   O7    S    
C22   C24   A    
C2    C23   A    
Cu1   O8    S    
C20   O8    A    
C16   H4    S    
N2    N4    A    
C8    C10   A    
C15   H16   S    
C17   H7    S    
Br1   C18   S    
N1    N3    A    
C17   H6    S    
C21   O9    A    
C14   H13   S    
C7    C9    A    
C14   O12   S    
Cu1   Cu2   S    
Cu1   O1    S    
C1    O6    A    
Br4   N6    S    
C16   O3    S    
C1    C18   S    
C15   H2    S    
Cu2   O6    S    
C15   O2    S    
C1    O1    A    
C2    O2    S    
C4    C11   S    
C6    C8    A    
C12   O5    A    
C11   N3    A    
Cu2   O10   S    
C7    H10   S    
C9    C22   A    
C16   H3    S    
C15   H15   S    
N5    N6    D    
Cu2   O5    S    
C24   O12   S    
C22   H1    S    
C6    O4    S    
C10   C21   S    
C4    C6    A    
C21   O11   A    
Cu2   O9    S    
Br2   C19   S    
C3    C5    A    
Br3   N5    S    
C18   C19   D    
C17   H8    S    
C20   O10   A    
C14   H12   S    
C16   H5    S    
C11   N2    A    
C12   O7    A    
C3    C24   A    
C13   N1    A    
C9    C20   S    
C23   H9    S    
C3    C13   S    
Cu1   N6    S    
