data_mof_unit_34060.cif
_audit_creation_date              2012-12-11T15:22:42-0500
_audit_creation_method            fapswitch 2.2
_symmetry_space_group_name_H-M    P1
_symmetry_Int_Tables_number       1
_space_group_crystal_system       monoclinic
_cell_length_a                    22.871469
_cell_length_b                    7.221492
_cell_length_c                    20.763222
_cell_angle_alpha                 90.0
_cell_angle_beta                  93.20503
_cell_angle_gamma                 90.0
_cell_volume                      3424.01699975

loop_
_atom_site_label
_atom_site_type_symbol
_atom_type_description
_atom_site_fract_x
_atom_site_fract_y
_atom_site_fract_z
_atom_type_partial_charge
O1    O     O_R   0.438030 0.494310 0.439340 -0.537610
O2    O     O_R   0.561970 0.994310 0.560660 -0.537610
O3    O     O_R   0.556900 0.822900 0.435960 -0.536749
O4    O     O_R   0.443100 0.322900 0.564040 -0.536749
C1    C     C_R   0.575843 0.655484 0.421036 0.720361
C2    C     C_R   0.424157 0.155484 0.578963 0.720361
O5    O     O_R   0.438170 0.823950 0.431660 -0.541877
O6    O     O_R   0.561830 0.323950 0.568340 -0.541877
O7    O     O_R   0.442390 0.995390 0.556340 -0.531806
O8    O     O_R   0.557610 0.495390 0.443660 -0.531806
C3    C     C_R   0.418389 0.655234 0.415679 0.697208
C4    C     C_R   0.581611 0.155234 0.584320 0.697208
O9    O     O_3   0.501520 0.661170 0.540910 -0.374785
O10   O     O_3   0.498480 0.161170 0.459090 -0.374785
V1    V     V_3+5 0.499720 0.935580 0.492410 1.414560
V2    V     V_3+5 0.500280 0.435580 0.507590 1.414560
C5    C     C_R   0.829985 0.226314 0.866189 -0.138139
C6    C     C_R   0.170015 0.726315 0.133811 -0.138140
C7    C     C_R   0.871887 0.084727 0.862235 -0.197282
C8    C     C_R   0.128113 0.584727 0.137764 -0.197282
C9    C     C_R   0.867139 0.958474 0.809652 0.468182
C10   C     C_R   0.132862 0.458474 0.190348 0.468182
C11   C     C_R   0.815503 0.959937 0.768293 0.016427
C12   C     C_R   0.184497 0.459936 0.231706 0.016425
C13   C     C_R   0.775263 0.108937 0.771389 -0.083225
C14   C     C_R   0.224737 0.608937 0.228611 -0.083227
C15   C     C_R   0.783112 0.246098 0.819777 -0.013234
C16   C     C_R   0.216888 0.746098 0.180223 -0.013236
C17   C     C_R   0.802348 0.814793 0.724324 -0.065047
C18   C     C_R   0.197652 0.314792 0.275675 -0.065045
C19   C     C_R   0.753596 0.823491 0.681026 -0.235799
C20   C     C_R   0.246404 0.323490 0.318974 -0.235798
C21   C     C_R   0.716389 0.977087 0.680347 0.111236
C22   C     C_R   0.283611 0.477087 0.319653 0.111238
C23   C     C_R   0.726773 0.119785 0.725934 0.080257
C24   C     C_R   0.273227 0.619785 0.274066 0.080258
C25   C     C_R   0.688511 0.272750 0.726074 0.040639
C26   C     C_R   0.311489 0.772751 0.273926 0.040637
C27   C     C_R   0.697066 0.409382 0.773438 -0.282477
C28   C     C_R   0.302934 0.909382 0.226562 -0.282475
C29   C     C_R   0.742897 0.396295 0.821132 0.436253
C30   C     C_R   0.257102 0.896296 0.178868 0.436256
C31   C     C_R   0.668614 0.988937 0.635130 -0.202483
C32   C     C_R   0.331386 0.488936 0.364869 -0.202483
C33   C     C_R   0.631267 0.143896 0.633566 -0.083246
C34   C     C_R   0.368733 0.643896 0.366434 -0.083245
C35   C     C_R   0.641650 0.285626 0.679307 -0.182490
C36   C     C_R   0.358350 0.785626 0.320694 -0.182490
H1    H     H_    0.834702 0.321445 0.906245 0.212394
H2    H     H_    0.165298 0.821446 0.093755 0.212394
H3    H     H_    0.828460 0.690147 0.724163 0.195739
H4    H     H_    0.171541 0.190146 0.275836 0.195740
H5    H     H_    0.745125 0.709642 0.647786 0.134747
H6    H     H_    0.254875 0.209641 0.352214 0.134746
H7    H     H_    0.661208 0.878464 0.600255 0.126472
H8    H     H_    0.338792 0.378463 0.399745 0.126472
H9    H     H_    0.612634 0.404342 0.679285 0.132355
H10   H     H_    0.387365 0.904343 0.320715 0.132355
H11   H     H_    0.666912 0.524896 0.773893 0.169277
H12   H     H_    0.333087 0.024897 0.226107 0.169280
C37   C     C_3   0.243128 0.285830 0.801605 -0.319636
C38   C     C_3   0.756871 0.785828 0.198393 -0.319635
C39   C     C_3   0.250547 0.938707 0.800510 -0.317839
C40   C     C_3   0.749454 0.438704 0.199491 -0.317839
C41   C     C_3   0.300210 0.951339 0.752373 -0.325056
C42   C     C_3   0.699791 0.451336 0.247628 -0.325057
H13   H     H_    0.335846 0.310364 0.780804 0.156224
H14   H     H_    0.664153 0.810357 0.219194 0.156224
H15   H     H_    0.262580 0.291660 0.851906 0.171233
H16   H     H_    0.737418 0.791652 0.148092 0.171234
H17   H     H_    0.226438 0.805898 0.792911 0.141644
H18   H     H_    0.773564 0.305897 0.207091 0.141644
H19   H     H_    0.270118 0.937530 0.850802 0.173691
H20   H     H_    0.729883 0.437522 0.149200 0.173690
H21   H     H_    0.343426 0.956229 0.779745 0.156875
H22   H     H_    0.656575 0.456222 0.220256 0.156875
H23   H     H_    0.299740 0.824501 0.721890 0.138987
H24   H     H_    0.700262 0.324500 0.278112 0.138987
C43   C     C_1   0.378541 0.146354 0.624817 -0.172778
C44   C     C_1   0.621459 0.646354 0.375183 -0.172777
C45   C     C_3   0.207549 0.104111 0.791356 0.250532
C46   C     C_3   0.792451 0.604111 0.208644 0.250532
C47   C     C_3   0.292766 0.298466 0.753440 -0.325960
C48   C     C_3   0.707233 0.798463 0.246558 -0.325961
C49   C     C_3   0.292496 0.125658 0.708982 0.273043
C50   C     C_3   0.707504 0.625658 0.291018 0.273043
C51   C     C_3   0.231531 0.113744 0.672446 -0.331076
C52   C     C_3   0.768469 0.613750 0.327554 -0.331076
C53   C     C_3   0.181874 0.101175 0.720599 -0.310238
C54   C     C_3   0.818126 0.601181 0.279400 -0.310237
C55   C     C_1   0.340007 0.137498 0.662780 -0.089301
C56   C     C_1   0.659993 0.637498 0.337220 -0.089301
C57   C     C_1   0.160042 0.092301 0.837533 -0.063452
C58   C     C_1   0.839958 0.592301 0.162467 -0.063452
C59   C     C_1   0.121501 0.083515 0.875465 -0.095240
C60   C     C_1   0.878499 0.583515 0.124535 -0.095240
H25   H     H_    0.151094 0.219214 0.712259 0.155322
H26   H     H_    0.848905 0.719223 0.287740 0.155321
H27   H     H_    0.156405 0.971588 0.711473 0.157081
H28   H     H_    0.843596 0.471597 0.288528 0.157081
H29   H     H_    0.224376 0.237733 0.641159 0.146535
H30   H     H_    0.775623 0.737741 0.358839 0.146535
H31   H     H_    0.213560 0.407544 0.794864 0.142398
H32   H     H_    0.786438 0.907544 0.205134 0.142398
H33   H     H_    0.286793 0.426125 0.723757 0.138242
H34   H     H_    0.713205 0.926125 0.276240 0.138242
H35   H     H_    0.229702 0.990120 0.640391 0.145834
H36   H     H_    0.770299 0.490128 0.359610 0.145834
O11   O     O_R   0.942420 0.735670 0.056390 -0.545983
O12   O     O_R   0.057580 0.235670 0.943610 -0.545983
O13   O     O_R   0.061840 0.404850 0.068350 -0.492557
O14   O     O_R   0.938160 0.904850 0.931650 -0.492556
C61   C     C_R   0.080405 0.573779 0.085794 0.767965
C62   C     C_R   0.919595 0.073779 0.914205 0.767965
O15   O     O_R   0.943100 0.406010 0.064050 -0.526799
O16   O     O_R   0.056900 0.906010 0.935950 -0.526798
O17   O     O_R   0.938020 0.234710 0.939330 -0.548017
O18   O     O_R   0.061980 0.734710 0.060670 -0.548017
C63   C     C_R   0.924131 0.574462 0.078742 0.757342
C64   C     C_R   0.075869 0.074462 0.921258 0.757341
O19   O     O_3   0.998500 0.567790 0.959120 -0.364750
O20   O     O_3   0.001500 0.067790 0.040880 -0.364750
V3    V     V_3+5 0.000280 0.293330 0.007580 1.649445
V4    V     V_3+5 0.999720 0.793330 0.992420 1.649445
S1    S     S_3+6 0.927907 0.817108 0.790283 -0.007888
O21   O     O_2   0.984731 0.905576 0.813334 -0.359692
O22   O     O_2   0.922437 0.630958 0.821779 -0.321840
O23   O     O_3   0.929364 0.788959 0.709931 -0.519818
H37   H     H_    0.960670 0.696741 0.703998 0.364534
S2    S     S_3+6 0.072093 0.317107 0.209716 -0.007888
O24   O     O_2   0.015269 0.405576 0.186666 -0.359694
O25   O     O_2   0.077563 0.130958 0.178220 -0.321838
O26   O     O_3   0.070636 0.288957 0.290069 -0.519818
H38   H     H_    0.039327 0.196747 0.296002 0.364534
S3    S     S_3+6 0.747022 0.568001 0.882414 0.002317
O27   O     O_2   0.736949 0.477885 0.946079 -0.306917
O28   O     O_2   0.806632 0.655953 0.886249 -0.351656
O29   O     O_3   0.696007 0.733227 0.868475 -0.475504
H39   H     H_    0.710068 0.806980 0.832238 0.332894
S4    S     S_3+6 0.252978 0.068000 0.117586 0.002316
O30   O     O_2   0.263051 0.977883 0.053921 -0.306918
O31   O     O_2   0.193368 0.155954 0.113750 -0.351658
O32   O     O_3   0.303993 0.233225 0.131525 -0.475506
H40   H     H_    0.289931 0.306987 0.167759 0.332896

loop_
_geom_bond_atom_site_label_1
_geom_bond_atom_site_label_2
_ccdc_geom_bond_type
S3    O29   S    
C18   C20   A    
C39   C41   S    
H13   C47   S    
C28   H12   S    
C60   C63   S    
O1    C3    A    
S4    O32   S    
O2    C4    A    
O23   H37   S    
C2    O7    A    
O14   C62   A    
C49   C55   S    
S3    O27   D    
C27   C29   A    
O5    C3    A    
O11   C63   A    
C53   H27   S    
C46   C58   S    
C11   C17   A    
C37   H31   S    
C12   C14   A    
O14   V4    S    
C39   C45   S    
C8    C61   S    
C52   H36   S    
C50   C52   S    
O32   H40   S    
C38   H16   S    
C54   H28   S    
C15   C29   A    
C57   C59   T    
O19   V4    S    
C18   H4    S    
C5    C7    A    
C51   H29   S    
S1    O23   S    
C48   H34   S    
C19   C21   A    
C25   C35   A    
C5    C15   A    
C26   C36   A    
C45   C53   S    
C33   C35   A    
C38   C46   S    
C42   H22   S    
O6    V2    S    
C10   S2    S    
C20   H6    S    
C32   C34   A    
C38   H32   S    
C49   C51   S    
C42   H24   S    
C34   C36   A    
O15   V3    S    
C41   H23   S    
C30   S4    S    
H14   C48   S    
C6    C16   A    
S4    O30   D    
O4    C2    A    
C37   C47   S    
O12   C64   A    
O8    V2    S    
C4    C33   S    
O5    V1    S    
C39   H19   S    
C7    C62   S    
C20   C22   A    
O13   V3    S    
O16   C64   A    
C53   H25   S    
C21   C31   A    
O4    V2    S    
S2    O25   D    
O2    V1    S    
O12   V3    S    
C35   H9    S    
C45   C57   S    
C32   H8    S    
O6    C4    A    
C27   H11   S    
C22   C32   A    
O13   C61   A    
O1    V2    S    
O18   V4    S    
C19   H5    S    
C1    C44   S    
C58   C60   T    
C44   C56   T    
C31   C33   A    
C40   C46   S    
C13   C23   A    
C14   C24   A    
C47   C49   S    
C52   C54   S    
O15   C63   A    
C9    C11   A    
S1    O21   D    
C10   C12   A    
S2    O26   S    
C8    C10   A    
C5    H1    S    
C29   S3    S    
O3    V1    S    
C6    H2    S    
C17   H3    S    
C37   H15   S    
S3    O28   D    
C38   C48   S    
O16   V4    S    
C23   C25   A    
C43   C55   T    
C39   H17   S    
C28   C30   A    
O3    C1    A    
C46   C54   S    
C42   C50   S    
C52   H30   S    
C36   H10   S    
O11   V4    S    
C41   C49   S    
C31   H7    S    
C59   C64   S    
C13   C15   A    
C14   C16   A    
C41   H21   S    
C24   C26   A    
S2    O24   D    
O17   V3    S    
C1    O8    A    
C17   C19   A    
C50   C56   S    
C26   C28   A    
C2    C43   S    
O26   H38   S    
C16   C30   A    
C21   C23   A    
C22   C24   A    
C6    C8    A    
C40   H18   S    
O7    V1    S    
C12   C18   A    
C62   O17   A    
O29   H39   S    
C61   O18   A    
C47   H33   S    
C11   C13   A    
C51   H35   S    
C25   C27   A    
O9    V2    S    
S1    O22   D    
C51   C53   S    
C40   H20   S    
O10   V1    S    
C48   C50   S    
C3    C34   S    
C37   C45   S    
S4    O31   D    
O20   V3    S    
C9    S1    S    
C54   H26   S    
C40   C42   S    
C7    C9    A    
