data_mof_unit_5693.cif
_audit_creation_date              2012-12-10T18:42:28-0500
_audit_creation_method            fapswitch 2.2
_symmetry_space_group_name_H-M    P1
_symmetry_Int_Tables_number       1
_space_group_crystal_system       triclinic
_cell_length_a                    8.615856
_cell_length_b                    10.685926
_cell_length_c                    9.854177
_cell_angle_alpha                 89.754144
_cell_angle_beta                  97.981223
_cell_angle_gamma                 90.181273
_cell_volume                      898.458969982

loop_
_atom_site_label
_atom_site_type_symbol
_atom_type_description
_atom_site_fract_x
_atom_site_fract_y
_atom_site_fract_z
_atom_type_partial_charge
C1    C     C_R   0.501180 0.260045 0.500414 0.980651
C2    C     C_R   0.498819 0.739955 0.499586 0.980725
C3    C     C_R   0.201796 0.498367 0.465215 0.923993
C4    C     C_R   0.798205 0.501604 0.534783 0.924134
C5    C     C_2   0.040227 0.474322 0.452675 -0.195394
C6    C     C_2   0.959777 0.525628 0.547319 -0.195385
C7    C     C_R   0.428151 0.065460 0.385018 -0.316536
C8    C     C_R   0.571847 0.934540 0.614982 -0.316511
C9    C     C_R   0.426310 0.937152 0.383842 0.710753
C10   C     C_R   0.573689 0.062848 0.616158 0.710729
C11   C     C_R   0.498570 0.872344 0.499090 -0.256198
C12   C     C_R   0.501429 0.127656 0.500910 -0.256186
C13   C     C_R   0.599041 0.576672 0.083439 0.720367
C14   C     C_R   0.400959 0.423328 0.916561 0.720309
C15   C     C_R   0.598909 0.576589 0.939621 -0.276610
C16   C     C_R   0.401091 0.423410 0.060379 -0.276577
H1    H     H_    0.370601 0.116110 0.296610 0.207783
H2    H     H_    0.629398 0.883890 0.703390 0.207798
H3    H     H_    0.677959 0.637835 0.894314 0.186523
H4    H     H_    0.322041 0.362164 0.105686 0.186506
N1    N     N_R   0.499960 0.499970 0.857200 -0.162090
N2    N     N_R   0.500040 0.500030 0.142800 -0.162080
O1    O     O_R   0.499990 0.316750 0.614620 -0.527250
O2    O     O_R   0.500010 0.683250 0.385380 -0.527238
O3    O     O_R   0.499990 0.316780 0.385290 -0.629004
O4    O     O_R   0.500010 0.683220 0.614710 -0.629042
O5    O     O_R   0.271750 0.499990 0.587840 -0.554288
O6    O     O_R   0.728250 0.500010 0.412160 -0.554145
O7    O     O_R   0.271750 0.500010 0.358510 -0.646351
O8    O     O_R   0.728250 0.499990 0.641490 -0.646392
Zn1   Zn    Zn3+2 0.500000 0.499980 0.653120 1.070257
Zn2   Zn    Zn3+2 0.500000 0.500020 0.346880 1.070332
C17   C     C_2   0.983377 0.370492 0.356627 0.443334
H5    H     H_    0.031296 0.360451 0.261037 0.082282
O9    O     O_2   0.891195 0.291457 0.386887 -0.532623
C18   C     C_2   0.016657 0.629442 0.643373 0.443373
H6    H     H_    0.968948 0.639346 0.739120 0.082297
O10   O     O_2   0.108607 0.708610 0.612957 -0.532603
F1    F     F_    0.351189 0.876898 0.272374 -0.608544
F2    F     F_    0.648809 0.123102 0.727626 -0.608550
F3    F     F_    0.698380 0.653639 0.162819 -0.621255
F4    F     F_    0.301620 0.346360 0.837181 -0.621294

loop_
_geom_bond_atom_site_label_1
_geom_bond_atom_site_label_2
_ccdc_geom_bond_type
C1    O3    A    
O2    Zn2   S    
N1    Zn1   S    
N2    Zn2   S    
C16   H4    S    
C14   F4    S    
O3    Zn2   S    
C3    O5    A    
C17   H5    S    
C4    O8    A    
O4    Zn1   S    
C2    O4    A    
C15   H3    S    
C9    C11   A    
C3    O7    A    
C7    C12   A    
C1    C12   S    
C10   C12   A    
C8    C11   A    
C5    C6    D    
C2    C11   S    
O6    Zn2   S    
C13   F3    S    
C18   H6    S    
C17   O9    D    
C6    C18   S    
C13   N2    A    
C1    O1    A    
O7    Zn2   S    
C13   C15   A    
C2    O2    A    
O8    Zn1   S    
C8    C10   A    
C14   C16   A    
O5    Zn1   S    
C18   O10   D    
C3    C5    S    
C15   N1    A    
C14   N1    A    
C4    C6    S    
C7    C9    A    
C10   F2    S    
C16   N2    A    
C4    O6    A    
C9    F1    S    
C8    H2    S    
O1    Zn1   S    
C7    H1    S    
C5    C17   S    
