data_mof_unit_45307.cif
_audit_creation_date              2012-12-10T21:13:55-0500
_audit_creation_method            fapswitch 2.2
_symmetry_space_group_name_H-M    P1
_symmetry_Int_Tables_number       1
_space_group_crystal_system       triclinic
_cell_length_a                    15.288661
_cell_length_b                    16.755134
_cell_length_c                    17.418642
_cell_angle_alpha                 89.748642
_cell_angle_beta                  90.950379
_cell_angle_gamma                 67.746119
_cell_volume                      4128.82458471

loop_
_atom_site_label
_atom_site_type_symbol
_atom_type_description
_atom_site_fract_x
_atom_site_fract_y
_atom_site_fract_z
_atom_type_partial_charge
C1    C     C_R   0.498733 0.500398 0.647218 0.970346
C2    C     C_R   0.505330 0.498472 0.352365 0.964312
C3    C     C_R   0.032649 0.501759 0.369219 -0.277667
C4    C     C_R   0.884226 0.606980 0.529019 -0.236292
C5    C     C_R   0.990227 0.446321 0.341258 0.562544
C6    C     C_R   0.928861 0.660604 0.556822 0.543107
C7    C     C_R   0.482092 0.427248 0.152182 0.451502
C8    C     C_R   0.397207 0.580176 0.840337 0.442807
C9    C     C_R   0.513303 0.422217 0.228606 0.091242
C10   C     C_R   0.422445 0.581167 0.763549 0.056347
C11   C     C_R   0.505744 0.498300 0.267396 -0.332874
C12   C     C_R   0.484994 0.504328 0.730127 -0.271543
C13   C     C_R   0.491049 0.574868 0.224475 0.066639
C14   C     C_R   0.526622 0.428507 0.774855 0.060837
C15   C     C_R   0.452752 0.581179 0.149190 0.476309
C16   C     C_R   0.500494 0.427823 0.851352 0.423153
C17   C     C_R   0.450497 0.506997 0.113792 -0.227420
C18   C     C_R   0.438696 0.504306 0.883975 -0.199737
C19   C     C_1   0.435649 0.508921 0.033145 0.124132
C20   C     C_1   0.432021 0.508038 0.964968 0.121869
C21   C     C_R   0.567550 0.145341 0.548336 0.281266
C22   C     C_R   0.429375 0.858226 0.462908 0.275798
C23   C     C_R   0.676675 0.446711 0.497269 0.909722
C24   C     C_R   0.322243 0.553798 0.500691 0.930479
C25   C     C_R   0.564588 0.231554 0.546083 0.547181
C26   C     C_R   0.432251 0.771870 0.459170 0.510503
C27   C     C_R   0.438371 0.271852 0.454888 -0.292301
C28   C     C_R   0.567879 0.723246 0.541539 -0.241322
C29   C     C_R   0.437304 0.187519 0.455620 0.421000
C30   C     C_R   0.569434 0.806928 0.544950 0.396640
C31   C     C_R   0.502178 0.123516 0.503191 -0.165327
C32   C     C_R   0.500527 0.875172 0.504087 -0.163181
C33   C     C_1   0.501251 0.035883 0.505028 0.118570
C34   C     C_1   0.501238 0.962844 0.505163 0.113673
C35   C     C_R   0.774494 0.416393 0.472966 -0.274598
C36   C     C_R   0.217789 0.590476 0.505097 -0.276668
C37   C     C_R   0.877169 0.374237 0.362611 0.150893
C38   C     C_R   0.074930 0.694447 0.562134 0.128605
C39   C     C_R   0.798914 0.372372 0.403127 0.398069
C40   C     C_R   0.172779 0.665238 0.548716 0.431964
C41   C     C_R   0.831115 0.456833 0.504650 0.127104
C42   C     C_R   0.163378 0.548927 0.469569 0.099148
C43   C     C_R   0.893155 0.477137 0.456374 -0.025205
C44   C     C_R   0.064166 0.582163 0.477737 -0.021759
C45   C     C_R   0.921288 0.431368 0.386335 -0.118580
C46   C     C_R   0.021404 0.647893 0.532086 -0.144338
C47   C     C_R   0.928601 0.541168 0.476594 0.005296
C48   C     C_R   0.009043 0.541767 0.440697 0.031239
H1    H     H_    0.388799 0.321521 0.419139 0.184748
H2    H     H_    0.621483 0.670698 0.572377 0.178099
H3    H     H_    0.083014 0.515632 0.334170 0.163754
H4    H     H_    0.813043 0.619417 0.547236 0.191793
N1    N     N_R   0.499980 0.292780 0.499970 -0.158006
N2    N     N_R   0.500020 0.707220 0.500030 -0.151696
O1    O     O_R   0.500000 0.433430 0.610870 -0.557889
O2    O     O_R   0.500000 0.566570 0.389130 -0.600443
O3    O     O_R   0.500010 0.566520 0.610900 -0.601311
O4    O     O_R   0.499990 0.433480 0.389100 -0.577036
O5    O     O_R   0.632240 0.395450 0.499980 -0.544015
O6    O     O_R   0.367760 0.604550 0.500020 -0.519970
O7    O     O_R   0.632250 0.528530 0.500000 -0.636994
O8    O     O_R   0.367750 0.471470 0.500000 -0.631606
Zn1   Zn    Zn3+2 0.500000 0.411140 0.499980 0.993490
Zn2   Zn    Zn3+2 0.500000 0.588860 0.500020 0.988286
O9    O     O_3   0.009497 0.412322 0.267900 -0.571719
C49   C     C_3   0.107900 0.372937 0.256090 -0.341497
H5    H     H_    0.147942 0.338498 0.308245 0.154649
H6    H     H_    0.135993 0.421217 0.235531 0.156384
H7    H     H_    0.120126 0.324218 0.210379 0.194547
O10   O     O_3   0.882408 0.722975 0.609765 -0.592261
C50   C     C_3   0.877670 0.682775 0.680187 -0.343807
H8    H     H_    0.947984 0.634648 0.698959 0.146344
H9    H     H_    0.824792 0.652085 0.676867 0.180624
H10   H     H_    0.854337 0.732902 0.724999 0.183598
O11   O     O_3   0.627410 0.086901 0.600988 -0.580860
C51   C     C_3   0.699852 0.020733 0.562615 -0.302672
H11   H     H_    0.715566 0.039664 0.504525 0.115474
H12   H     H_    0.682025 0.962699 0.557986 0.233930
H13   H     H_    0.765847 0.002196 0.597788 0.182049
O12   O     O_3   0.360369 0.925001 0.423415 -0.588474
C52   C     C_3   0.283507 0.963569 0.472286 -0.289939
H14   H     H_    0.305502 0.985731 0.526816 0.158564
H15   H     H_    0.247192 0.918886 0.484515 0.139649
H16   H     H_    0.231606 0.021168 0.442595 0.196990
O13   O     O_3   0.620723 0.257789 0.594957 -0.553742
C53   C     C_3   0.717850 0.209849 0.583644 -0.231358
H17   H     H_    0.733958 0.175360 0.528064 0.096731
H18   H     H_    0.746662 0.163001 0.631704 0.190523
H19   H     H_    0.755758 0.254688 0.584741 0.161164
O14   O     O_3   0.362965 0.751659 0.421167 -0.602236
C54   C     C_3   0.347579 0.783300 0.344876 -0.225829
H20   H     H_    0.408618 0.794905 0.320454 0.176017
H21   H     H_    0.283210 0.843315 0.341409 0.183238
H22   H     H_    0.334127 0.734910 0.308472 0.169882
O15   O     O_3   0.366624 0.169054 0.417912 -0.580257
C55   C     C_3   0.367616 0.184191 0.338361 -0.333318
H23   H     H_    0.440168 0.155001 0.315076 0.164258
H24   H     H_    0.334724 0.254174 0.324695 0.137974
H25   H     H_    0.324114 0.153143 0.308845 0.200398
O16   O     O_3   0.641279 0.821063 0.584502 -0.580205
C56   C     C_3   0.625470 0.819431 0.663894 -0.277297
H26   H     H_    0.636407 0.753214 0.684060 0.139884
H27   H     H_    0.553618 0.865566 0.679005 0.151467
H28   H     H_    0.677465 0.839569 0.695015 0.202908
N3    N     N_2   0.208184 0.467022 0.434367 -0.310315
H29   H     H_    0.265385 0.458876 0.400413 0.216076
C57   C     C_3   0.213108 0.393172 0.480693 -0.726284
H30   H     H_    0.231048 0.335611 0.443827 0.244443
H31   H     H_    0.144174 0.403519 0.507177 0.236351
H32   H     H_    0.267183 0.380806 0.527260 0.256480
N4    N     N_2   0.825166 0.476905 0.584668 -0.310548
H33   H     H_    0.763727 0.481060 0.610935 0.209865
C58   C     C_3   0.908065 0.426369 0.629950 -0.811607
H34   H     H_    0.899348 0.449436 0.690073 0.232821
H35   H     H_    0.972369 0.433114 0.607172 0.254859
H36   H     H_    0.917386 0.357280 0.629769 0.235485
O17   O     O_3   0.227983 0.699210 0.590770 -0.606962
C59   C     C_3   0.219787 0.779621 0.559625 -0.216870
H37   H     H_    0.202871 0.786675 0.496804 0.165442
H38   H     H_    0.288319 0.786841 0.568725 0.181705
H39   H     H_    0.166389 0.832630 0.591247 0.162883
O18   O     O_3   0.738164 0.338708 0.368987 -0.604896
C60   C     C_3   0.767797 0.250074 0.387176 -0.301362
H40   H     H_    0.704219 0.235540 0.398737 0.189450
H41   H     H_    0.816240 0.228642 0.438337 0.127330
H42   H     H_    0.802629 0.211536 0.336818 0.161920
N5    N     N_2   0.907320 0.322625 0.296025 -0.227577
H43   H     H_    0.853872 0.315198 0.263682 0.252820
C61   C     C_3   0.986313 0.241916 0.309989 -0.750426
H44   H     H_    0.010724 0.209325 0.254546 0.234135
H45   H     H_    0.965177 0.198776 0.347417 0.204566
H46   H     H_    0.046183 0.253225 0.338224 0.251071
N6    N     N_2   0.034127 0.768876 0.608249 -0.263787
H47   H     H_    0.009261 0.759193 0.660600 0.260511
C62   C     C_3   0.976392 0.847031 0.567228 -0.756085
H48   H     H_    0.911577 0.841552 0.542570 0.275851
H49   H     H_    0.016726 0.860475 0.519820 0.211584
H50   H     H_    0.955472 0.902249 0.607209 0.219145
O19   O     O_3   0.491316 0.352590 0.113347 -0.569503
C63   C     C_3   0.401435 0.347363 0.106203 -0.356598
H51   H     H_    0.354876 0.396270 0.064850 0.153730
H52   H     H_    0.365913 0.354294 0.162472 0.145844
H53   H     H_    0.410773 0.282907 0.083624 0.185873
O20   O     O_3   0.340078 0.656138 0.874414 -0.582104
C64   C     C_3   0.247998 0.656354 0.879422 -0.352504
H54   H     H_    0.201177 0.719140 0.902958 0.195362
H55   H     H_    0.246104 0.604911 0.919149 0.153076
H56   H     H_    0.218826 0.649499 0.821920 0.154758
N7    N     N_2   0.566022 0.340423 0.263094 -0.220871
H57   H     H_    0.630351 0.308674 0.237858 0.253129
C65   C     C_3   0.515371 0.284870 0.277810 -0.718256
H58   H     H_    0.516357 0.245119 0.226815 0.243676
H59   H     H_    0.441263 0.323419 0.293264 0.216238
H60   H     H_    0.550995 0.240400 0.326030 0.215820
N8    N     N_2   0.383958 0.659224 0.719832 -0.232402
H61   H     H_    0.313073 0.693451 0.728665 0.272803
C66   C     C_3   0.438195 0.713535 0.725666 -0.691448
H62   H     H_    0.434345 0.739482 0.784656 0.244902
H63   H     H_    0.409065 0.768343 0.684367 0.206938
H64   H     H_    0.513388 0.676737 0.711734 0.230928
N9    N     N_2   0.521495 0.639564 0.256282 -0.285834
H65   H     H_    0.576227 0.614953 0.295861 0.249825
C67   C     C_3   0.537975 0.702135 0.206902 -0.699742
H66   H     H_    0.575616 0.736385 0.240025 0.201297
H67   H     H_    0.469975 0.752123 0.186950 0.269213
H68   H     H_    0.582680 0.669706 0.157836 0.262584
N10   N     N_2   0.598960 0.354552 0.744134 -0.228037
H69   H     H_    0.601842 0.296390 0.766178 0.270976
C68   C     C_3   0.690898 0.360589 0.743611 -0.700751
H70   H     H_    0.743550 0.300981 0.719377 0.224106
H71   H     H_    0.714058 0.368022 0.803063 0.239375
H72   H     H_    0.688692 0.416251 0.707688 0.208572
O21   O     O_3   0.425032 0.657240 0.107149 -0.584477
C69   C     C_3   0.326195 0.699656 0.112409 -0.311013
H73   H     H_    0.304470 0.713913 0.173077 0.135415
H74   H     H_    0.288396 0.661558 0.085241 0.158153
H75   H     H_    0.304253 0.762096 0.080961 0.200051
O22   O     O_3   0.544668 0.355039 0.896659 -0.579502
C70   C     C_3   0.484335 0.309090 0.901046 -0.282965
H76   H     H_    0.470802 0.287338 0.843346 0.141447
H77   H     H_    0.416212 0.348003 0.928170 0.149757
H78   H     H_    0.519379 0.250789 0.937453 0.207625

loop_
_geom_bond_atom_site_label_1
_geom_bond_atom_site_label_2
_ccdc_geom_bond_type
C62   H50   S    
C49   H6    S    
C6    O10   S    
C66   H62   S    
N8    C66   S    
C68   H71   S    
C68   H70   S    
C36   C42   A    
O15   C55   S    
C63   H53   S    
C52   H16   S    
N9    H65   S    
C62   H48   S    
N10   C68   S    
O21   C69   S    
C23   O5    A    
C21   C31   A    
C9    N7    S    
C56   H26   S    
C39   O18   S    
C22   C32   A    
C4    H4    S    
C67   H67   S    
C25   N1    A    
C61   H44   S    
N7    C65   S    
C53   H18   S    
C38   N6    S    
C49   H7    S    
C27   C29   A    
C55   H25   S    
C30   O16   S    
C3    C48   A    
C15   C17   A    
C65   H60   S    
C69   H73   S    
N1    Zn1   S    
C64   H55   S    
C59   H37   S    
C28   H2    S    
C70   H78   S    
N4    H33   S    
C44   C46   A    
C7    C17   A    
C55   H24   S    
C24   O8    A    
C65   H58   S    
O2    Zn2   S    
N9    C67   S    
O10   C50   S    
C58   H36   S    
C40   O17   S    
C66   H63   S    
C38   C40   A    
C29   C31   A    
C41   C43   A    
C1    C12   S    
C42   C44   A    
C2    C11   S    
C26   N2    A    
C25   O13   S    
C52   H15   S    
C16   O22   S    
C64   H54   S    
C59   H38   S    
C15   O21   S    
O22   C70   S    
C36   C40   A    
C67   H68   S    
C51   H11   S    
C4    C6    A    
C54   H20   S    
C50   H9    S    
C28   N2    A    
C53   H17   S    
O20   C64   S    
C60   H42   S    
C52   H14   S    
O13   C53   S    
C5    C45   A    
C8    C18   A    
O1    Zn1   S    
C59   H39   S    
C32   C34   S    
O7    Zn2   S    
C35   C39   A    
O11   C51   S    
N5    C61   S    
O8    Zn1   S    
C1    O3    A    
C54   H21   S    
N3    C57   S    
C47   C48   A    
C24   O6    A    
C55   H23   S    
C31   C33   S    
C33   C34   T    
N4    C58   S    
C16   C18   A    
C24   C36   S    
C63   H51   S    
C37   N5    S    
C43   C45   A    
C69   H75   S    
C10   C12   A    
C5    O9    S    
C12   C14   A    
C56   H28   S    
C23   C35   S    
C9    C11   A    
C41   N4    S    
N6    H47   S    
C57   H32   S    
C14   C16   A    
C7    O19   S    
C26   O14   S    
C57   H30   S    
C37   C45   A    
N5    H43   S    
C14   N10   S    
N10   H69   S    
C64   H56   S    
O3    Zn2   S    
C29   O15   S    
C58   H34   S    
C56   H27   S    
O4    Zn1   S    
C62   H49   S    
C21   C25   A    
C60   H40   S    
C3    H3    S    
C6    C46   A    
C51   H12   S    
O12   C52   S    
C3    C5    A    
C53   H19   S    
C10   N8    S    
C50   H10   S    
O19   C63   S    
C27   N1    A    
C13   N9    S    
C63   H52   S    
C66   H64   S    
N3    H29   S    
C21   O11   S    
O5    Zn1   S    
O6    Zn2   S    
C61   H46   S    
C19   C20   T    
C13   C15   A    
C1    O1    A    
C22   O12   S    
C50   H8    S    
C37   C39   A    
C44   C48   A    
C2    O2    A    
N7    H57   S    
C54   H22   S    
C30   C32   A    
C11   C13   A    
O14   C54   S    
C57   H31   S    
N2    Zn2   S    
C28   C30   A    
O16   C56   S    
C68   H72   S    
C49   H5    S    
C18   C20   S    
C65   H59   S    
C2    O4    A    
C35   C41   A    
C42   N3    S    
C69   H74   S    
C38   C46   A    
C67   H66   S    
C60   H41   S    
C70   H76   S    
C8    O20   S    
C17   C19   S    
C7    C9    A    
C23   O7    A    
C51   H13   S    
C8    C10   A    
O9    C49   S    
C22   C26   A    
N8    H61   S    
N6    C62   S    
C70   H77   S    
C61   H45   S    
O18   C60   S    
O17   C59   S    
C43   C47   A    
C27   H1    S    
C58   H35   S    
C4    C47   A    
