data_mof_unit_48732.cif
_audit_creation_date              2012-12-10T17:45:31-0500
_audit_creation_method            fapswitch 2.2
_symmetry_space_group_name_H-M    P1
_symmetry_Int_Tables_number       1
_space_group_crystal_system       triclinic
_cell_length_a                    11.546812
_cell_length_b                    10.699051
_cell_length_c                    9.919733
_cell_angle_alpha                 89.425941
_cell_angle_beta                  89.984248
_cell_angle_gamma                 91.718137
_cell_volume                      1224.87048678

loop_
_atom_site_label
_atom_site_type_symbol
_atom_type_description
_atom_site_fract_x
_atom_site_fract_y
_atom_site_fract_z
_atom_type_partial_charge
C1    C     C_R   0.504649 0.259129 0.501618 0.859515
C2    C     C_R   0.462727 0.042294 0.872745 -0.076924
C3    C     C_R   0.399413 0.930635 0.859590 -0.091479
C4    C     C_R   0.392110 0.873278 0.734618 -0.129787
C5    C     C_R   0.442776 0.931550 0.619567 0.097171
C6    C     C_R   0.484877 0.055138 0.627964 0.094607
C7    C     C_R   0.500685 0.123855 0.505413 -0.130670
C8    C     C_R   0.488826 0.064316 0.380956 -0.276072
C9    C     C_R   0.465011 0.937735 0.374881 -0.020473
C10   C     C_R   0.454609 0.869160 0.496446 -0.207853
C11   C     C_R   0.346890 0.337086 0.141568 -0.118316
C12   C     C_R   0.282026 0.499554 0.500024 0.872864
C13   C     C_R   0.270646 0.257912 0.072173 -0.205592
C14   C     C_R   0.269937 0.258852 0.932677 -0.182206
C15   C     C_R   0.346208 0.338151 0.861722 -0.114144
C16   C     C_R   0.424423 0.420010 0.928558 0.023874
C17   C     C_R   0.424590 0.419806 0.073098 0.139252
C18   C     C_R   0.571562 0.577341 0.070670 -0.202894
C19   C     C_R   0.571613 0.577391 0.927605 0.663944
C20   C     C_R   0.482358 0.737628 0.498974 0.906428
C21   C     C_R   0.717973 0.500344 0.499982 0.921623
C22   C     C_1   0.161553 0.499511 0.500059 -0.166546
C23   C     C_1   0.059370 0.499597 0.500046 0.012129
C24   C     C_1   0.940675 0.499839 0.500001 0.018313
C25   C     C_1   0.838484 0.500096 0.499969 -0.161540
C26   C     C_R   0.507230 0.103344 0.758450 -0.180341
H1    H     H_    0.495500 0.116625 0.286893 0.188330
H2    H     H_    0.211061 0.196476 0.878886 0.157122
H3    H     H_    0.342340 0.331281 0.754887 0.204463
H4    H     H_    0.560481 0.186139 0.775660 0.176842
H5    H     H_    0.475203 0.083573 0.971026 0.176113
H6    H     H_    0.358919 0.886542 0.946446 0.150453
H7    H     H_    0.345190 0.784400 0.727838 0.147980
H8    H     H_    0.629914 0.640634 0.123799 0.198239
H9    H     H_    0.342109 0.330608 0.248487 0.197817
H10   H     H_    0.211957 0.195184 0.127159 0.159079
N1    N     N_R   0.498930 0.498800 0.142780 -0.151794
N2    N     N_R   0.498900 0.498720 0.857170 -0.181750
O1    O     O_R   0.500000 0.316780 0.614690 -0.660977
O2    O     O_R   0.499990 0.316750 0.385360 -0.639948
O3    O     O_R   0.334450 0.500030 0.614670 -0.649155
O4    O     O_R   0.334440 0.500000 0.385330 -0.611630
O5    O     O_R   0.500010 0.683250 0.614640 -0.571540
O6    O     O_R   0.500000 0.683220 0.385310 -0.591166
O7    O     O_R   0.665560 0.500000 0.614670 -0.560360
O8    O     O_R   0.665550 0.499970 0.385330 -0.611704
Zn1   Zn    Zn3+2 0.500010 0.500020 0.653130 0.983075
Zn2   Zn    Zn3+2 0.499990 0.499980 0.346870 0.965800
F1    F     F_    0.644815 0.656960 0.859859 -0.627811
C27   C     C_2   0.447206 0.880887 0.240705 0.923134
O9    O     O_2   0.515366 0.905249 0.149244 -0.652939
O10   O     O_R   0.353558 0.797102 0.220526 -0.790508
H11   H     H_    0.355780 0.755105 0.129557 0.327950

loop_
_geom_bond_atom_site_label_1
_geom_bond_atom_site_label_2
_ccdc_geom_bond_type
C3    H6    S    
C27   O10   S    
C23   C24   S    
C15   H3    S    
C6    C7    A    
C19   N2    A    
C11   C13   A    
C9    C10   A    
C19   F1    S    
C14   C15   A    
C14   H2    S    
C11   H9    S    
C2    C3    A    
O3    Zn1   S    
C7    C8    A    
C2    C26   A    
O4    Zn2   S    
C13   C14   A    
C24   C25   T    
N1    Zn2   S    
C18   H8    S    
N2    Zn1   S    
C6    C26   A    
C13   H10   S    
C2    H5    S    
C20   O6    A    
C18   N1    A    
C26   H4    S    
C21   O7    A    
O7    Zn1   S    
C5    C6    A    
O8    Zn2   S    
C16   C17   A    
C1    O1    A    
C12   O4    A    
C15   C16   A    
C21   O8    A    
C12   C22   S    
C5    C10   A    
C20   O5    A    
O10   H11   S    
C3    C4    A    
C12   O3    A    
O1    Zn1   S    
C18   C19   A    
C10   C20   S    
O2    Zn2   S    
C8    H1    S    
C21   C25   S    
C4    H7    S    
C4    C5    A    
C17   N1    A    
C1    O2    A    
C27   O9    D    
C1    C7    S    
O5    Zn1   S    
C22   C23   T    
C11   C17   A    
C9    C27   S    
O6    Zn2   S    
C16   N2    A    
C8    C9    A    
