data_mof_unit_48241.cif
_audit_creation_date              2012-12-10T20:30:59-0500
_audit_creation_method            fapswitch 2.2
_symmetry_space_group_name_H-M    P1
_symmetry_Int_Tables_number       1
_space_group_crystal_system       triclinic
_cell_length_a                    15.017272
_cell_length_b                    10.678902
_cell_length_c                    9.851043
_cell_angle_alpha                 90.094144
_cell_angle_beta                  90.002694
_cell_angle_gamma                 90.208857
_cell_volume                      1579.77919659

loop_
_atom_site_label
_atom_site_type_symbol
_atom_type_description
_atom_site_fract_x
_atom_site_fract_y
_atom_site_fract_z
_atom_type_partial_charge
C1    C     C_R   0.503442 0.259878 0.499811 0.918791
C2    C     C_R   0.907218 0.507966 0.375471 0.115306
C3    C     C_R   0.953623 0.502423 0.747884 -0.202393
C4    C     C_R   0.046143 0.503098 0.747857 -0.215622
C5    C     C_R   0.092493 0.505015 0.624565 0.119878
C6    C     C_R   0.046173 0.507150 0.500062 0.062509
C7    C     C_R   0.092505 0.509458 0.375561 0.118728
C8    C     C_R   0.046147 0.511800 0.252286 -0.214667
C9    C     C_R   0.953620 0.510981 0.252241 -0.204047
C10   C     C_R   0.184581 0.504026 0.623516 -0.260092
C11   C     C_R   0.230491 0.504450 0.500023 -0.070966
C12   C     C_R   0.326504 0.501101 0.500012 0.879077
C13   C     C_R   0.184610 0.508602 0.376576 -0.254648
C14   C     C_R   0.513736 0.064016 0.622874 0.072681
C15   C     C_R   0.518560 0.128475 0.500304 -0.264653
C16   C     C_R   0.541065 0.063804 0.380493 0.617226
C17   C     C_R   0.540603 0.934206 0.381390 -0.308155
C18   C     C_R   0.518098 0.871182 0.501341 -0.215756
C19   C     C_R   0.513640 0.936350 0.623442 0.199778
C20   C     C_3   0.446177 0.929270 0.734746 -0.430324
C21   C     C_3   0.446179 0.071170 0.734079 -0.476701
C22   C     C_R   0.460742 0.404158 0.071171 0.285549
C23   C     C_R   0.503079 0.740012 0.500131 0.924408
C24   C     C_R   0.546481 0.587475 0.072310 -0.250737
C25   C     C_R   0.546727 0.587360 0.928234 0.627185
C26   C     C_R   0.460397 0.404456 0.928497 0.114111
C27   C     C_3   0.364441 0.368620 0.923693 -0.511921
C28   C     C_3   0.365210 0.366996 0.077564 -0.488459
C29   C     C_R   0.673433 0.500524 0.499990 0.899928
C30   C     C_R   0.815109 0.505996 0.376381 -0.240879
C31   C     C_R   0.769326 0.502571 0.500001 -0.078322
C32   C     C_R   0.815119 0.501819 0.623659 -0.229070
C33   C     C_R   0.907223 0.503704 0.624624 0.110202
C34   C     C_R   0.953530 0.506477 0.500055 0.060058
H1    H     H_    0.779276 0.507015 0.280797 0.170903
H2    H     H_    0.551884 0.884301 0.287125 0.198976
H3    H     H_    0.381944 0.887382 0.700997 0.187357
H4    H     H_    0.474292 0.888949 0.829405 0.242042
H5    H     H_    0.381944 0.111810 0.699693 0.194767
H6    H     H_    0.474293 0.112716 0.828416 0.228340
H7    H     H_    0.582591 0.659386 0.127062 0.179617
H8    H     H_    0.322175 0.444176 0.881683 0.207122
H9    H     H_    0.353493 0.274706 0.878189 0.208350
H10   H     H_    0.322776 0.440861 0.122837 0.199840
H11   H     H_    0.779298 0.499487 0.719229 0.180214
H12   H     H_    0.356071 0.271837 0.121069 0.219152
H13   H     H_    0.918425 0.500475 0.843918 0.147632
H14   H     H_    0.081388 0.501573 0.843866 0.141569
H15   H     H_    0.220183 0.502636 0.718916 0.152180
H16   H     H_    0.220249 0.511045 0.281191 0.152580
H17   H     H_    0.081387 0.513650 0.156279 0.141664
H18   H     H_    0.918420 0.512299 0.156198 0.146962
N1    N     N_R   0.499390 0.499140 0.142800 -0.143643
N2    N     N_R   0.499390 0.499180 0.857150 -0.163955
O1    O     O_R   0.500010 0.316790 0.614690 -0.623138
O2    O     O_R   0.500000 0.316760 0.385350 -0.554189
O3    O     O_R   0.367850 0.499990 0.614680 -0.635210
O4    O     O_R   0.367840 0.499950 0.385340 -0.631380
O5    O     O_R   0.500000 0.683240 0.614650 -0.565465
O6    O     O_R   0.499990 0.683210 0.385310 -0.635386
O7    O     O_R   0.632160 0.500050 0.614660 -0.593423
O8    O     O_R   0.632150 0.500010 0.385320 -0.623300
Zn1   Zn    Zn3+2 0.500010 0.500020 0.653130 0.997627
Zn2   Zn    Zn3+2 0.499990 0.499980 0.346870 0.978695
F1    F     F_    0.592970 0.676897 0.860778 -0.659439
F2    F     F_    0.556778 0.123991 0.261471 -0.655064

loop_
_geom_bond_atom_site_label_1
_geom_bond_atom_site_label_2
_ccdc_geom_bond_type
C14   C19   A    
C7    C13   A    
C11   C12   S    
O2    Zn2   S    
C24   C25   A    
O3    Zn1   S    
C6    C7    A    
C1    C15   S    
C17   H2    S    
C10   H15   S    
C20   H4    S    
C32   H11   S    
O5    Zn1   S    
C19   C20   S    
C8    H17   S    
O6    Zn2   S    
C30   C31   A    
C2    C30   A    
C12   O4    A    
C32   C33   A    
C2    C34   A    
C17   C18   A    
C1    O1    A    
C5    C10   A    
C29   C31   S    
C22   C28   S    
C4    C5    A    
C25   N2    A    
C23   O5    A    
C20   H3    S    
C11   C13   A    
C27   H8    S    
C28   H12   S    
C26   C27   S    
C23   O6    A    
C9    H18   S    
C24   H7    S    
C30   H1    S    
C12   O3    A    
C26   N2    A    
C14   C21   S    
C3    H13   S    
C13   H16   S    
C1    O2    A    
C33   C34   A    
C22   N1    A    
O4    Zn2   S    
C5    C6    A    
N1    Zn2   S    
C29   O7    A    
C16   F2    S    
C10   C11   A    
C3    C33   A    
C22   C26   A    
C15   C16   A    
C27   H9    S    
C7    C8    A    
C25   F1    S    
C20   C21   S    
C6    C34   A    
C4    H14   S    
C18   C19   A    
N2    Zn1   S    
C27   C28   S    
O7    Zn1   S    
C14   C15   A    
C16   C17   A    
O8    Zn2   S    
C24   N1    A    
C29   O8    A    
C2    C9    A    
C21   H5    S    
C28   H10   S    
C31   C32   A    
C3    C4    A    
C18   C23   S    
O1    Zn1   S    
C8    C9    A    
C21   H6    S    
