data_mof_unit_53600.cif
_audit_creation_date              2012-12-10T17:35:40-0500
_audit_creation_method            fapswitch 2.2
_symmetry_space_group_name_H-M    P1
_symmetry_Int_Tables_number       1
_space_group_crystal_system       triclinic
_cell_length_a                    10.831664
_cell_length_b                    12.316303
_cell_length_c                    13.21614
_cell_angle_alpha                 116.243407
_cell_angle_beta                  77.207381
_cell_angle_gamma                 100.660599
_cell_volume                      1534.462769

loop_
_atom_site_label
_atom_site_type_symbol
_atom_type_description
_atom_site_fract_x
_atom_site_fract_y
_atom_site_fract_z
_atom_type_partial_charge
C1    C     C_R   0.518585 0.855437 0.287082 0.778829
C2    C     C_3   0.124791 0.998678 0.496502 0.059238
C3    C     C_3   0.061999 0.089289 0.613220 -0.401182
C4    C     C_3   0.057831 0.868851 0.470626 -0.424184
C5    C     C_R   0.343755 0.289442 0.022466 -0.215678
C6    C     C_R   0.477519 0.229520 0.837099 -0.202524
C7    C     C_R   0.673894 0.804619 0.112528 -0.126793
C8    C     C_R   0.741213 0.714290 0.023202 -0.089493
C9    C     C_R   0.689299 0.593647 0.985483 -0.140288
C10   C     C_R   0.562081 0.561982 0.026973 0.095997
C11   C     C_R   0.496996 0.653397 0.123002 0.082776
C12   C     C_R   0.740772 0.996470 0.495798 0.841182
C13   C     C_R   0.500775 0.440836 0.982323 0.017847
C14   C     C_R   0.392078 0.410324 0.050734 0.116758
C15   C     C_R   0.330405 0.501101 0.145973 -0.181845
C16   C     C_R   0.377254 0.621767 0.176496 -0.181597
C17   C     C_R   0.537480 0.351246 0.870398 -0.068296
C18   C     C_R   0.391491 0.197592 0.919928 -0.031734
C19   C     C_R   0.556211 0.773633 0.167963 -0.092240
C20   C     C_R   0.662756 0.324517 0.299974 -0.274211
C21   C     C_R   0.332037 0.766238 0.651044 0.113535
C22   C     C_R   0.287139 0.669914 0.681552 -0.262594
C23   C     C_R   0.486898 0.145222 0.713821 0.845583
C24   C     C_R   0.337880 0.557691 0.619706 0.015763
C25   C     C_R   0.443709 0.545540 0.530293 -0.082736
C26   C     C_R   0.481345 0.646415 0.499736 0.267033
C27   C     C_R   0.514242 0.439719 0.468531 -0.022943
C28   C     C_R   0.598703 0.428591 0.366385 0.160292
C29   C     C_R   0.623315 0.523625 0.333442 -0.213223
C30   C     C_R   0.574477 0.633067 0.404471 -0.076649
C31   C     C_R   0.510210 0.346388 0.504654 0.093448
C32   C     C_R   0.647013 0.232751 0.336608 0.100362
C33   C     C_R   0.261053 0.000016 0.498939 0.782271
C34   C     C_3   0.967755 0.018474 0.390644 -0.211818
C35   C     C_3   0.109808 0.034122 0.401800 -0.418432
C36   C     C_3   0.923639 0.100955 0.608192 -0.181128
C37   C     C_3   0.911109 0.865079 0.481712 -0.076750
C38   C     C_3   0.880062 0.994589 0.495245 -0.132536
Cu1   Cu    Cu3+1 0.529690 0.098270 0.475420 1.000754
Cu2   Cu    Cu3+1 0.470310 0.901730 0.524580 0.991134
H1    H     H_    0.080549 0.831637 0.526541 0.210287
H2    H     H_    0.065066 0.058363 0.679958 0.212229
H3    H     H_    0.242969 0.479041 0.194755 0.161503
H4    H     H_    0.268166 0.266483 0.081128 0.175128
H5    H     H_    0.720816 0.896221 0.147022 0.174500
H6    H     H_    0.752443 0.526226 0.927192 0.160212
H7    H     H_    0.688129 0.516397 0.256024 0.161234
H8    H     H_    0.724402 0.314191 0.220174 0.150821
H9    H     H_    0.457381 0.351697 0.585453 0.155976
H10   H     H_    0.206859 0.681173 0.749762 0.176105
H11   H     H_    0.615455 0.707794 0.385321 0.231763
H12   H     H_    0.164504 0.976386 0.318590 0.156835
H13   H     H_    0.925806 0.187810 0.601618 0.215245
H14   H     H_    0.117387 0.180228 0.637430 0.186852
N1    N     N_R   0.574690 0.246280 0.438200 -0.191998
N2    N     N_R   0.426100 0.754320 0.561190 -0.208143
O1    O     O_R   0.537340 0.972510 0.318130 -0.593469
O2    O     O_R   0.487200 0.806530 0.359650 -0.613012
O3    O     O_R   0.707380 0.082980 0.479220 -0.560631
O4    O     O_R   0.657240 0.917000 0.520740 -0.541579
O5    O     O_R   0.512800 0.193470 0.640350 -0.577563
O6    O     O_R   0.462660 0.027490 0.681870 -0.544361
O7    O     O_R   0.342760 0.083000 0.479260 -0.571815
O8    O     O_R   0.292620 0.917020 0.520780 -0.610554
C39   C     C_2   0.941342 0.120964 0.366408 0.888815
O9    O     O_2   0.944865 0.226087 0.438736 -0.553228
O10   O     O_R   0.921182 0.094852 0.256726 -0.783738
H15   H     H_    0.916106 0.170794 0.246671 0.329104
C40   C     C_2   0.839318 0.122568 0.722820 0.909989
O11   O     O_2   0.872352 0.206401 0.809114 -0.575956
O12   O     O_R   0.724574 0.051588 0.731987 -0.728165
H16   H     H_    0.680208 0.076478 0.813905 0.353368
C41   C     C_2   0.343810 0.070959 0.902174 0.843187
O13   O     O_2   0.419020 0.995752 0.873110 -0.576167
O14   O     O_R   0.213256 0.039580 0.925685 -0.757067
H17   H     H_    0.192530 0.951254 0.913149 0.330280
C42   C     C_2   0.623383 0.388471 0.783886 0.858608
O15   O     O_2   0.718515 0.336440 0.730001 -0.580538
O16   O     O_R   0.594802 0.483329 0.764641 -0.755935
H18   H     H_    0.660245 0.500768 0.704374 0.336571
H19   H     H_    0.837363 0.736844 0.987859 0.161489
H20   H     H_    0.956622 0.936841 0.310360 0.189607
H21   H     H_    0.321216 0.689703 0.245836 0.152308
H22   H     H_    0.690026 0.149209 0.282994 0.147189
H23   H     H_    0.287324 0.849955 0.696536 0.153870
C43   C     C_2   0.263387 0.454670 0.641534 0.826687
O17   O     O_2   0.234359 0.359985 0.561697 -0.609240
O18   O     O_R   0.220922 0.468287 0.754034 -0.739466
H24   H     H_    0.169092 0.392707 0.758594 0.337586
H25   H     H_    0.151678 0.129734 0.422541 0.246557
C44   C     C_2   0.847444 0.835392 0.584019 0.928322
O19   O     O_2   0.892926 0.881530 0.672549 -0.598563
O20   O     O_R   0.740366 0.750747 0.575655 -0.736139
H26   H     H_    0.708523 0.738328 0.648314 0.345372
C45   C     C_2   0.875165 0.756421 0.373397 0.793360
O21   O     O_2   0.820925 0.767605 0.307154 -0.661169
O22   O     O_R   0.911335 0.642417 0.347592 -0.745251
H27   H     H_    0.898296 0.580106 0.268075 0.329977
H28   H     H_    0.101770 0.808417 0.382984 0.168889

loop_
_geom_bond_atom_site_label_1
_geom_bond_atom_site_label_2
_ccdc_geom_bond_type
C2    C35   S    
C30   H11   S    
C3    H2    S    
O20   H26   S    
Cu2   O4    S    
C41   O13   D    
C45   O21   D    
O22   H27   S    
C7    C8    A    
C42   O15   D    
C11   C19   A    
C37   C38   S    
C29   H7    S    
C7    H5    S    
C28   C29   A    
C3    H14   S    
C43   O18   S    
C4    H1    S    
C15   C16   A    
Cu1   O1    S    
Cu2   O6    S    
C37   C45   S    
C34   C35   S    
C40   O12   S    
C36   H13   S    
C12   O3    A    
C23   O6    A    
Cu1   N1    S    
C8    C9    A    
Cu2   N2    S    
C9    C10   A    
C32   N1    A    
C22   H10   S    
C9    H6    S    
C21   C22   A    
C41   O14   S    
C31   H9    S    
Cu1   O5    S    
C34   C39   S    
C42   O16   S    
C32   H22   S    
C6    C18   A    
C21   H23   S    
C1    C19   S    
Cu2   O2    S    
C37   C44   S    
C27   C31   A    
O10   H15   S    
C24   C25   A    
C44   O19   D    
C43   O17   D    
C5    C18   A    
C20   C28   A    
C39   O10   S    
C25   C26   A    
C16   H21   S    
C8    H19   S    
C2    C4    S    
O14   H17   S    
C29   C30   A    
C1    O1    A    
C44   O20   S    
C11   C16   A    
C33   O7    A    
Cu1   O3    S    
C17   C42   S    
O18   H24   S    
C5    C14   A    
C20   H8    S    
C2    C33   S    
C5    H4    S    
C26   C30   A    
C18   C41   S    
C7    C19   A    
C22   C24   A    
Cu1   Cu2   S    
C36   C40   S    
C20   C32   A    
C6    C17   A    
C34   C38   S    
C10   C13   A    
C26   N2    A    
C21   N2    A    
C45   O22   S    
C25   C27   A    
Cu1   O7    S    
Cu2   O8    S    
C13   C17   A    
C36   C38   S    
C2    C3    S    
C15   H3    S    
O12   H16   S    
C1    O2    A    
C3    C36   S    
C33   O8    A    
C6    C23   S    
C12   C38   S    
C40   O11   D    
C10   C11   A    
O16   H18   S    
C12   O4    A    
C35   H25   S    
C23   O5    A    
C4    C37   S    
C39   O9    D    
C4    H28   S    
C35   H12   S    
C14   C15   A    
C34   H20   S    
C31   N1    A    
C13   C14   A    
C24   C43   S    
C27   C28   A    
