data_mof_unit_47112.cif
_audit_creation_date              2012-12-11T14:35:51-0500
_audit_creation_method            fapswitch 2.2
_symmetry_space_group_name_H-M    P1
_symmetry_Int_Tables_number       1
_space_group_crystal_system       triclinic
_cell_length_a                    14.61673
_cell_length_b                    15.973846
_cell_length_c                    6.915193
_cell_angle_alpha                 89.999899
_cell_angle_beta                  81.026643
_cell_angle_gamma                 90.0
_cell_volume                      1594.83547818

loop_
_atom_site_label
_atom_site_type_symbol
_atom_type_description
_atom_site_fract_x
_atom_site_fract_y
_atom_site_fract_z
_atom_type_partial_charge
O1    O     O_R   0.337460 0.413110 0.524760 -0.502632
O2    O     O_R   0.662540 0.913110 0.475240 -0.502628
O3    O     O_R   0.348690 0.587910 0.191230 -0.549233
O4    O     O_R   0.651310 0.087910 0.808770 -0.549233
O5    O     O_R   0.166530 0.586890 0.082470 -0.543395
O6    O     O_R   0.833470 0.086890 0.917530 -0.543394
C1    C     C_R   0.370000 0.616627 0.353533 0.742878
C2    C     C_R   0.629999 0.116627 0.646467 0.742876
O7    O     O_R   0.348700 0.413830 0.191250 -0.540342
O8    O     O_R   0.651300 0.913830 0.808750 -0.540345
O9    O     O_R   0.166530 0.411570 0.082490 -0.545820
O10   O     O_R   0.833470 0.911570 0.917510 -0.545824
C3    C     C_R   0.370480 0.384850 0.354142 0.787669
C4    C     C_R   0.629520 0.884850 0.645858 0.787680
O11   O     O_R   0.337460 0.588430 0.524740 -0.538007
O12   O     O_R   0.662540 0.088430 0.475260 -0.538007
O13   O     O_3   0.192230 0.499460 0.407330 -0.384693
O14   O     O_3   0.807770 0.999460 0.592670 -0.384692
V1    V     V_3+5 0.263080 0.500100 0.108540 1.415268
V2    V     V_3+5 0.736920 0.000100 0.891460 1.415262
O15   O     O_R   0.155290 0.412090 0.756570 -0.545618
O16   O     O_R   0.844710 0.912090 0.243430 -0.545614
C5    C     C_R   0.132552 0.382808 0.933482 0.638578
C6    C     C_R   0.867447 0.882808 0.066518 0.638566
O17   O     O_R   0.155290 0.586170 0.756550 -0.547197
O18   O     O_R   0.844710 0.086170 0.243450 -0.547197
C7    C     C_R   0.133005 0.615757 0.932715 0.642457
C8    C     C_R   0.866994 0.115757 0.067285 0.642460
V3    V     V_3+5 0.240910 0.499900 0.616030 1.417037
V4    V     V_3+5 0.759090 0.999900 0.383970 1.417040
O19   O     O_3   0.311760 0.500540 0.867100 -0.348348
O20   O     O_3   0.688240 0.000540 0.132900 -0.348351
C9    C     C_3   0.104680 0.765431 0.052554 -0.317376
C10   C     C_3   0.895326 0.265425 0.947411 -0.317376
H1    H     H_    0.129586 0.748890 0.191780 0.134550
H2    H     H_    0.870430 0.248877 0.808181 0.134556
H3    H     H_    0.165804 0.787495 0.948693 0.122255
H4    H     H_    0.834197 0.287493 0.051248 0.122256
C11   C     C_3   0.032295 0.837470 0.091971 -0.318920
C12   C     C_3   0.967710 0.337464 0.907993 -0.318922
H5    H     H_    0.059604 0.894393 0.009805 0.115368
H6    H     H_    0.940397 0.394390 0.990135 0.115367
H7    H     H_    0.021669 0.853662 0.250425 0.136678
H8    H     H_    0.978347 0.353648 0.749535 0.136684
H9    H     H_    0.997135 0.642710 0.256597 0.138201
H10   H     H_    0.002882 0.142699 0.743435 0.138198
H11   H     H_    0.887762 0.746645 0.306653 0.130761
H12   H     H_    0.112255 0.246633 0.693378 0.130748
C13   C     C_3   0.976038 0.660129 0.114062 -0.312324
C14   C     C_3   0.023968 0.160125 0.885971 -0.312326
C15   C     C_3   0.028650 0.713948 0.773557 -0.313778
C16   C     C_3   0.971335 0.213960 0.226447 -0.313782
C17   C     C_3   0.062320 0.686985 0.966927 0.117708
C18   C     C_3   0.937679 0.186986 0.033074 0.117703
H13   H     H_    0.995744 0.659846 0.709743 0.132447
H14   H     H_    0.004235 0.159863 0.290287 0.132455
H15   H     H_    0.088766 0.733937 0.664135 0.132239
H16   H     H_    0.911213 0.233952 0.335845 0.132237
C19   C     C_3   0.938567 0.811661 0.030215 0.119992
C20   C     C_3   0.061432 0.311662 0.969786 0.119990
C21   C     C_3   0.903420 0.731954 0.147617 -0.329264
C22   C     C_3   0.096586 0.231950 0.852416 -0.329268
C23   C     C_3   0.958140 0.786832 0.809618 -0.304275
C24   C     C_3   0.041844 0.286844 0.190386 -0.304273
H17   H     H_    0.985716 0.841769 0.719928 0.134811
H18   H     H_    0.014263 0.341785 0.280052 0.134804
H19   H     H_    0.892559 0.767663 0.759060 0.126755
H20   H     H_    0.107420 0.267680 0.240972 0.126763
H21   H     H_    0.944045 0.603684 0.057973 0.113334
H22   H     H_    0.055956 0.103685 0.942086 0.113335
H23   H     H_    0.838317 0.710023 0.100209 0.110592
H24   H     H_    0.161684 0.210023 0.899850 0.110596
H25   H     H_    0.441528 0.689073 0.646540 0.132844
H26   H     H_    0.558473 0.189076 0.353465 0.132848
C25   C     C_2   0.437958 0.684348 0.341964 -0.319198
C26   C     C_2   0.562041 0.184348 0.658035 -0.319203
C27   C     C_2   0.468365 0.714078 0.502608 -0.238108
C28   C     C_2   0.531637 0.214080 0.497393 -0.238118
H27   H     H_    0.529472 0.793390 0.795303 0.105964
H28   H     H_    0.470525 0.293389 0.204698 0.105963
C29   C     C_2   0.561494 0.816099 0.652473 -0.445589
C30   C     C_2   0.438505 0.316099 0.347528 -0.445593
C31   C     C_2   0.539119 0.780538 0.487724 0.500291
C32   C     C_2   0.460882 0.280540 0.512277 0.500304
H29   H     H_    0.463721 0.709798 0.198079 0.162506
H30   H     H_    0.536277 0.209796 0.801917 0.162519
O21   O     O_3   0.577284 0.809023 0.303054 -0.529323
C33   C     C_3   0.652971 0.757230 0.230232 -0.197851
H31   H     H_    0.685499 0.781768 0.085722 0.145668
H32   H     H_    0.630668 0.691838 0.208110 0.108672
H33   H     H_    0.706271 0.757794 0.328885 0.105774
O22   O     O_3   0.422721 0.309025 0.696946 -0.529319
C34   C     C_3   0.347036 0.257232 0.769771 -0.197915
H34   H     H_    0.314563 0.281725 0.914356 0.145666
H35   H     H_    0.369319 0.191820 0.791732 0.108656
H36   H     H_    0.293700 0.257860 0.671210 0.105843

loop_
_geom_bond_atom_site_label_1
_geom_bond_atom_site_label_2
_ccdc_geom_bond_type
C31   O21   S    
O21   C33   S    
C23   H17   S    
C34   H34   S    
C12   C20   S    
O13   V3    S    
O4    C2    A    
V1    O19   S    
C11   H5    S    
O9    V1    S    
C14   C18   S    
C10   C12   S    
C24   H20   S    
C26   C28   D    
O3    C1    A    
C27   C31   S    
O12   V4    S    
C2    C26   S    
C20   C22   S    
O7    V1    S    
O7    C3    A    
O13   V1    S    
O5    C7    A    
C25   H29   S    
O6    C8    A    
O8    V2    S    
O3    V1    S    
O14   V4    S    
C15   H13   S    
C21   H23   S    
C12   H6    S    
C2    O12   A    
C13   H21   S    
O17   V3    S    
C29   C31   D    
C16   C18   S    
O11   V3    S    
C9    C17   S    
C5    C20   S    
C23   H19   S    
C19   C21   S    
C13   C21   S    
C15   C23   S    
H28   C30   S    
C16   C24   S    
H27   C29   S    
C8    C18   S    
C1    C25   S    
C1    O11   A    
O15   V3    S    
C3    C30   S    
C9    H3    S    
C15   C17   S    
C24   H18   S    
H12   C22   S    
C33   H33   S    
H9    C13   S    
C11   C19   S    
O10   V2    S    
O1    V3    S    
C22   H24   S    
C9    C11   S    
C25   C27   D    
C16   H16   S    
C15   H15   S    
C33   H32   S    
C10   C18   S    
C34   H36   S    
C30   C32   D    
O15   C5    A    
O8    C4    A    
C14   C22   S    
O16   C6    A    
O1    C3    A    
C26   H30   S    
V2    O20   S    
O10   C6    A    
O16   V4    S    
C10   H4    S    
C19   C23   S    
H11   C21   S    
C11   H7    S    
C7    C17   S    
O18   V4    S    
O5    V1    S    
O17   C7    A    
O6    V2    S    
H10   C14   S    
O18   C8    A    
O2    V4    S    
C20   C24   S    
C14   H22   S    
V3    O19   S    
V4    O20   S    
C6    C19   S    
C13   C17   S    
O9    C5    A    
O22   C34   S    
C9    H1    S    
C10   H2    S    
O14   V2    S    
O2    C4    A    
O4    V2    S    
C28   C32   S    
C12   H8    S    
C33   H31   S    
C34   H35   S    
H26   C28   S    
H25   C27   S    
C32   O22   S    
C4    C29   S    
C16   H14   S    
