data_mof_unit_46133.cif
_audit_creation_date              2012-12-10T16:36:46-0500
_audit_creation_method            fapswitch 2.2
_symmetry_space_group_name_H-M    P1
_symmetry_Int_Tables_number       1
_space_group_crystal_system       triclinic
_cell_length_a                    14.158884
_cell_length_b                    16.433367
_cell_length_c                    15.142909
_cell_angle_alpha                 89.860844
_cell_angle_beta                  91.791237
_cell_angle_gamma                 89.952231
_cell_volume                      3521.69029948

loop_
_atom_site_label
_atom_site_type_symbol
_atom_type_description
_atom_site_fract_x
_atom_site_fract_y
_atom_site_fract_z
_atom_type_partial_charge
C1    C     C_R   0.678888 0.844418 0.518660 0.542880
C2    C     C_R   0.949805 0.507541 0.108054 0.241120
C3    C     C_R   0.622505 0.995035 0.122966 0.169000
C4    C     C_R   0.122489 0.494061 0.123088 0.169050
C5    C     C_R   0.626631 0.003315 0.030981 0.241298
C6    C     C_R   0.126779 0.502278 0.031116 0.241373
C7    C     C_2   0.245545 0.216719 0.480223 0.208038
C8    C     C_2   0.253217 0.776742 0.471692 0.212327
C9    C     C_2   0.745395 0.716594 0.480513 0.217562
C10   C     C_2   0.753143 0.276823 0.471764 0.208475
C11   C     C_2   0.752445 0.786108 0.528912 0.210067
C12   C     C_R   0.679169 0.155282 0.519508 0.554541
C13   C     C_2   0.750740 0.215294 0.531727 0.207451
C14   C     C_2   0.252343 0.286030 0.528958 0.242339
C15   C     C_2   0.250567 0.715499 0.531974 0.253481
C16   C     C_R   0.320122 0.156042 0.481521 0.528319
C17   C     C_R   0.320524 0.843444 0.480948 0.546223
C18   C     C_R   0.820110 0.656037 0.481548 0.523925
C19   C     C_R   0.820534 0.343444 0.480958 0.533475
C20   C     C_R   0.521508 0.999750 0.260086 0.539243
C21   C     C_R   0.021507 0.499664 0.260103 0.536898
C22   C     C_R   0.476856 0.999796 0.738090 0.597167
C23   C     C_R   0.178864 0.344399 0.518640 0.566654
C24   C     C_R   0.976986 0.499820 0.738109 0.599827
C25   C     C_R   0.532296 0.999902 0.162824 -0.044691
C26   C     C_R   0.032313 0.499642 0.162871 -0.043721
C27   C     C_R   0.467154 0.998446 0.832882 -0.036125
C28   C     C_R   0.967343 0.498582 0.832910 -0.026430
C29   C     C_R   0.371120 0.987177 0.961686 0.264892
C30   C     C_R   0.871152 0.488152 0.961659 0.267429
C31   C     C_R   0.377354 0.001758 0.870321 0.183943
C32   C     C_R   0.877596 0.502727 0.870335 0.200668
C33   C     C_R   0.549076 0.987147 0.885671 0.214169
C34   C     C_R   0.179212 0.655258 0.519641 0.559501
C35   C     C_R   0.049182 0.486856 0.885714 0.214830
C36   C     C_3   0.355456 0.111918 0.149537 0.033213
C37   C     C_3   0.263241 0.132538 0.194513 -0.232364
C38   C     C_3   0.256387 0.223007 0.214946 -0.427890
C39   C     C_3   0.856563 0.612740 0.149978 0.033163
C40   C     C_3   0.764282 0.633845 0.194602 -0.231981
C41   C     C_3   0.758629 0.724123 0.216333 -0.428535
C42   C     C_3   0.727113 0.099408 0.980754 0.059556
C43   C     C_3   0.819626 0.112250 0.933267 -0.234829
C44   C     C_3   0.837512 0.202270 0.915266 -0.414042
C45   C     C_R   0.543806 0.995827 0.977494 -0.087682
C46   C     C_3   0.228721 0.597691 0.982088 0.063473
C47   C     C_3   0.322052 0.610042 0.935847 -0.231114
C48   C     C_3   0.341742 0.700083 0.919829 -0.437056
C49   C     C_3   0.643908 0.891798 0.819901 0.058769
C50   C     C_3   0.727616 0.850021 0.868429 -0.212323
C51   C     C_3   0.697678 0.803904 0.950683 -0.422101
C52   C     C_3   0.143666 0.391325 0.819788 0.054017
C53   C     C_3   0.227668 0.349454 0.867738 -0.228236
C54   C     C_3   0.198263 0.303149 0.950044 -0.415136
C55   C     C_3   0.593840 0.665849 0.473326 0.027021
C56   C     C_R   0.043928 0.495476 0.977556 -0.087233
C57   C     C_3   0.584747 0.575670 0.449348 -0.285977
C58   C     C_3   0.500578 0.536726 0.493845 -0.413117
C59   C     C_3   0.619038 0.321495 0.398557 0.004626
C60   C     C_3   0.556247 0.308321 0.315819 -0.264693
C61   C     C_3   0.469711 0.363816 0.314534 -0.435347
C62   C     C_3   0.093863 0.166349 0.471561 0.024553
C63   C     C_3   0.083909 0.076573 0.446155 -0.274570
C64   C     C_3   0.999321 0.037658 0.489980 -0.432766
C65   C     C_3   0.119908 0.821492 0.397172 0.005847
C66   C     C_3   0.056897 0.807053 0.314835 -0.265289
C67   C     C_R   0.454156 0.995701 0.016251 -0.107014
C68   C     C_3   0.971196 0.863521 0.312028 -0.437433
C69   C     C_R   0.954241 0.495989 0.016266 -0.108445
C70   C     C_R   0.449687 0.007254 0.108042 0.240957
H1    H     H_    0.353630 0.139499 0.082180 0.128022
H2    H     H_    0.703363 0.617539 0.150238 0.207118
H3    H     H_    0.758876 0.598187 0.256662 0.222568
H4    H     H_    0.814109 0.740302 0.266661 0.165401
H5    H     H_    0.688500 0.737973 0.243498 0.217320
H6    H     H_    0.767688 0.761329 0.155898 0.143644
H7    H     H_    0.812420 0.902753 0.097076 0.335976
H8    H     H_    0.311409 0.399957 0.097638 0.335073
H9    H     H_    0.162890 0.854148 0.950870 0.359193
H10   H     H_    0.661765 0.356568 0.950138 0.353246
H11   H     H_    0.731821 0.130927 0.045839 0.163092
H12   H     H_    0.415552 0.138475 0.189143 0.101720
H13   H     H_    0.668399 0.126616 0.939637 0.142502
H14   H     H_    0.879246 0.087301 0.974503 0.205851
H15   H     H_    0.816646 0.078932 0.869430 0.236793
H16   H     H_    0.779483 0.227953 0.872725 0.216125
H17   H     H_    0.904999 0.209384 0.880610 0.186762
H18   H     H_    0.842492 0.236642 0.978295 0.186962
H19   H     H_    0.233012 0.628637 0.047518 0.162926
H20   H     H_    0.170868 0.625771 0.940607 0.149027
H21   H     H_    0.380736 0.583692 0.977214 0.206155
H22   H     H_    0.319255 0.577782 0.871364 0.225167
H23   H     H_    0.202233 0.115027 0.150835 0.207904
H24   H     H_    0.284623 0.727152 0.877246 0.217787
H25   H     H_    0.409795 0.706886 0.886048 0.157056
H26   H     H_    0.346561 0.733377 0.983547 0.191729
H27   H     H_    0.132242 0.067450 0.822012 0.368467
H28   H     H_    0.632652 0.569040 0.821560 0.361297
H29   H     H_    0.659147 0.892521 0.748381 0.192557
H30   H     H_    0.578516 0.854408 0.826297 0.116760
H31   H     H_    0.759723 0.805350 0.823267 0.195810
H32   H     H_    0.782919 0.895428 0.886763 0.232263
H33   H     H_    0.663623 0.845195 0.997796 0.178891
H34   H     H_    0.258891 0.097569 0.257129 0.221630
H35   H     H_    0.760815 0.776105 0.984036 0.139820
H36   H     H_    0.647454 0.754497 0.932025 0.166665
H37   H     H_    0.158394 0.392092 0.748165 0.189124
H38   H     H_    0.078294 0.353988 0.826588 0.134291
H39   H     H_    0.259457 0.304878 0.822286 0.189695
H40   H     H_    0.283100 0.394815 0.885859 0.220747
H41   H     H_    0.164404 0.344310 0.997416 0.179827
H42   H     H_    0.261622 0.275354 0.983012 0.137495
H43   H     H_    0.148017 0.253722 0.931513 0.169532
H44   H     H_    0.526586 0.697106 0.454251 0.184958
H45   H     H_    0.312233 0.240501 0.264375 0.166560
H46   H     H_    0.602629 0.671947 0.546640 0.164154
H47   H     H_    0.575668 0.569266 0.376516 0.184273
H48   H     H_    0.649975 0.542835 0.471172 0.183620
H49   H     H_    0.508382 0.542319 0.566800 0.205226
H50   H     H_    0.496936 0.471131 0.476993 0.171624
H51   H     H_    0.433632 0.566400 0.470925 0.199606
H52   H     H_    0.639807 0.386730 0.401829 0.156492
H53   H     H_    0.577853 0.305851 0.457547 0.172633
H54   H     H_    0.597729 0.320925 0.256172 0.212683
H55   H     H_    0.532558 0.243835 0.313288 0.153093
H56   H     H_    0.186410 0.236381 0.242686 0.217205
H57   H     H_    0.425062 0.350500 0.371823 0.189447
H58   H     H_    0.427150 0.353540 0.252782 0.189550
H59   H     H_    0.491666 0.428662 0.316316 0.176456
H60   H     H_    0.027012 0.198357 0.452755 0.183197
H61   H     H_    0.102453 0.171415 0.544988 0.165104
H62   H     H_    0.074833 0.071180 0.373223 0.184012
H63   H     H_    0.148795 0.043009 0.467504 0.186588
H64   H     H_    0.007054 0.042366 0.563015 0.210062
H65   H     H_    0.995115 0.972286 0.472243 0.163444
H66   H     H_    0.932672 0.068016 0.467394 0.188605
H67   H     H_    0.264027 0.259536 0.153827 0.142466
H68   H     H_    0.141139 0.886648 0.398866 0.159811
H69   H     H_    0.078675 0.807321 0.456557 0.176389
H70   H     H_    0.098517 0.817741 0.254848 0.213021
H71   H     H_    0.032271 0.742803 0.314093 0.151508
H72   H     H_    0.926264 0.851955 0.369557 0.184376
H73   H     H_    0.928589 0.852471 0.250468 0.188390
H74   H     H_    0.994113 0.928133 0.312257 0.176803
H75   H     H_    0.375081 0.422371 0.684880 0.372923
H76   H     H_    0.354102 0.795268 0.737377 0.365863
H77   H     H_    0.837975 0.949087 0.593454 0.356706
H78   H     H_    0.855416 0.640678 0.082800 0.127834
H79   H     H_    0.734024 0.294256 0.707595 0.362621
H80   H     H_    0.916725 0.638633 0.190027 0.102198
O1    O     O_3   0.500000 0.000000 0.500000 -0.491228
O2    O     O_R   0.885830 0.337110 0.539910 -0.476922
O3    O     O_R   0.692160 0.095230 0.468550 -0.521683
O4    O     O_R   0.692160 0.904770 0.468550 -0.520502
O5    O     O_R   0.192160 0.595230 0.468550 -0.518072
O6    O     O_R   0.192160 0.404770 0.468550 -0.493664
O7    O     O_R   0.316720 0.904790 0.427870 -0.536580
O8    O     O_R   0.316720 0.095210 0.427870 -0.563204
O9    O     O_R   0.816720 0.404790 0.427870 -0.537088
O10   O     O_R   0.816720 0.595210 0.427870 -0.563790
O11   O     O_R   0.594900 1.000000 0.310900 -0.460300
O12   O     O_3   0.000000 0.500000 0.500000 -0.500673
O13   O     O_R   0.094900 0.500000 0.310900 -0.464002
O14   O     O_R   0.483090 0.932320 0.697550 -0.558031
O15   O     O_R   0.483090 0.067680 0.697550 -0.466866
O16   O     O_R   0.983090 0.432320 0.697550 -0.527390
O17   O     O_R   0.983090 0.567680 0.697550 -0.468295
O18   O     O_R   0.438930 0.000000 0.294000 -0.503650
O19   O     O_R   0.938930 0.500000 0.294000 -0.504197
O20   O     O_3   0.363926 0.026397 0.144299 -0.459509
O21   O     O_3   0.864167 0.527182 0.144265 -0.459618
O22   O     O_2   0.755769 0.054475 0.235727 -0.222430
O23   O     O_R   0.605310 0.837110 0.563680 -0.559497
O24   O     O_2   0.723232 0.908576 0.246066 -0.306615
O25   O     O_3   0.822761 0.959294 0.117682 -0.479509
O26   O     O_2   0.256444 0.552579 0.235724 -0.222770
O27   O     O_2   0.222103 0.407021 0.246473 -0.307208
O28   O     O_3   0.322306 0.456504 0.117965 -0.482509
O29   O     O_2   0.297074 0.881220 0.077046 -0.272113
O30   O     O_2   0.200204 0.999448 0.034773 -0.225419
O31   O     O_3   0.215758 0.882001 0.921995 -0.470715
O32   O     O_2   0.796194 0.382271 0.076536 -0.270415
O33   O     O_2   0.700368 0.501279 0.034830 -0.227363
O34   O     O_R   0.605310 0.162890 0.563680 -0.525342
O35   O     O_3   0.714903 0.384190 0.921434 -0.480730
O36   O     O_3   0.713067 0.015069 0.992869 -0.490677
O37   O     O_3   0.213362 0.513407 0.993094 -0.492337
O38   O     O_2   0.297476 0.092599 0.739353 -0.276344
O39   O     O_2   0.244660 0.951758 0.751883 -0.213544
O40   O     O_3   0.185455 0.057653 0.864751 -0.460166
O41   O     O_2   0.798694 0.595679 0.740822 -0.277461
O42   O     O_2   0.745857 0.454634 0.750139 -0.251633
O43   O     O_3   0.685481 0.558599 0.864535 -0.462926
O44   O     O_3   0.635473 0.974105 0.847038 -0.518616
O45   O     O_R   0.105310 0.337110 0.563680 -0.564075
O46   O     O_3   0.135539 0.473610 0.847079 -0.521311
O47   O     O_3   0.666832 0.702802 0.425198 -0.610494
O48   O     O_3   0.699484 0.271123 0.393568 -0.569487
O49   O     O_3   0.167441 0.203308 0.424225 -0.616033
O50   O     O_3   0.200021 0.770593 0.393261 -0.577793
O51   O     O_2   0.354841 0.258497 0.679069 -0.251238
O52   O     O_2   0.437205 0.320501 0.555509 -0.330588
O53   O     O_3   0.322186 0.410348 0.642574 -0.542521
O54   O     O_2   0.275941 0.639687 0.689436 -0.280254
O55   O     O_2   0.416637 0.693221 0.620223 -0.335318
O56   O     O_R   0.105310 0.662890 0.563680 -0.507276
O57   O     O_3   0.301771 0.795721 0.692406 -0.457311
O58   O     O_2   0.856302 0.759552 0.678505 -0.207182
O59   O     O_2   0.937964 0.820318 0.554415 -0.327043
O60   O     O_3   0.824064 0.910939 0.642097 -0.519164
O61   O     O_2   0.779358 0.136535 0.687234 -0.298623
O62   O     O_2   0.918017 0.194038 0.618946 -0.285036
O63   O     O_3   0.801969 0.292856 0.693949 -0.464786
O64   O     O_R   0.385830 0.162890 0.539910 -0.468676
O65   O     O_R   0.385830 0.837110 0.539910 -0.487459
O66   O     O_R   0.885830 0.662890 0.539910 -0.472764
S1    S     S_3+6 0.731997 0.979150 0.183520 0.026619
S2    S     S_3+6 0.814927 0.207428 0.634800 0.007016
S3    S     S_3+6 0.231764 0.477335 0.183725 0.025654
S4    S     S_3+6 0.268938 0.937515 0.002296 0.080826
S5    S     S_3+6 0.768545 0.439024 0.002052 0.083007
S6    S     S_3+6 0.275030 0.025802 0.803242 0.065845
S7    S     S_3+6 0.775678 0.527821 0.803187 0.060576
S8    S     S_3+6 0.345758 0.317147 0.602963 -0.000803
S9    S     S_3+6 0.313800 0.708728 0.635646 0.016438
S10   S     S_3+6 0.846548 0.817670 0.602016 0.016473
Zn1   Zn    Zn3+2 0.493670 0.096680 0.574000 1.065725
Zn2   Zn    Zn3+2 0.493670 0.903320 0.574000 0.999414
Zn3   Zn    Zn3+2 0.993670 0.596680 0.574000 1.080648
Zn4   Zn    Zn3+2 0.993670 0.403320 0.574000 1.026685
Zn5   Zn    Zn3+2 0.617760 0.000000 0.438070 1.029827
Zn6   Zn    Zn3+2 0.117760 0.500000 0.438070 1.049060
Zn7   Zn    Zn3+2 0.394920 0.000000 0.413930 0.957051
Zn8   Zn    Zn3+2 0.894920 0.500000 0.413930 0.951261

loop_
_geom_bond_atom_site_label_1
_geom_bond_atom_site_label_2
_ccdc_geom_bond_type
C53   H40   S    
C66   C68   S    
C21   C26   S    
C64   H66   S    
C21   O13   A    
C48   H25   S    
O29   S4    D    
C57   H48   S    
C33   C45   A    
C47   H22   S    
C62   H60   S    
O1    Zn1   S    
C52   O46   S    
C12   O3    A    
C32   S7    S    
C61   H57   S    
C46   H19   S    
C55   O47   S    
C53   C54   S    
C27   C33   A    
C39   H80   S    
C1    O23   A    
O59   S10   D    
C62   C63   S    
C48   H24   S    
C15   S9    S    
C55   H46   S    
C63   H63   S    
C14   S8    S    
C60   H55   S    
C2    C69   A    
C62   O49   S    
O40   S6    S    
O8    Zn7   S    
O4    Zn5   S    
C49   H29   S    
C49   O44   S    
C59   O48   S    
C51   H33   S    
O1    Zn7   S    
C54   H43   S    
C48   H26   S    
O5    Zn6   S    
O15   Zn1   S    
C40   H3    S    
C68   H73   S    
O65   Zn2   S    
C60   H54   S    
O53   S8    S    
C39   O21   S    
O58   S10   D    
C41   H4    S    
O11   Zn5   S    
C22   O15   A    
O57   S9    S    
C29   S4    S    
O1    Zn5   S    
C28   C35   A    
C36   H12   S    
O32   S5    D    
O26   S3    D    
C1    C11   S    
C39   H78   S    
C45   C67   A    
H10   O35   S    
C68   H72   S    
C13   S2    S    
H77   O60   S    
C17   O7    A    
C15   C34   S    
C36   H1    S    
O33   S5    D    
C2    O21   S    
C42   O36   S    
C59   H52   S    
O1    Zn2   S    
C64   H65   S    
C59   C60   S    
O16   Zn4   S    
O35   S5    S    
C23   O6    A    
O56   Zn3   S    
C43   H14   S    
O60   S10   S    
C42   H11   S    
C5    O36   S    
O27   S3    D    
C44   H16   S    
C10   O48   S    
C38   H56   S    
C9    O47   S    
C50   C51   S    
C30   S5    S    
O2    Zn4   S    
C7    C14   D    
C59   H53   S    
C20   O18   A    
C64   H64   S    
O19   Zn8   S    
C27   C31   A    
C43   H15   S    
O52   S8    D    
O28   S3    S    
C3    C25   A    
C24   O17   A    
C18   O10   A    
C52   H37   S    
C2    C26   A    
O13   Zn6   S    
C39   C40   S    
H75   O53   S    
O39   S6    D    
C34   O5    A    
C16   O8    A    
O25   S1    S    
C10   C13   D    
C34   O56   A    
H9    O31   S    
H28   O43   S    
C60   C61   S    
O12   Zn8   S    
C14   C23   S    
C24   O16   A    
C43   C44   S    
H27   O40   S    
C37   C38   S    
C66   H71   S    
C41   H5    S    
C31   S6    S    
C22   O14   A    
O6    Zn6   S    
C47   C48   S    
C28   C32   A    
C10   C19   S    
C3    S1    S    
C4    S3    S    
O31   S4    S    
C58   H50   S    
C19   O2    A    
C37   H23   S    
O14   Zn2   S    
O24   S1    D    
C63   H62   S    
C16   O64   A    
O55   S9    D    
O64   Zn1   S    
C9    C11   D    
C52   H38   S    
O12   Zn4   S    
C35   O46   S    
C65   H68   S    
C4    C6    A    
C40   C41   S    
C33   O44   S    
C65   C66   S    
C8    C15   D    
C18   O66   A    
C22   C27   S    
C55   C57   S    
C46   O37   S    
O9    Zn8   S    
C8    O50   S    
C42   C43   S    
C57   H47   S    
C44   H17   S    
O41   S7    D    
C30   C69   A    
C52   C53   S    
O66   Zn3   S    
C53   H39   S    
O61   S2    D    
C46   C47   S    
C36   C37   S    
C58   H51   S    
C40   H2    S    
C35   C56   A    
H8    O28   S    
C47   H21   S    
C62   H61   S    
C7    C16   S    
C42   H13   S    
C24   C28   S    
O42   S7    D    
C6    C56   A    
H76   O57   S    
C3    C5    A    
O23   Zn2   S    
C37   H34   S    
C4    C26   A    
O63   S2    S    
C50   H32   S    
C46   H20   S    
C55   H44   S    
C61   H59   S    
C65   O50   S    
C36   O20   S    
C8    C17   S    
O51   S8    D    
C5    C45   A    
C67   C70   A    
C19   O9    A    
C49   C50   S    
C70   O20   S    
C29   C31   A    
C29   C67   A    
C49   H30   S    
C30   C32   A    
C38   H45   S    
O7    Zn7   S    
C57   C58   S    
C12   O34   A    
O3    Zn5   S    
C51   H36   S    
C21   O19   A    
C20   O11   A    
C6    O37   S    
C58   H49   S    
C38   H67   S    
C41   H6    S    
C54   H41   S    
C68   H74   S    
C61   H58   S    
C44   H18   S    
C7    O49   S    
C1    O4    A    
H79   O63   S    
C51   H35   S    
O12   Zn3   S    
O30   S4    D    
C63   C64   S    
C65   H69   S    
C9    C18   S    
O43   S7    S    
C66   H70   S    
C12   C13   S    
O45   Zn4   S    
C50   H31   S    
H7    O25   S    
C56   C69   A    
C20   C25   S    
C23   O45   A    
C11   S10   S    
C54   H42   S    
O17   Zn3   S    
O10   Zn8   S    
C25   C70   A    
O34   Zn1   S    
O54   S9    D    
C17   O65   A    
O12   Zn6   S    
O22   S1    D    
O18   Zn7   S    
O62   S2    D    
O38   S6    D    
