data_mof_unit_25463.cif
_audit_creation_date              2013-03-05T15:55:45-0500
_audit_creation_method            fapswitch 2.2
_symmetry_space_group_name_H-M    P1
_symmetry_Int_Tables_number       1
_space_group_crystal_system       triclinic
_cell_length_a                    10.6051
_cell_length_b                    12.332087
_cell_length_c                    13.113671
_cell_angle_alpha                 116.623714
_cell_angle_beta                  77.507343
_cell_angle_gamma                 101.416324
_cell_volume                      1486.84065583

loop_
_atom_site_label
_atom_site_type_symbol
_atom_site_description
_atom_site_fract_x
_atom_site_fract_y
_atom_site_fract_z
_atom_type_partial_charge
O1    O     O_R   0.537510 0.972500 0.318130 -0.578980
O2    O     O_R   0.487140 0.806530 0.359650 -0.613903
C1    C     C_R   0.509219 0.855026 0.286314 0.790940
O3    O     O_R   0.708330 0.082950 0.479220 -0.590655
O4    O     O_R   0.657960 0.916980 0.520740 -0.580009
C2    C     C_R   0.740502 0.999743 0.499781 0.790949
Cu1   Cu    Cu3+1 0.529830 0.098270 0.475420 0.968047
Cu2   Cu    Cu3+1 0.470170 0.901730 0.524580 0.973505
O5    O     O_R   0.512860 0.193470 0.640350 -0.595447
O6    O     O_R   0.462490 0.027500 0.681870 -0.527656
O7    O     O_R   0.342040 0.083020 0.479260 -0.551684
O8    O     O_R   0.291670 0.917050 0.520780 -0.612479
C3    C     C_R   0.480947 0.145140 0.714385 0.829182
C4    C     C_R   0.259482 0.000196 0.500199 0.788650
C5    C     C_3   0.986302 0.092562 0.477453 -0.078075
C6    C     C_3   0.066524 0.985781 0.396023 -0.156893
H1    H     H_    0.124273 0.974421 0.311158 0.157486
H2    H     H_    0.972569 0.168650 0.459015 0.175128
C7    C     C_3   0.122417 0.999707 0.500110 -0.005625
C8    C     C_3   0.044411 0.106292 0.581569 -0.125526
C9    C     C_3   0.933395 0.013751 0.603850 -0.155578
C10   C     C_3   0.013655 0.907002 0.522435 -0.116244
C11   C     C_3   0.955479 0.893238 0.418331 -0.186932
C12   C     C_3   0.877522 0.999908 0.499776 -0.017006
H3    H     H_    0.084035 0.193218 0.648336 0.196994
H4    H     H_    0.875674 0.025050 0.688715 0.181749
H5    H     H_    0.027459 0.830939 0.540884 0.160646
H6    H     H_    0.915686 0.806129 0.351811 0.135153
C13   C     C_R   0.333333 0.276429 0.029609 -0.234568
H7    H     H_    0.251551 0.456986 0.226981 0.155038
H8    H     H_    0.274322 0.246600 0.093022 0.178010
C14   C     C_R   0.453856 0.227955 0.837682 -0.170959
C15   C     C_R   0.575595 0.817511 0.081236 -0.244845
C16   C     C_R   0.590392 0.740425 0.963374 0.393761
C17   C     C_R   0.545914 0.615982 0.927800 -0.255786
C18   C     C_R   0.481071 0.568506 0.008179 0.043530
C19   C     C_R   0.449212 0.651406 0.124556 0.081734
C20   C     C_R   0.445634 0.441334 0.976782 0.113537
C21   C     C_R   0.365388 0.401203 0.057669 0.093720
C22   C     C_R   0.318081 0.486134 0.166192 -0.204746
C23   C     C_R   0.358115 0.609565 0.198858 -0.171399
C24   C     C_R   0.491106 0.352755 0.868592 -0.273064
C25   C     C_R   0.378457 0.189014 0.921017 0.344483
C26   C     C_R   0.508274 0.773911 0.162666 -0.168746
H9    H     H_    0.557203 0.378710 0.806264 0.172183
H10   H     H_    0.617742 0.911984 0.109724 0.197368
H11   H     H_    0.559334 0.558831 0.836519 0.173512
H12   H     H_    0.314086 0.671318 0.282172 0.170548
C27   C     C_R   0.697506 0.341781 0.320115 -0.274257
H13   H     H_    0.722048 0.164782 0.300971 0.133945
H14   H     H_    0.740829 0.542571 0.287883 0.149602
H15   H     H_    0.775255 0.339648 0.250518 0.151167
N1    N     N_R   0.575030 0.246270 0.438190 -0.201760
C28   C     C_R   0.322519 0.759757 0.644180 0.088726
C29   C     C_R   0.273076 0.658878 0.667383 -0.261706
C30   C     C_R   0.329655 0.549700 0.606102 0.331589
C31   C     C_R   0.447098 0.545935 0.527736 -0.106453
C32   C     C_R   0.489897 0.650899 0.503212 0.261333
C33   C     C_R   0.522711 0.443345 0.470693 -0.002249
C34   C     C_R   0.626228 0.442170 0.381320 0.165374
C35   C     C_R   0.660609 0.542283 0.355029 -0.264324
C36   C     C_R   0.596656 0.645339 0.416810 -0.131095
C37   C     C_R   0.505087 0.343509 0.500668 0.101310
C38   C     C_R   0.668780 0.243355 0.348963 0.081912
N2    N     N_R   0.425760 0.754330 0.561190 -0.211603
H16   H     H_    0.273636 0.841245 0.688605 0.185443
H17   H     H_    0.184705 0.663329 0.728055 0.198713
N3    N     N_R   0.653602 0.787727 0.880161 0.146711
O9    O     O_R   0.697998 0.902771 0.913453 -0.334132
O10   O     O_R   0.664750 0.716925 0.770175 -0.365032
H18   H     H_    0.439010 0.342195 0.574947 0.173800
N4    N     N_R   0.255574 0.441983 0.613095 0.086903
O11   O     O_R   0.223838 0.349315 0.519534 -0.396192
O12   O     O_R   0.199161 0.444920 0.712701 -0.382654
H19   H     H_    0.634027 0.718668 0.392846 0.195332
N5    N     N_R   0.347700 0.062419 0.898239 0.112340
O13   O     O_R   0.441362 0.996793 0.874017 -0.303270
O14   O     O_R   0.229510 0.021074 0.927651 -0.378520

loop_
_geom_bond_atom_site_label_1
_geom_bond_atom_site_label_2
_geom_bond_distance
_ccdc_geom_bond_type
C32   C36   1.405864 A    
C5    H2    1.110309 S    
C9    H4    1.110268 S    
H13   C38   1.081870 S    
C3    C14   1.474804 S    
C7    C8    1.530642 S    
H14   C35   1.084723 S    
C29   C30   1.400028 A    
C17   H11   1.076916 S    
Cu1   Cu2   2.703209 S    
C28   N2    1.354941 A    
Cu1   O7    1.954722 S    
C27   C34   1.402034 A    
C18   C19   1.415518 A    
N5    O14   1.301503 A    
C20   C24   1.400795 A    
O4    C2    1.295048 A    
N1    C38   1.353533 A    
C31   C33   1.448136 A    
C8    H3    1.109936 S    
C5    C6    1.545414 S    
C30   C31   1.426846 A    
C16   C17   1.400799 A    
O5    C3    1.307277 A    
C23   H12   1.079808 S    
C17   C18   1.416630 A    
C6    H1    1.110218 S    
C30   N4    1.433562 S    
C11   C12   1.531002 S    
Cu2   N2    2.025324 S    
C27   C38   1.387271 A    
C9    C10   1.545352 S    
C13   C25   1.397324 A    
C15   H10   1.082904 S    
O3    Cu1   1.952560 S    
C5    C8    1.545349 S    
C1    C26   1.476231 S    
C7    C10   1.534596 S    
N5    O13   1.301472 A    
O3    C2    1.291671 A    
C16   N3    1.442100 S    
C21   C22   1.391834 A    
N3    O9    1.301711 A    
C34   C35   1.387425 A    
O1    C1    1.305065 A    
C24   H9    1.076864 S    
C32   N2    1.384992 A    
Cu2   O8    1.952561 S    
C27   H15   1.083979 S    
C2    C12   1.452687 S    
C13   C21   1.399358 A    
C15   C16   1.398029 A    
H7    C22   1.084244 S    
C11   H6    1.110380 S    
N4    O12   1.301341 A    
C22   C23   1.385339 A    
C37   H18   1.074466 S    
C6    C11   1.546943 S    
C10   H5    1.110358 S    
C36   H19   1.064212 S    
Cu1   N1    2.037242 S    
C25   N5    1.433716 S    
Cu1   O5    1.930811 S    
C28   C29   1.388235 A    
C5    C12   1.534275 S    
O1    Cu1   1.943403 S    
C15   C26   1.404238 A    
C4    C7    1.452666 S    
Cu2   O6    1.943401 S    
O2    Cu2   1.930810 S    
O8    C4    1.291189 A    
N4    O11   1.301658 A    
O6    C3    1.301562 A    
O4    Cu2   1.954721 S    
C29   H17   1.083038 S    
C28   H16   1.081143 S    
C33   C37   1.419898 A    
C19   C26   1.417244 A    
C18   C20   1.423096 A    
O2    C1    1.303841 A    
C13   H8    1.084615 S    
N1    C37   1.366786 A    
C31   C32   1.436089 A    
C20   C21   1.416869 A    
C6    C7    1.530883 S    
O7    C4    1.295587 A    
C14   C25   1.415823 A    
C19   C23   1.412448 A    
C35   C36   1.382836 A    
C33   C34   1.418962 A    
C8    C9    1.546609 S    
N3    O10   1.301930 A    
C9    C12   1.530987 S    
C14   C24   1.399465 A    
C10   C11   1.545455 S    
