data_mof_unit_26990.cif
_audit_creation_date              2012-12-11T15:07:36-0500
_audit_creation_method            fapswitch 2.2
_symmetry_space_group_name_H-M    P1
_symmetry_Int_Tables_number       1
_space_group_crystal_system       triclinic
_cell_length_a                    21.706648
_cell_length_b                    7.201364
_cell_length_c                    18.572832
_cell_angle_alpha                 89.511695
_cell_angle_beta                  96.147343
_cell_angle_gamma                 89.532363
_cell_volume                      2886.33879642

loop_
_atom_site_label
_atom_site_type_symbol
_atom_type_description
_atom_site_fract_x
_atom_site_fract_y
_atom_site_fract_z
_atom_type_partial_charge
O1    O     O_R   0.449650 0.506500 0.414480 -0.520834
O2    O     O_R   0.550350 0.006500 0.585520 -0.539894
O3    O     O_R   0.432010 0.173150 0.560250 -0.537113
O4    O     O_R   0.567990 0.673150 0.439750 -0.509061
C1    C     C_R   0.414365 0.345348 0.578170 0.731274
C2    C     C_R   0.584556 0.844339 0.420138 0.730768
O5    O     O_R   0.442320 0.176650 0.413480 -0.538748
O6    O     O_R   0.557680 0.676650 0.586520 -0.518886
O7    O     O_R   0.560730 0.008380 0.437700 -0.538117
O8    O     O_R   0.439270 0.508380 0.562300 -0.507551
C3    C     C_R   0.428736 0.346696 0.387358 0.730805
C4    C     C_R   0.571519 0.843995 0.612621 0.736111
O9    O     O_3   0.538840 0.339860 0.508120 -0.366356
O10   O     O_3   0.461160 0.839860 0.491880 -0.357866
V1    V     V_3+5 0.492800 0.064220 0.498490 1.557688
V2    V     V_3+5 0.507200 0.564220 0.501510 1.628146
C5    C     C_R   0.867601 0.026075 0.691842 -0.097918
C6    C     C_R   0.126063 0.351999 0.308668 -0.088014
H1    H     H_    0.954925 0.056126 0.755703 0.147372
H2    H     H_    0.038341 0.368056 0.244229 0.132102
H3    H     H_    0.886963 0.075910 0.644108 0.178777
H4    H     H_    0.103814 0.318836 0.356461 0.177799
C7    C     C_R   0.885784 0.948605 0.819440 -0.047741
C8    C     C_R   0.113242 0.429492 0.180848 -0.032718
C9    C     C_R   0.587856 0.790333 0.745438 0.249651
C10   C     C_R   0.416080 0.394359 0.254229 0.244202
C11   C     C_R   0.625611 0.778461 0.810784 -0.116312
C12   C     C_R   0.379686 0.423118 0.188705 -0.118338
C13   C     C_R   0.688486 0.818916 0.814475 -0.176825
C14   C     C_R   0.315291 0.424504 0.185173 -0.183629
C15   C     C_R   0.715995 0.875009 0.752262 0.080649
C16   C     C_R   0.284739 0.395906 0.247806 0.082324
C17   C     C_R   0.676873 0.891104 0.685280 -0.029240
C18   C     C_R   0.322176 0.361788 0.314937 -0.030647
C19   C     C_R   0.780860 0.916322 0.754560 0.050773
C20   C     C_R   0.218388 0.398821 0.245754 0.049054
C21   C     C_R   0.804602 0.978709 0.689955 0.049477
C22   C     C_R   0.191043 0.359794 0.310646 0.046652
C23   C     C_R   0.764989 0.994558 0.624787 0.286599
C24   C     C_R   0.228988 0.326798 0.376111 0.283656
C25   C     C_R   0.702574 0.950198 0.622935 -0.152896
C26   C     C_R   0.293200 0.329434 0.377785 -0.155897
C27   C     C_R   0.823114 0.899497 0.818866 -0.169821
C28   C     C_R   0.177998 0.437456 0.181385 -0.178804
C29   C     C_R   0.907191 0.013640 0.755827 -0.157489
C30   C     C_R   0.087997 0.382414 0.244403 -0.128397
C31   C     C_R   0.612680 0.846190 0.681894 -0.120887
C32   C     C_R   0.388128 0.362322 0.318000 -0.116610
H5    H     H_    0.808757 0.852638 0.869662 0.104357
H6    H     H_    0.195148 0.470256 0.130506 0.099619
H7    H     H_    0.714129 0.805952 0.867216 0.131712
H8    H     H_    0.290851 0.447489 0.132260 0.127731
H9    H     H_    0.606058 0.736258 0.859552 0.161281
H10   H     H_    0.401573 0.446477 0.139731 0.160597
H11   H     H_    0.674045 0.964145 0.571656 0.152257
H12   H     H_    0.320415 0.303592 0.429271 0.146245
C33   C     C_R   0.625073 0.965073 0.308877 -0.192230
C34   C     C_R   0.355697 0.220059 0.675655 -0.198054
C35   C     C_R   0.634752 0.854483 0.371727 -0.106333
C36   C     C_R   0.361958 0.358330 0.623291 -0.105387
C37   C     C_R   0.691947 0.759028 0.387674 0.235840
C38   C     C_R   0.319494 0.510182 0.616508 0.239969
C39   C     C_R   0.739122 0.778247 0.340650 0.056227
C40   C     C_R   0.274896 0.529050 0.666421 0.054955
C41   C     C_R   0.728175 0.888517 0.276882 0.025998
C42   C     C_R   0.270166 0.390442 0.720000 0.034853
C43   C     C_R   0.670718 0.980813 0.261184 0.096012
C44   C     C_R   0.310163 0.234421 0.723418 0.092341
C45   C     C_R   0.797262 0.690986 0.355839 -0.084831
C46   C     C_R   0.235090 0.684209 0.664523 -0.105547
C47   C     C_R   0.843388 0.712460 0.309700 -0.177326
C48   C     C_R   0.191376 0.701466 0.713650 -0.180828
C49   C     C_R   0.833107 0.819887 0.245668 0.052719
C50   C     C_R   0.185260 0.563806 0.766792 0.046413
C51   C     C_R   0.774739 0.907252 0.228764 0.058356
C52   C     C_R   0.225292 0.407328 0.770154 0.062532
C53   C     C_R   0.762791 0.014338 0.164255 0.056741
C54   C     C_R   0.221024 0.268040 0.823565 0.052878
C55   C     C_R   0.704627 0.103904 0.149920 -0.173479
C56   C     C_R   0.261132 0.112114 0.824864 -0.179504
C57   C     C_R   0.659584 0.088151 0.197876 -0.132287
C58   C     C_R   0.304893 0.095878 0.775533 -0.150083
C59   C     C_R   0.879839 0.841956 0.198575 -0.088661
C60   C     C_R   0.139738 0.579130 0.815750 -0.092805
C61   C     C_R   0.867420 0.941338 0.132438 -0.157600
C62   C     C_R   0.134861 0.440157 0.869646 -0.161847
C63   C     C_R   0.808854 0.028387 0.115589 -0.093501
C64   C     C_R   0.177089 0.287096 0.874324 -0.088285
H13   H     H_    0.581119 0.037167 0.296521 0.170929
H14   H     H_    0.387484 0.102452 0.680448 0.170334
H15   H     H_    0.808194 0.605659 0.403715 0.197630
H16   H     H_    0.237483 0.795974 0.625748 0.194537
H17   H     H_    0.887193 0.641921 0.324516 0.149954
H18   H     H_    0.162426 0.824994 0.709396 0.153693
H19   H     H_    0.693464 0.187930 0.101625 0.147880
H20   H     H_    0.259027 0.000558 0.863927 0.142951
H21   H     H_    0.615622 0.159759 0.185087 0.170358
H22   H     H_    0.334965 0.974476 0.778441 0.155926
O11   O     O_R   0.060820 0.290050 0.937800 -0.529381
O12   O     O_R   0.939180 0.790050 0.062200 -0.537547
O13   O     O_R   0.057690 0.616620 0.086540 -0.527569
O14   O     O_R   0.942310 0.116620 0.913460 -0.534306
C65   C     C_R   0.071658 0.446870 0.112553 0.691719
C66   C     C_R   0.928115 0.949951 0.887484 0.712590
O15   O     O_R   0.068010 0.619890 0.939770 -0.530780
O16   O     O_R   0.931990 0.119890 0.060230 -0.536477
O17   O     O_R   0.949640 0.787940 0.914460 -0.532890
O18   O     O_R   0.050360 0.287940 0.085540 -0.536315
C67   C     C_R   0.084663 0.451084 0.919364 0.691543
C68   C     C_R   0.915922 0.951453 0.081066 0.696250
O19   O     O_3   0.961210 0.453080 0.991940 -0.377015
O20   O     O_3   0.038790 0.953080 0.008060 -0.359792
V3    V     V_3+5 0.007200 0.728820 0.001500 1.514110
V4    V     V_3+5 0.992800 0.228820 0.998500 1.503505
Br1   Br    Br    0.706079 0.610030 0.475197 -0.502850
Br2   Br    Br    0.318460 0.682628 0.535533 -0.507475
C69   C     C_1   0.942112 0.773013 0.219932 0.298720
N1    N     N_1   0.991968 0.719895 0.237201 -0.360669
C70   C     C_1   0.096858 0.735684 0.808858 0.333935
N2    N     N_1   0.062933 0.861048 0.803287 -0.374984
C71   C     C_1   0.795781 0.127332 0.047198 0.286146
N3    N     N_1   0.785425 0.205995 0.992581 -0.357445
C72   C     C_1   0.177437 0.153299 0.933354 0.312223
N4    N     N_1   0.177915 0.046600 0.980392 -0.345105
Br3   Br    Br    0.792885 0.077176 0.534979 -0.494145
Br4   Br    Br    0.196322 0.276692 0.466605 -0.500978
Br5   Br    Br    0.501711 0.730183 0.745669 -0.569869
Br6   Br    Br    0.504560 0.402544 0.254204 -0.597653

loop_
_geom_bond_atom_site_label_1
_geom_bond_atom_site_label_2
_ccdc_geom_bond_type
C42   C44   A    
C39   C41   A    
O12   C68   A    
C23   Br3   S    
C11   C13   A    
C58   H22   S    
O1    C3    A    
O2    C4    A    
O11   V4    S    
C72   N4    T    
C23   C25   A    
O5    C3    A    
C33   H13   S    
O16   V4    S    
C7    C29   A    
C16   C20   A    
O15   V3    S    
C19   C21   A    
C60   C62   A    
C4    C31   S    
O16   C68   A    
C54   C56   A    
C33   C35   A    
C54   C64   A    
O11   C67   A    
C2    O7    A    
C7    C27   A    
C36   C38   A    
O18   V4    S    
C45   C47   A    
C25   H11   S    
C38   C40   A    
C26   H12   S    
O17   V3    S    
C39   C45   A    
C41   C43   A    
C18   C26   A    
C37   Br1   S    
C15   C17   A    
C65   O18   A    
C40   C46   A    
C56   H20   S    
C19   C27   A    
C9    C31   A    
C10   C32   A    
C48   H18   S    
C61   C63   A    
C42   C52   A    
O6    V2    S    
C22   C24   A    
C49   C51   A    
C3    C32   S    
C33   C43   A    
C64   C72   S    
C6    C30   A    
O20   V3    S    
C53   C55   A    
C35   C37   A    
C52   C54   A    
C62   C67   S    
C17   C25   A    
C48   C50   A    
C61   C68   S    
C55   C57   A    
C12   H10   S    
C27   H5    S    
C5    C21   A    
O5    V1    S    
C6    C22   A    
C5    H3    S    
H1    C29   S    
C5    C29   A    
C40   C42   A    
O4    V2    S    
C55   H19   S    
O14   V4    S    
C51   C53   A    
C7    C66   S    
O6    C4    A    
C24   Br4   S    
C37   C39   A    
O1    V2    S    
C10   Br6   S    
O14   C66   A    
O2    V1    S    
C34   H14   S    
C71   N3    T    
C50   C52   A    
C56   C58   A    
C59   C61   A    
C43   C57   A    
C63   C71   S    
C17   C31   A    
C15   C19   A    
C20   C28   A    
O4    C2    A    
C18   C32   A    
O3    V1    S    
C47   C49   A    
C13   H7    S    
C28   H6    S    
C14   H8    S    
C1    C36   S    
C6    H4    S    
C2    C35   S    
C46   H16   S    
O12   V3    S    
C50   C60   A    
O3    C1    A    
C70   N2    T    
C11   H9    S    
C47   H17   S    
C9    C11   A    
C10   C12   A    
C41   C51   A    
O13   C65   A    
C8    C65   S    
C44   C58   A    
C59   C69   S    
C20   C22   A    
O7    V1    S    
C8    C30   A    
C12   C14   A    
C21   C23   A    
O8    V2    S    
C69   N1    T    
C14   C16   A    
C34   C44   A    
O15   C67   A    
C60   C70   S    
C8    C28   A    
C24   C26   A    
C57   H21   S    
O19   V4    S    
C62   C64   A    
C9    Br5   S    
O13   V3    S    
C38   Br2   S    
C1    O8    A    
C53   C63   A    
C13   C15   A    
O9    V2    S    
O10   V1    S    
C46   C48   A    
C45   H15   S    
C34   C36   A    
C49   C59   A    
C66   O17   A    
H2    C30   S    
C16   C18   A    
