data_mof_unit_38166.cif
_audit_creation_date              2012-10-26T19:40:05-0400
_audit_creation_method            fapswitch 2.2
_symmetry_space_group_name_H-M    P1
_symmetry_Int_Tables_number       1
_space_group_crystal_system       triclinic
_cell_length_a                    15.033834
_cell_length_b                    8.667659
_cell_length_c                    7.447704
_cell_angle_alpha                 102.967204
_cell_angle_beta                  93.878295
_cell_angle_gamma                 92.541825
_cell_volume                      941.811654155

loop_
_atom_site_label
_atom_site_type_symbol
_atom_type_description
_atom_site_fract_x
_atom_site_fract_y
_atom_site_fract_z
_atom_type_partial_charge
C1    C     C_R   0.496855 0.199699 0.453275 0.555506
C2    C     C_R   0.183171 0.363403 0.438015 0.331279
C3    C     C_R   0.766457 0.494670 0.490063 0.037938
C4    C     C_R   0.233543 0.505314 0.509949 0.037935
C5    C     C_R   0.806774 0.352633 0.419757 -0.075537
C6    C     C_R   0.193226 0.647336 0.580312 -0.075535
C7    C     C_R   0.900939 0.355407 0.424204 0.004045
C8    C     C_R   0.099065 0.644538 0.575960 0.004036
C9    C     C_R   0.952848 0.499520 0.497804 -0.016284
C10   C     C_R   0.047156 0.500425 0.502360 -0.016283
C11   C     C_R   0.910550 0.642326 0.566844 0.040451
C12   C     C_R   0.503147 0.800301 0.546725 0.555502
C13   C     C_R   0.089455 0.357621 0.433311 0.040458
C14   C     C_R   0.944046 0.216008 0.357544 -0.119083
C15   C     C_R   0.055962 0.783914 0.642722 -0.119087
C16   C     C_3   0.750367 0.198406 0.344790 -0.388094
C17   C     C_3   0.249624 0.801578 0.655233 -0.388035
C18   C     C_3   0.075599 0.056517 0.287325 -0.335577
C19   C     C_3   0.924411 0.943377 0.713081 -0.335581
C20   C     C_R   0.036678 0.214274 0.361311 0.004655
C21   C     C_R   0.963329 0.785649 0.638952 0.004646
C22   C     C_2   0.495700 0.031718 0.426964 -0.137336
C23   C     C_2   0.504302 0.968282 0.573035 -0.137339
C24   C     C_R   0.329430 0.501753 0.503215 0.606268
C25   C     C_R   0.670570 0.498242 0.496785 0.606273
C26   C     C_R   0.816832 0.636569 0.562040 0.331276
Cu1   Cu    Cu3+1 0.510010 0.517380 0.684380 1.003164
Cu2   Cu    Cu3+1 0.489990 0.482620 0.315620 1.003163
F1    F     F_    0.771934 0.767855 0.626590 -0.670648
F2    F     F_    0.228069 0.232133 0.373391 -0.670628
H1    H     H_    0.905766 0.105176 0.301104 0.117085
H2    H     H_    0.231530 0.889861 0.573763 0.145321
H3    H     H_    0.238236 0.848683 0.802735 0.144538
H4    H     H_    0.322265 0.789831 0.648665 0.148007
H5    H     H_    0.023293 0.958390 0.239945 0.100654
H6    H     H_    0.113708 0.062884 0.166323 0.189277
H7    H     H_    0.119091 0.023787 0.397630 0.181832
H8    H     H_    0.976721 0.041463 0.760655 0.100639
H9    H     H_    0.880965 0.976243 0.602810 0.181881
H10   H     H_    0.886256 0.936889 0.833982 0.189269
H11   H     H_    0.094247 0.894726 0.699242 0.117076
H12   H     H_    0.487935 0.959973 0.286244 0.137063
H13   H     H_    0.512067 0.040027 0.713755 0.137063
H14   H     H_    0.430093 0.377808 0.948696 0.248237
H15   H     H_    0.569907 0.622192 0.051304 0.248236
H16   H     H_    0.768362 0.110169 0.426388 0.145402
H17   H     H_    0.677722 0.210210 0.351104 0.148038
H18   H     H_    0.761842 0.151215 0.197358 0.144506
N1    N     N_2   0.474890 0.456420 0.038520 -0.260148
N2    N     N_2   0.525110 0.543580 0.961480 -0.260149
O1    O     O_R   0.506510 0.286130 0.619770 -0.512977
O2    O     O_R   0.493490 0.713870 0.380230 -0.512977
O3    O     O_R   0.489600 0.256770 0.308360 -0.495093
O4    O     O_R   0.510400 0.743230 0.691640 -0.495084
O5    O     O_R   0.378710 0.514640 0.655720 -0.514584
O6    O     O_R   0.621290 0.485360 0.344280 -0.514594
O7    O     O_R   0.361800 0.485290 0.344300 -0.470030
O8    O     O_R   0.638200 0.514710 0.655700 -0.470037

loop_
_geom_bond_atom_site_label_1
_geom_bond_atom_site_label_2
_ccdc_geom_bond_type
H14   N1    S    
C2    C4    A    
Cu2   O3    S    
Cu1   N2    S    
C19   H8    S    
C3    C26   A    
C1    O1    A    
Cu2   N1    S    
C11   C26   A    
C25   O6    A    
C15   C21   A    
C14   H1    S    
C2    F2    S    
C7    C9    A    
C16   H18   S    
Cu2   O6    S    
Cu1   O4    S    
C1    C22   S    
Cu2   O7    S    
C24   O5    A    
Cu2   O2    S    
C12   C23   S    
C17   H4    S    
C22   H12   S    
C17   H3    S    
H15   N2    S    
Cu1   O8    S    
C19   H9    S    
C16   H17   S    
C4    C6    A    
C19   C21   S    
C18   H7    S    
Cu1   O1    S    
N1    N2    D    
C8    C15   A    
C18   C20   S    
C9    C11   A    
C4    C24   S    
Cu1   O5    S    
C19   H10   S    
C6    C17   S    
C14   C20   A    
C3    C25   S    
C23   H13   S    
C18   H5    S    
C15   H11   S    
C26   F1    S    
C8    C10   A    
C25   O8    A    
C9    C10   A    
C16   H16   S    
Cu1   Cu2   S    
C5    C7    A    
C2    C13   A    
C1    O3    A    
C22   C23   D    
C5    C16   S    
C6    C8    A    
C13   C20   A    
C12   O2    A    
C18   H6    S    
C11   C21   A    
C7    C14   A    
C12   O4    A    
C17   H2    S    
C24   O7    A    
C3    C5    A    
C10   C13   A    
