data_mof_unit_6241.cif
_audit_creation_date              2012-12-11T15:19:30-0500
_audit_creation_method            fapswitch 2.2
_symmetry_space_group_name_H-M    P1
_symmetry_Int_Tables_number       1
_space_group_crystal_system       triclinic
_cell_length_a                    19.960593
_cell_length_b                    6.889547
_cell_length_c                    18.122444
_cell_angle_alpha                 89.999972
_cell_angle_beta                  103.975926
_cell_angle_gamma                 90.000073
_cell_volume                      2418.41288271

loop_
_atom_site_label
_atom_site_type_symbol
_atom_type_description
_atom_site_fract_x
_atom_site_fract_y
_atom_site_fract_z
_atom_type_partial_charge
O1    O     O_R   0.312200 0.620210 0.189560 -0.537700
O2    O     O_R   0.687800 0.379790 0.810440 -0.540118
O3    O     O_R   0.187800 0.120210 0.310440 -0.537699
O4    O     O_R   0.812200 0.879790 0.689560 -0.540118
O5    O     O_R   0.171590 0.286140 0.165000 -0.533556
O6    O     O_R   0.828410 0.713860 0.835000 -0.534288
O7    O     O_R   0.328410 0.786140 0.335000 -0.533556
O8    O     O_R   0.671590 0.213860 0.665000 -0.534288
C1    C     C_R   0.145634 0.459497 0.143902 0.713903
C2    C     C_R   0.854310 0.540497 0.856170 0.712723
C3    C     C_R   0.354365 0.959497 0.356098 0.713904
C4    C     C_R   0.645690 0.040497 0.643830 0.712724
O9    O     O_R   0.310670 0.290220 0.180540 -0.541824
O10   O     O_R   0.689330 0.709780 0.819460 -0.539921
O11   O     O_R   0.189330 0.790220 0.319460 -0.541824
O12   O     O_R   0.810670 0.209780 0.680540 -0.539921
O13   O     O_R   0.327870 0.124170 0.326080 -0.533642
O14   O     O_R   0.672130 0.875830 0.673920 -0.532635
O15   O     O_R   0.172130 0.624170 0.173920 -0.533642
O16   O     O_R   0.827870 0.375830 0.826080 -0.532635
C5    C     C_R   0.331806 0.459291 0.164797 0.707109
C6    C     C_R   0.668105 0.540779 0.835054 0.706239
C7    C     C_R   0.168194 0.959291 0.335202 0.707107
C8    C     C_R   0.831895 0.040779 0.664946 0.706240
O17   O     O_3   0.255480 0.455050 0.297740 -0.365349
O18   O     O_3   0.744520 0.544950 0.702260 -0.364820
O19   O     O_3   0.244520 0.955050 0.202260 -0.365348
O20   O     O_3   0.755480 0.044950 0.797740 -0.364820
V1    V     V_3+5 0.248980 0.178550 0.241140 1.423053
V2    V     V_3+5 0.751020 0.821450 0.758860 1.414745
V3    V     V_3+5 0.251020 0.678550 0.258860 1.423052
V4    V     V_3+5 0.748980 0.321450 0.741140 1.414744
C9    C     C_R   0.936541 0.161005 0.626368 -0.230489
C10   C     C_R   0.065958 0.831960 0.377152 -0.218360
C11   C     C_R   0.563459 0.661004 0.873632 -0.230482
C12   C     C_R   0.434043 0.331964 0.122849 -0.218358
C13   C     C_R   0.880755 0.031479 0.615278 -0.088915
C14   C     C_R   0.119055 0.969430 0.384612 -0.083243
C15   C     C_R   0.619245 0.531478 0.884723 -0.088914
C16   C     C_R   0.380945 0.469430 0.115388 -0.083242
C17   C     C_R   0.872696 0.890836 0.558030 -0.219880
C18   C     C_R   0.124385 0.118377 0.438367 -0.194491
C19   C     C_R   0.627304 0.390836 0.941971 -0.219880
C20   C     C_R   0.375614 0.618374 0.061631 -0.194491
C21   C     C_R   0.919695 0.878929 0.511748 0.088882
C22   C     C_R   0.078128 0.128558 0.485520 0.091101
C23   C     C_R   0.580306 0.378931 0.988253 0.088879
C24   C     C_R   0.421871 0.628556 0.014479 0.091101
C25   C     C_R   0.975618 0.009808 0.522512 0.033673
C26   C     C_R   0.023156 0.994878 0.476079 0.031946
C27   C     C_R   0.524382 0.509809 0.977488 0.033671
C28   C     C_R   0.476844 0.494878 0.023921 0.031944
C29   C     C_R   0.984250 0.154155 0.580050 0.056765
C30   C     C_R   0.015605 0.847455 0.419928 0.056318
C31   C     C_R   0.515750 0.654154 0.919950 0.056766
C32   C     C_R   0.484396 0.347458 0.080073 0.056316
C33   C     C_R   0.911447 0.736562 0.455150 -0.240532
C34   C     C_R   0.086535 0.270669 0.542156 -0.230764
C35   C     C_R   0.588554 0.236565 0.044852 -0.240532
C36   C     C_R   0.413463 0.770664 0.957841 -0.230765
C37   C     C_R   0.958140 0.719738 0.408605 -0.008635
C38   C     C_R   0.041251 0.283652 0.590434 -0.004959
C39   C     C_R   0.541861 0.219743 0.091397 -0.008636
C40   C     C_R   0.458748 0.783648 0.909565 -0.004962
H1    H     H_    0.943037 0.262439 0.673006 0.127877
H2    H     H_    0.063801 0.715557 0.336629 0.134523
H3    H     H_    0.556964 0.762439 0.826994 0.127880
H4    H     H_    0.436201 0.215564 0.163374 0.134523
H5    H     H_    0.829804 0.789991 0.549744 0.120358
H6    H     H_    0.165798 0.223631 0.444777 0.118076
H7    H     H_    0.670197 0.289992 0.950257 0.120358
H8    H     H_    0.334199 0.723625 0.055220 0.118075
H9    H     H_    0.867639 0.638774 0.446458 0.130483
H10   H     H_    0.129246 0.371985 0.549380 0.130804
H11   H     H_    0.632363 0.138779 0.053544 0.130484
H12   H     H_    0.370752 0.871977 0.950616 0.130804
C41   C     C_1   0.583227 0.027529 0.581539 -0.197965
C42   C     C_1   0.416942 0.972479 0.418241 -0.196824
C43   C     C_1   0.916773 0.527529 0.918461 -0.197965
C44   C     C_1   0.083058 0.472479 0.081759 -0.196824
C45   C     C_1   0.530951 0.010932 0.530056 -0.000540
C46   C     C_1   0.469283 0.989099 0.469633 -0.001944
C47   C     C_1   0.969049 0.510932 0.969944 -0.000538
C48   C     C_1   0.030716 0.489099 0.030367 -0.001943
C49   C     C_R   0.943434 0.571434 0.347255 0.102081
C50   C     C_R   0.936119 0.624798 0.270770 -0.151881
C51   C     C_R   0.921608 0.484287 0.213414 -0.114726
C52   C     C_R   0.912783 0.290399 0.231655 -0.099222
C53   C     C_R   0.918013 0.237008 0.307195 -0.112050
C54   C     C_R   0.933119 0.376770 0.364747 -0.115441
H13   H     H_    0.941805 0.774902 0.255602 0.104296
H14   H     H_    0.916842 0.525913 0.154772 0.114918
H15   H     H_    0.901280 0.181854 0.187204 0.104320
H16   H     H_    0.909976 0.087534 0.321103 0.118476
H17   H     H_    0.936631 0.333813 0.422946 0.117966
C55   C     C_R   0.056959 0.431173 0.652008 0.100164
C56   C     C_R   0.008914 0.576062 0.657480 -0.134890
C57   C     C_R   0.024802 0.715439 0.715170 -0.105743
C58   C     C_R   0.089246 0.713834 0.766871 -0.098466
C59   C     C_R   0.137791 0.571999 0.761291 -0.122211
C60   C     C_R   0.121818 0.431167 0.704170 -0.132423
H18   H     H_    0.958946 0.578860 0.617695 0.124393
H19   H     H_    0.987160 0.824396 0.720062 0.118913
H20   H     H_    0.101517 0.822289 0.811306 0.107764
H21   H     H_    0.187767 0.570905 0.801317 0.108744
H22   H     H_    0.159890 0.321628 0.700749 0.107831
C61   C     C_R   0.556567 0.071441 0.152747 0.102079
C62   C     C_R   0.563884 0.124808 0.229232 -0.151879
C63   C     C_R   0.578395 0.984298 0.286589 -0.114725
C64   C     C_R   0.587218 0.790408 0.268348 -0.099224
C65   C     C_R   0.581985 0.737015 0.192809 -0.112050
C66   C     C_R   0.566880 0.876775 0.135256 -0.115440
H23   H     H_    0.558200 0.274912 0.244399 0.104295
H24   H     H_    0.583163 0.025927 0.345230 0.114918
H25   H     H_    0.598721 0.681865 0.312800 0.104321
H26   H     H_    0.590021 0.587539 0.178902 0.118475
H27   H     H_    0.563366 0.833815 0.077057 0.117966
C67   C     C_R   0.443040 0.931162 0.847988 0.100167
C68   C     C_R   0.491084 0.076058 0.842518 -0.134890
C69   C     C_R   0.475201 0.215415 0.784820 -0.105751
C70   C     C_R   0.410761 0.213780 0.733109 -0.098465
C71   C     C_R   0.362217 0.071939 0.738688 -0.122213
C72   C     C_R   0.378185 0.931129 0.795818 -0.132423
H28   H     H_    0.541049 0.078871 0.882308 0.124396
H29   H     H_    0.512842 0.324377 0.779930 0.118911
H30   H     H_    0.398494 0.322217 0.688668 0.107765
H31   H     H_    0.312246 0.070821 0.698655 0.108746
H32   H     H_    0.340115 0.821583 0.799238 0.107830

loop_
_geom_bond_atom_site_label_1
_geom_bond_atom_site_label_2
_ccdc_geom_bond_type
C34   C38   A    
C51   C52   A    
O1    C5    A    
C11   H3    S    
C38   C55   S    
O19   V1    S    
O13   V1    S    
C61   C66   A    
O3    C7    A    
C65   C66   A    
C18   H6    S    
C44   C48   T    
O4    V2    S    
O15   V3    S    
C10   H2    S    
C56   C57   A    
C9    H1    S    
C54   H17   S    
C68   H28   S    
O7    C3    A    
C21   C33   A    
C59   H21   S    
C26   C30   A    
O9    V1    S    
C14   C18   A    
C50   H13   S    
C66   H27   S    
O4    C8    A    
C57   H19   S    
C57   C58   A    
O1    V3    S    
C40   C67   S    
C62   C63   A    
O2    V4    S    
C18   C22   A    
C33   H9    S    
C71   H31   S    
O3    V1    S    
C64   C65   A    
C12   C16   A    
C67   C68   A    
C1    O15   A    
C58   C59   A    
C2    O16   A    
O2    C6    A    
C61   C62   A    
C65   H26   S    
O14   V2    S    
C41   C45   T    
C16   C20   A    
C56   H18   S    
O11   C7    A    
C58   H20   S    
O12   C8    A    
C55   C60   A    
C4    C41   S    
O17   V1    S    
O10   V2    S    
C24   C36   A    
O5    V1    S    
C9    C29   A    
C49   C54   A    
O7    V3    S    
C11   C31   A    
C27   C28   A    
O8    V4    S    
O20   V4    S    
C50   C51   A    
C15   C19   A    
C49   C50   A    
O19   V3    S    
C36   H12   S    
C45   C46   S    
C1    C44   S    
C62   H23   S    
C11   C15   A    
C55   C56   A    
O5    C1    A    
C12   C32   A    
C3    C42   S    
C29   C38   A    
C42   C46   T    
C47   C48   S    
C21   C25   A    
O8    C4    A    
C31   C40   A    
C8    C13   S    
C32   C39   A    
O9    C5    A    
C68   C69   A    
C33   C37   A    
C70   C71   A    
C37   C49   S    
C63   H24   S    
O6    V2    S    
C10   C30   A    
C39   C61   S    
C35   H11   S    
C69   C70   A    
C34   H10   S    
C17   H5    S    
O16   V4    S    
C60   H22   S    
C52   H15   S    
C3    O13   A    
C19   H7    S    
C10   C14   A    
O17   V3    S    
C53   H16   S    
C23   C27   A    
C2    C43   S    
C12   H4    S    
O11   V3    S    
O18   V4    S    
C30   C37   A    
O12   V4    S    
C7    C14   S    
C22   C26   A    
C35   C39   A    
C36   C40   A    
O10   C6    A    
O20   V2    S    
C53   C54   A    
C70   H30   S    
C63   C64   A    
C43   C47   T    
C72   H32   S    
C5    C16   S    
C25   C29   A    
C6    C15   S    
C59   C60   A    
C69   H29   S    
C20   H8    S    
C27   C31   A    
C67   C72   A    
C13   C17   A    
C9    C13   A    
O6    C2    A    
C23   C35   A    
C28   C32   A    
C24   C28   A    
C52   C53   A    
C25   C26   A    
C4    O14   A    
C17   C21   A    
C71   C72   A    
C51   H14   S    
C19   C23   A    
C64   H25   S    
C22   C34   A    
C20   C24   A    
O18   V2    S    
