data_mof_unit_20887.cif
_audit_creation_date              2012-12-11T16:22:47-0500
_audit_creation_method            fapswitch 2.2
_symmetry_space_group_name_H-M    P1
_symmetry_Int_Tables_number       1
_space_group_crystal_system       triclinic
_cell_length_a                    17.055921
_cell_length_b                    16.874476
_cell_length_c                    19.412924
_cell_angle_alpha                 118.029221
_cell_angle_beta                  62.316679
_cell_angle_gamma                 100.515505
_cell_volume                      4362.74527827

loop_
_atom_site_label
_atom_site_type_symbol
_atom_type_description
_atom_site_fract_x
_atom_site_fract_y
_atom_site_fract_z
_atom_type_partial_charge
C1    C     C_R   0.034683 0.758723 0.015696 -0.130735
C2    C     C_R   0.250006 0.521015 0.826908 -0.128838
C3    C     C_R   0.183434 0.489296 0.086702 -0.133945
C4    C     C_R   0.760937 0.429403 0.169194 -0.169302
C5    C     C_R   0.992037 0.341302 0.758170 -0.149320
C6    C     C_R   0.256837 0.537903 0.063699 0.053675
C7    C     C_R   0.945538 0.265292 0.755497 0.031277
C8    C     C_R   0.255734 0.461400 0.744870 0.037548
C9    C     C_R   0.001839 0.228217 0.030893 -0.064975
C10   C     C_R   0.866021 0.922095 0.492409 -0.160802
C11   C     C_R   0.898912 0.842345 0.417432 -0.162385
C12   C     C_R   0.760024 0.459917 0.249616 0.118271
C13   C     C_R   0.929781 0.840964 0.336224 0.142507
C14   C     C_R   0.919234 0.918529 0.331408 -0.162133
C15   C     C_R   0.885925 0.998606 0.406761 -0.183301
C16   C     C_R   0.804025 0.552738 0.954112 0.168403
C17   C     C_R   0.863943 0.001912 0.487333 0.114170
C18   C     C_R   0.932404 0.145179 0.542923 -0.158760
C19   C     C_R   0.956265 0.205964 0.608002 -0.169300
C20   C     C_R   0.911001 0.210609 0.691411 0.137845
C21   C     C_R   0.835355 0.160628 0.711161 -0.161510
C22   C     C_R   0.811249 0.099752 0.645835 -0.181123
C23   C     C_R   0.722770 0.542734 0.016772 0.005201
C24   C     C_R   0.863319 0.087512 0.560128 0.116270
C25   C     C_R   0.607742 0.323457 0.362417 0.171007
C26   C     C_R   0.666567 0.349216 0.298058 -0.322198
C27   C     C_R   0.698717 0.435810 0.319581 0.016452
C28   C     C_R   0.960779 0.672569 0.249743 -0.128478
C29   C     C_R   0.671917 0.498723 0.407270 0.111721
C30   C     C_R   0.605921 0.476347 0.472470 0.093509
C31   C     C_R   0.574798 0.388078 0.449867 -0.057493
C32   C     C_R   0.495699 0.390205 0.595228 -0.145315
C33   C     C_R   0.415849 0.413889 0.669996 -0.163480
C34   C     C_R   0.973380 0.758905 0.257211 0.036123
C35   C     C_R   0.336490 0.416279 0.665559 0.145245
C36   C     C_R   0.336712 0.382385 0.584090 -0.198262
C37   C     C_R   0.416422 0.359382 0.509719 -0.164608
C38   C     C_R   0.496340 0.370473 0.516332 0.200576
C39   C     C_R   0.634221 0.581043 0.051306 0.134466
C40   C     C_R   0.739588 0.482677 0.038902 -0.161912
C41   C     C_R   0.323458 0.560286 0.096370 0.132047
C42   C     C_R   0.406669 0.512254 0.143242 -0.225371
C43   C     C_R   0.330459 0.510491 0.134550 -0.176376
C44   C     C_R   0.387268 0.622521 0.079639 -0.280527
C45   C     C_R   0.249746 0.567750 0.011570 -0.139149
C46   C     C_R   0.465691 0.621686 0.084753 0.185196
C47   C     C_R   0.476831 0.561781 0.111600 0.187206
C48   C     C_R   0.560423 0.543142 0.096075 -0.270929
C49   C     C_R   0.620937 0.652392 0.039109 -0.167756
C50   C     C_R   0.536655 0.671932 0.054657 -0.222830
C51   C     C_R   0.808748 0.181863 0.199224 -0.000000
C52   C     C_R   0.029715 0.751899 0.174902 -0.124537
C53   C     C_R   0.942759 0.863774 0.015415 0.090243
C54   C     C_R   0.838642 0.950470 0.018723 0.179404
C55   C     C_R   0.886590 0.869827 0.983137 -0.236123
C56   C     C_R   0.922952 0.263528 0.833120 -0.124745
C57   C     C_R   0.954111 0.941047 0.082134 -0.256702
C58   C     C_R   0.907459 0.021961 0.118952 0.124663
C59   C     C_R   0.849223 0.027364 0.087623 0.075473
C60   C     C_R   0.800902 0.109037 0.128436 -0.259896
C61   C     C_R   0.864184 0.176170 0.231772 0.223697
C62   C     C_R   0.915382 0.096523 0.189818 -0.244781
C63   C     C_R   0.838986 0.500348 0.244568 -0.123096
C64   C     C_R   0.954758 0.690711 0.941881 -0.146581
C65   C     C_R   0.979616 0.774809 0.988226 0.072286
C66   C     C_3   0.015880 0.395370 0.214665 -0.963083
C67   C     C_R   0.170387 0.452776 0.751390 -0.123687
C68   C     C_3   0.929331 0.101657 0.893836 -0.948059
C69   C     C_3   0.597934 0.180996 0.369895 -0.885501
C70   C     C_3   0.770253 0.605780 0.462255 -0.984526
C71   C     C_3   0.490023 0.592443 0.584448 -0.913866
C72   C     C_3   0.795059 0.485687 0.817700 -0.905944
C73   C     C_3   0.855442 0.233057 0.376339 -0.939459
C74   C     C_3   0.751388 0.872957 0.932713 -0.954622
C75   C     C_R   0.035782 0.310741 0.066918 0.160997
C76   C     C_R   0.957683 0.243426 0.993159 0.184808
H1    H     H_    0.074999 0.807104 0.043627 0.084325
H2    H     H_    0.014344 0.244320 0.591056 0.110085
H3    H     H_    0.756682 0.056896 0.660707 0.115097
H4    H     H_    0.557342 0.397598 0.600606 0.113604
H5    H     H_    0.417230 0.436111 0.731541 0.112563
H6    H     H_    0.276733 0.381655 0.577937 0.114991
H7    H     H_    0.415973 0.343946 0.449056 0.121868
H8    H     H_    0.674831 0.691725 0.016043 0.109370
H9    H     H_    0.414043 0.467858 0.166195 0.126316
H10   H     H_    0.528232 0.721809 0.038074 0.130600
H11   H     H_    0.920860 0.652725 0.300673 0.095766
H12   H     H_    0.150234 0.410394 0.700695 0.095007
H13   H     H_    0.693865 0.456921 0.083626 0.109178
H14   H     H_    0.866580 0.516192 0.289180 0.124150
H15   H     H_    0.919981 0.677036 0.903867 0.102638
H16   H     H_    0.873780 0.221871 0.857646 0.102680
H17   H     H_    0.089007 0.275157 0.124795 0.173293
H18   H     H_    0.045889 0.404812 0.257833 0.251213
H19   H     H_    0.948184 0.370792 0.238878 0.254797
H20   H     H_    0.011908 0.461409 0.216891 0.250309
H21   H     H_    0.842807 0.217104 0.976153 0.147089
H22   H     H_    0.875509 0.063866 0.876704 0.240633
H23   H     H_    0.303732 0.542719 0.845495 0.097667
H24   H     H_    0.960433 0.060285 0.906108 0.266149
H25   H     H_    0.979533 0.113903 0.837973 0.258725
H26   H     H_    0.905635 0.783495 0.423195 0.108690
H27   H     H_    0.939508 0.918226 0.269506 0.111455
H28   H     H_    0.796984 0.165434 0.775781 0.107977
H29   H     H_    0.586268 0.198510 0.275189 0.164272
H30   H     H_    0.535821 0.153657 0.404030 0.252877
H31   H     H_    0.628062 0.221247 0.415432 0.245396
H32   H     H_    0.645054 0.123982 0.314533 0.248665
H33   H     H_    0.688479 0.300771 0.230626 0.138797
H34   H     H_    0.161492 0.469217 0.137463 0.132085
H35   H     H_    0.658006 0.638233 0.461713 0.181058
H36   H     H_    0.823815 0.643776 0.432359 0.249746
H37   H     H_    0.800167 0.543043 0.447431 0.256889
H38   H     H_    0.739966 0.648417 0.533410 0.246384
H39   H     H_    0.610995 0.584094 0.582652 0.183846
H40   H     H_    0.460277 0.636665 0.655342 0.247939
H41   H     H_    0.439196 0.545851 0.569093 0.265417
H42   H     H_    0.508740 0.634687 0.549788 0.236288
H43   H     H_    0.785717 0.622307 0.897558 0.148408
H44   H     H_    0.812004 0.497723 0.760924 0.244037
H45   H     H_    0.005701 0.372548 0.716443 0.096790
H46   H     H_    0.723505 0.471859 0.844770 0.252784
H47   H     H_    0.835229 0.426124 0.795314 0.258180
H48   H     H_    0.567078 0.491872 0.111530 0.115965
H49   H     H_    0.281337 0.463814 0.150653 0.119856
H50   H     H_    0.380627 0.664609 0.054238 0.118270
H51   H     H_    0.755090 0.117428 0.108083 0.129798
H52   H     H_    0.831177 0.307393 0.327736 0.170380
H53   H     H_    0.854887 0.297077 0.432077 0.249734
H54   H     H_    0.910516 0.188958 0.356220 0.246423
H55   H     H_    0.791199 0.201179 0.397901 0.253142
H56   H     H_    0.850762 0.922590 0.553349 0.117596
H57   H     H_    0.782339 0.008441 0.976313 0.174389
H58   H     H_    0.696035 0.889154 0.925713 0.251101
H59   H     H_    0.727763 0.824478 0.961183 0.253291
H60   H     H_    0.807871 0.842537 0.867362 0.250455
H61   H     H_    0.960461 0.091948 0.212906 0.130424
H62   H     H_    0.879045 0.810734 0.930967 0.136792
H63   H     H_    0.995780 0.937655 0.109108 0.115561
H64   H     H_    0.057045 0.807089 0.159167 0.085881
H65   H     H_    0.288867 0.617288 0.990952 0.089243
H66   H     H_    0.716514 0.382281 0.146020 0.090567
H67   H     H_    0.883655 0.059224 0.401570 0.118375
H68   H     H_    0.974324 0.136908 0.477409 0.114355
N1    N     N_R   0.034930 0.670790 0.995440 -0.039520
N2    N     N_R   0.867000 0.509260 0.948460 -0.052358
N3    N     N_R   0.003780 0.616410 0.165900 -0.040237
N4    N     N_R   0.825670 0.461520 0.995440 -0.051194
N5    N     N_R   0.045120 0.664150 0.118920 -0.036959
N6    N     N_R   0.884940 0.497570 0.165910 -0.042319
N7    N     N_R   0.985840 0.628110 0.948460 -0.040963
N8    N     N_R   0.174330 0.538480 0.004560 -0.039705
N9    N     N_2   0.070170 0.331425 0.127121 -0.115117
N10   N     N_2   0.893415 0.185830 0.970429 -0.112425
N11   N     N_2   0.577994 0.233950 0.338437 -0.111380
N12   N     N_R   0.954880 0.335850 0.881080 -0.040413
N13   N     N_2   0.705045 0.586862 0.428870 -0.105557
N14   N     N_2   0.567037 0.543245 0.560382 -0.108127
N15   N     N_2   0.813931 0.564071 0.882435 -0.123408
N16   N     N_2   0.868026 0.251289 0.306124 -0.109251
N17   N     N_2   0.777237 0.954529 0.989038 -0.107190
N18   N     N_R   0.115060 0.502430 0.834090 -0.039427
N19   N     N_R   0.014160 0.371890 0.051540 -0.067390
N20   N     N_R   0.965070 0.329210 0.004560 -0.090883
N21   N     N_R   0.164150 0.545120 0.881070 -0.040926
N22   N     N_R   0.133000 0.490740 0.051540 -0.037140
N23   N     N_R   0.996220 0.383590 0.834100 -0.035360
N24   N     N_R   0.835850 0.454880 0.118930 -0.039561
Ni1   Ni    Ni4+2 0.103690 0.603690 0.000000 0.211483
Ni2   Ni    Ni4+2 0.896310 0.396310 0.000000 0.193155
Ni3   Ni    Ni4+2 0.991110 0.505800 0.892250 0.222996
Ni4   Ni    Ni4+2 0.008890 0.494200 0.107750 0.207531

loop_
_geom_bond_atom_site_label_1
_geom_bond_atom_site_label_2
_ccdc_geom_bond_type
C25   C31   A    
C73   H55   S    
C58   C62   A    
C6    C45   A    
C25   N11   S    
C1    H1    S    
C1    N1    A    
N19   N20   A    
C51   C61   A    
C56   N12   A    
C3    C6    A    
C43   H49   S    
C69   H31   S    
C70   H38   S    
N22   Ni4   S    
C73   N16   S    
C44   H50   S    
C67   H12   S    
C29   C30   A    
C55   H62   S    
C18   C24   A    
C49   H8    S    
C75   N19   A    
C36   C37   A    
N3    N5    A    
C22   H3    S    
C73   H54   S    
C68   N10   S    
C4    H66   S    
C30   C31   A    
C27   C29   A    
C10   C17   A    
C23   C40   A    
C5    H45   S    
N7    Ni3   S    
C57   H63   S    
C16   N2    A    
C18   C19   A    
C76   N10   S    
C52   H64   S    
C21   C22   A    
C54   C55   A    
C21   H28   S    
N20   Ni2   S    
N6    Ni4   S    
N18   Ni3   S    
C35   C36   A    
C36   H6    S    
C52   N5    A    
C6    C41   S    
C74   H60   S    
C1    C65   A    
C9    C76   A    
C32   C38   A    
C40   H13   S    
C4    C12   A    
C53   C65   S    
N2    N4    A    
C66   H18   S    
C72   H46   S    
N24   Ni2   S    
C28   C34   A    
C59   C60   A    
C62   H61   S    
C13   C14   A    
C16   N15   S    
C45   H65   S    
C41   C43   A    
C61   C62   A    
C7    C56   A    
C69   H32   S    
C44   C46   A    
C73   H53   S    
C54   C59   A    
C53   C55   A    
C70   H37   S    
N21   Ni1   S    
N1    Ni1   S    
C17   C24   S    
C71   H41   S    
C12   C27   S    
C29   N13   S    
C68   H25   S    
C61   N16   S    
C5    C7    A    
C12   C63   A    
C40   N4    A    
N23   Ni3   S    
H39   N14   S    
N12   N23   A    
C25   C26   A    
H17   N9    S    
C4    N24   A    
C8    C35   S    
C19   H2    S    
C68   H24   S    
C63   N6    A    
C37   C38   A    
C32   H4    S    
N18   N21   A    
C75   N9    S    
N4    Ni2   S    
C47   C48   A    
C2    N21   A    
N6    N24   A    
C74   H59   S    
C72   H44   S    
C28   H11   S    
C26   C27   A    
C42   H9    S    
C69   N11   S    
H21   N10   S    
N19   Ni4   S    
C72   N15   S    
C26   H33   S    
N1    N7    A    
C70   H36   S    
C15   H67   S    
H29   N11   S    
C2    H23   S    
C49   C50   A    
C16   C23   A    
C72   H47   S    
C41   C44   A    
N5    Ni1   S    
C76   N20   A    
C42   C43   A    
N3    Ni4   S    
H52   N16   S    
C66   H20   S    
C30   N14   S    
C71   N14   S    
C46   C47   A    
C28   N3    A    
C53   C57   A    
C71   H42   S    
C39   C49   A    
C60   H51   S    
C2    C8    A    
C39   C48   A    
H57   N17   S    
C48   H48   S    
C74   N17   S    
N8    N22   A    
C69   H30   S    
C15   C17   A    
C66   N9    S    
C9    C75   A    
C46   C50   A    
C34   C52   A    
C31   C38   S    
C70   N13   S    
C64   C65   A    
C45   N8    A    
C19   C20   A    
C18   H68   S    
C58   C59   A    
C13   C34   S    
C32   C33   A    
N8    Ni1   S    
C11   C13   A    
C67   N18   A    
C14   H27   S    
C23   C39   S    
C74   H58   S    
C63   H14   S    
N12   Ni2   S    
C33   C35   A    
C71   H40   S    
C11   H26   S    
C22   C24   A    
C42   C47   A    
C5    N23   A    
C54   N17   S    
H35   N13   S    
C64   N7    A    
C68   H22   S    
C10   C11   A    
C50   H10   S    
C10   H56   S    
C56   H16   S    
C20   C21   A    
C8    C67   A    
H43   N15   S    
C7    C20   S    
C14   C15   A    
C37   H7    S    
C51   C60   A    
C3    H34   S    
C64   H15   S    
C57   C58   A    
N2    Ni3   S    
C33   H5    S    
C3    N22   A    
C66   H19   S    
