data_mof_unit_31283.cif
_audit_creation_date              2012-12-11T19:53:48-0500
_audit_creation_method            fapswitch 2.2
_symmetry_space_group_name_H-M    P1
_symmetry_Int_Tables_number       1
_space_group_crystal_system       triclinic
_cell_length_a                    8.221022
_cell_length_b                    16.130255
_cell_length_c                    17.253477
_cell_angle_alpha                 111.686883
_cell_angle_beta                  83.098207
_cell_angle_gamma                 95.945135
_cell_volume                      2106.23654517

loop_
_atom_site_label
_atom_site_type_symbol
_atom_type_description
_atom_site_fract_x
_atom_site_fract_y
_atom_site_fract_z
_atom_type_partial_charge
Ba1   Ba    Ba6+2 0.325860 0.460280 0.530510 1.661836
Ba2   Ba    Ba6+2 0.863950 0.539650 0.469460 1.682609
C1    C     C_3   0.022989 0.147703 0.688883 -0.357202
C2    C     C_3   0.024310 0.232467 0.669463 0.368983
C3    C     C_3   0.984184 0.670289 0.736721 0.254073
C4    C     C_3   0.984602 0.682682 0.829205 -0.201873
C5    C     C_3   0.703733 0.717819 0.291470 0.333191
C6    C     C_3   0.723839 0.742711 0.213891 -0.353201
C7    C     C_3   0.194131 0.767936 0.340272 0.353408
C8    C     C_3   0.201028 0.859336 0.332901 -0.363328
C9    C     C_2   0.753584 0.483325 0.719908 -0.253225
C10   C     C_3   0.813473 0.421934 0.757043 -0.038960
C11   C     C_2   0.770454 0.450166 0.849826 -0.112840
C12   C     C_3   0.493380 0.271742 0.711352 0.345108
C13   C     C_2   0.642334 0.501482 0.886203 0.037123
C14   C     C_2   0.561956 0.539493 0.834028 -0.100345
C15   C     C_1   0.625173 0.530812 0.756784 0.028215
C16   C     C_R   0.401648 0.535235 0.145224 -0.129623
C17   C     C_R   0.341777 0.547340 0.227724 0.014711
C18   C     C_R   0.565552 0.468400 0.241778 0.057843
C19   C     C_R   0.625230 0.455196 0.158540 -0.116325
C20   C     C_R   0.546146 0.490251 0.110020 0.009243
C21   C     C_2   0.578777 0.521064 0.975845 -0.053128
C22   C     C_2   0.611119 0.472772 0.021351 -0.082227
C23   C     C_3   0.444477 0.246607 0.788062 -0.358540
C24   C     C_R   0.426891 0.516902 0.276430 -0.287186
C25   C     C_2   0.392863 0.761142 0.525575 -0.255600
C26   C     C_R   0.811543 0.251525 0.485691 -0.284347
C27   C     C_2   0.208122 0.881779 0.598888 -0.079970
C28   C     C_2   0.241450 0.796322 0.578401 0.011548
C29   C     C_2   0.513479 0.816289 0.508557 0.028625
C30   C     C_3   0.496655 0.916354 0.547752 -0.027177
C31   C     C_3   0.317507 0.941574 0.563065 -0.005961
C32   C     C_2   0.595187 0.967946 0.500316 -0.079735
C33   C     C_2   0.640237 0.053452 0.541228 -0.071226
C34   C     C_3   0.667252 0.264141 0.321974 0.308362
C35   C     C_R   0.887501 0.076593 0.453114 0.003872
C36   C     C_R   0.739928 0.108041 0.499467 -0.045042
C37   C     C_R   0.994214 0.131394 0.420986 -0.138213
C38   C     C_R   0.957904 0.219713 0.438794 0.066978
C39   C     C_R   0.698086 0.194714 0.512255 -0.009584
C40   C     C_3   0.660448 0.162583 0.283360 -0.381819
C41   C     C_3   0.431288 0.750361 0.771248 0.302576
C42   C     C_3   0.434647 0.773972 0.865396 -0.396760
C43   C     C_3   0.202443 0.331039 0.266842 0.310603
C44   C     C_3   0.221331 0.301844 0.171880 -0.379405
H1    H     H_    0.098813 0.223370 0.609105 0.092084
H2    H     H_    0.761328 0.140670 0.232761 0.131501
H3    H     H_    0.673765 0.134163 0.331613 0.059890
H4    H     H_    0.540685 0.136751 0.256904 0.128045
H5    H     H_    0.315837 0.713051 0.749812 0.010991
H6    H     H_    0.431141 0.712865 0.880328 0.097794
H7    H     H_    0.326711 0.811855 0.900169 0.119572
H8    H     H_    0.547630 0.816095 0.887219 0.145692
H9    H     H_    0.325698 0.345752 0.290124 0.008345
H10   H     H_    0.132410 0.392155 0.292763 0.063689
H11   H     H_    0.149373 0.133662 0.694507 0.155967
H12   H     H_    0.294739 0.242036 0.144357 0.131535
H13   H     H_    0.284513 0.356163 0.152672 0.059623
H14   H     H_    0.098541 0.285362 0.147274 0.131723
H15   H     H_    0.895602 0.241282 0.662265 -0.085832
H16   H     H_    0.970088 0.090104 0.637732 0.076571
H17   H     H_    0.857167 0.658955 0.719039 0.026636
H18   H     H_    0.051420 0.609555 0.700310 0.046897
H19   H     H_    0.938070 0.619262 0.837610 0.037949
H20   H     H_    0.111603 0.696525 0.847798 0.050521
H21   H     H_    0.946873 0.155252 0.748511 0.114439
H22   H     H_    0.513925 0.291433 0.840946 0.068432
H23   H     H_    0.776301 0.659105 0.278692 0.100666
H24   H     H_    0.571873 0.699546 0.303621 -0.059093
H25   H     H_    0.855121 0.760611 0.199515 0.148645
H26   H     H_    0.680745 0.685223 0.159591 0.087431
H27   H     H_    0.650298 0.800547 0.224449 0.109228
H28   H     H_    0.320156 0.754354 0.347174 -0.073529
H29   H     H_    0.113178 0.770054 0.397224 0.085737
H30   H     H_    0.250392 0.911098 0.389288 0.072980
H31   H     H_    0.076015 0.875867 0.327537 0.147964
H32   H     H_    0.461312 0.341636 0.726411 0.065373
H33   H     H_    0.282359 0.859579 0.276708 0.113259
H34   H     H_    0.688729 0.417055 0.993278 0.069849
H35   H     H_    0.443921 0.567674 0.857685 0.079981
H36   H     H_    0.331897 0.558131 0.108571 0.074789
H37   H     H_    0.500567 0.576620 0.004131 0.083775
H38   H     H_    0.837187 0.422688 0.884195 0.069774
H39   H     H_    0.732202 0.416935 0.131411 0.085054
H40   H     H_    0.801788 0.476928 0.656762 0.071735
H41   H     H_    0.379357 0.526311 0.340135 0.073110
H42   H     H_    0.095372 0.906688 0.636237 0.107863
H43   H     H_    0.627791 0.266753 0.697069 -0.068955
H44   H     H_    0.106300 0.105605 0.384052 0.097325
H45   H     H_    0.407499 0.689745 0.502607 0.069786
H46   H     H_    0.781700 0.319124 0.497388 0.066085
H47   H     H_    0.621606 0.938139 0.432896 0.098880
H48   H     H_    0.603108 0.084219 0.607656 0.091917
H49   H     H_    0.311266 0.253593 0.806907 0.153774
H50   H     H_    0.472848 0.176432 0.774170 0.117490
H51   H     H_    0.788561 0.288886 0.345578 0.005245
H52   H     H_    0.569512 0.283942 0.374415 0.069580
O1    O     O_2   0.351410 0.559500 0.703710 -0.488763
O2    O     O_3   0.119561 0.261311 0.288432 -0.631658
O3    O     O_3   0.409642 0.213104 0.643797 -0.598117
O4    O     O_2   0.838300 0.440470 0.296230 -0.461850
O5    O     O_3   0.567380 0.446810 0.395500 -0.504172
O6    O     O_3   0.111820 0.604620 0.376600 -0.491975
O7    O     O_3   0.644607 0.297892 0.260444 -0.633574
O8    O     O_3   0.149150 0.609060 0.561440 -0.492608
O9    O     O_3   0.701290 0.652490 0.425560 -0.483555
O10   O     O_2   0.853995 0.811041 0.504115 -0.469311
O11   O     O_3   0.761086 0.790613 0.359351 -0.616062
O12   O     O_3   0.622300 0.553110 0.604480 -0.460458
O13   O     O_3   0.040530 0.390860 0.438530 -0.491149
O14   O     O_2   0.927940 0.718960 0.581060 -0.413319
O15   O     O_3   0.058809 0.746192 0.721872 -0.591218
O16   O     O_2   0.001832 0.538561 0.225446 -0.488501
O17   O     O_3   0.131338 0.703029 0.268574 -0.597549
O18   O     O_3   0.077860 0.395310 0.623380 -0.484977
O19   O     O_2   0.148131 0.480823 0.781117 -0.486371
O20   O     O_3   0.567697 0.702280 0.727441 -0.615159
O21   O     O_3   0.092160 0.305621 0.734110 -0.592182
O22   O     O_2   0.261760 0.281010 0.418880 -0.467872
O23   O     O_3   0.488390 0.347430 0.574410 -0.484915
O24   O     O_2   0.365983 0.184892 0.488351 -0.487198
P1    P     P_3+3 0.533580 0.585010 0.696460 0.988831
P2    P     P_3+3 0.097450 0.292710 0.397510 0.981163
P3    P     P_3+3 0.490808 0.233430 0.553585 0.945502
P4    P     P_3+3 0.656110 0.414920 0.303520 0.977946
P5    P     P_3+3 0.707195 0.768185 0.451329 0.983521
P6    P     P_3+3 0.035166 0.403813 0.726780 0.958672
P7    P     P_3+3 0.098673 0.720136 0.613545 1.002280
P8    P     P_3+3 0.145779 0.597252 0.272782 0.945720
C45   C     C_2   0.440064 0.835939 0.754267 0.830718
O25   O     O_2   0.326946 0.885554 0.780929 -0.607766
O26   O     O_R   0.578695 0.859465 0.709451 -0.724209
H53   H     H_    0.572312 0.919873 0.704861 0.297959
C46   C     C_2   0.881660 0.756051 0.887224 0.882675
O27   O     O_2   0.908497 0.832250 0.887789 -0.550750
O28   O     O_R   0.760257 0.737285 0.943545 -0.786033
H54   H     H_    0.706097 0.792705 0.983634 0.302436

loop_
_geom_bond_atom_site_label_1
_geom_bond_atom_site_label_2
_ccdc_geom_bond_type
O8    P7    S    
C44   H13   S    
C26   C39   A    
C34   C40   S    
C32   H47   S    
C29   P5    S    
Ba1   O1    S    
C5    H24   S    
C5    C6    S    
C43   C44   S    
O23   P3    S    
C11   H38   S    
Ba2   O14   S    
C27   C28   D    
O15   P7    S    
O7    P4    S    
C35   C36   A    
Ba1   Ba2   S    
C3    C4    S    
O12   P1    S    
C1    H16   S    
C26   C38   A    
C9    H40   S    
C13   C14   S    
C27   C31   S    
Ba2   O9    S    
C3    H17   S    
C32   C33   D    
C17   C24   A    
O5    P4    S    
C6    H27   S    
C27   H42   S    
C8    H30   S    
C42   H7    S    
C22   H34   S    
C4    H19   S    
Ba2   O12   S    
C43   H10   S    
C24   H41   S    
O3    P3    S    
C21   C22   D    
C2    O21   S    
C25   H45   S    
C34   H51   S    
Ba1   O18   S    
O14   P7    D    
C7    C8    S    
Ba1   O5    S    
C37   H44   S    
Ba1   O8    S    
C3    O15   S    
O21   P6    S    
C42   H6    S    
C17   P8    S    
C13   C21   S    
C34   O7    S    
C12   C23   S    
O6    P8    S    
C19   C20   A    
C44   H12   S    
C25   C28   S    
O16   P8    D    
C23   H22   S    
C8    H31   S    
O11   P5    S    
C38   P2    S    
C19   H39   S    
Ba2   O13   S    
C6    H26   S    
C25   C29   D    
C7    O17   S    
C39   P3    S    
C46   O27   D    
C33   C36   S    
C36   C39   A    
C37   C38   A    
C16   C17   A    
C12   O3    S    
C41   O20   S    
O4    P4    D    
C2    H15   S    
Ba2   O8    S    
C5    O11   S    
C3    H18   S    
O22   P2    D    
O2    P2    S    
Ba1   O22   S    
C30   C32   S    
C41   C42   S    
Ba1   P1    S    
C12   H43   S    
C18   P4    S    
C4    C46   S    
Ba1   O12   S    
C29   C30   S    
Ba2   O6    S    
C8    H33   S    
C26   H46   S    
C40   H2    S    
C10   C11   S    
C21   H37   S    
C40   H4    S    
Ba2   P4    S    
C23   H49   S    
C11   C13   D    
O26   H53   S    
C20   C22   S    
C7    H28   S    
C1    C2    S    
C1    H11   S    
O1    P1    D    
C33   H48   S    
C46   O28   S    
C9    C15   D    
C6    H25   S    
C44   H14   S    
O13   P2    S    
C16   C20   A    
C1    H21   S    
C45   O26   S    
C43   O2    S    
C5    H23   S    
C9    C10   S    
C10   P6    S    
C28   P7    S    
O28   H54   S    
C30   C31   S    
O24   P3    D    
C41   C45   S    
Ba1   P2    S    
O9    P5    S    
C35   C37   A    
Ba1   O13   S    
C41   H5    S    
C14   C15   D    
C18   C24   A    
Ba2   O5    S    
C14   H35   S    
C16   H36   S    
O20   P1    S    
C12   H32   S    
O10   P5    D    
O19   P6    D    
Ba1   O23   S    
C40   H3    S    
C42   H8    S    
C4    H20   S    
C18   C19   A    
C43   H9    S    
C23   H50   S    
O18   P6    S    
Ba2   O4    S    
C34   H52   S    
C7    H29   S    
C15   P1    S    
C2    H1    S    
C45   O25   D    
O17   P8    S    
