data_mof_unit_12329.cif
_audit_creation_date              2012-12-10T18:57:09-0500
_audit_creation_method            fapswitch 2.2
_symmetry_space_group_name_H-M    P1
_symmetry_Int_Tables_number       1
_space_group_crystal_system       triclinic
_cell_length_a                    8.730179
_cell_length_b                    10.823072
_cell_length_c                    9.559019
_cell_angle_alpha                 89.847496
_cell_angle_beta                  97.609158
_cell_angle_gamma                 90.51574
_cell_volume                      895.215892132

loop_
_atom_site_label
_atom_site_type_symbol
_atom_type_description
_atom_site_fract_x
_atom_site_fract_y
_atom_site_fract_z
_atom_type_partial_charge
C1    C     C_R   0.497975 0.262329 0.499946 0.815928
C2    C     C_R   0.445746 0.935581 0.371138 -0.114897
C3    C     C_R   0.483524 0.870625 0.498313 -0.089974
C4    C     C_R   0.501940 0.935807 0.625130 0.047328
C5    C     C_3   0.628846 0.928281 0.745703 -0.465361
C6    C     C_3   0.630059 0.068518 0.746653 0.263840
C7    C     C_R   0.565694 0.596099 0.081533 0.169706
C8    C     C_R   0.417030 0.414895 0.064604 0.051540
C9    C     C_R   0.415182 0.416095 0.915508 0.062632
C10   C     C_R   0.573000 0.591994 0.935699 0.125495
C11   C     C_3   0.741095 0.627696 0.957092 0.117910
C12   C     C_R   0.204563 0.493178 0.464409 0.809317
C13   C     C_3   0.727241 0.643408 0.112944 0.111304
C14   C     C_R   0.497419 0.737583 0.499518 0.813217
C15   C     C_R   0.795936 0.497335 0.535390 0.927823
C16   C     C_2   0.041167 0.470550 0.446939 0.189958
C17   C     C_2   0.961516 0.503148 0.551792 -0.407230
C18   C     C_R   0.502060 0.063120 0.625958 0.086130
C19   C     C_R   0.484650 0.129016 0.499111 -0.148780
C20   C     C_R   0.446607 0.064488 0.371486 -0.121584
Cu1   Cu    Cu3+1 0.499990 0.499980 0.640670 1.014839
Cu2   Cu    Cu3+1 0.500010 0.500020 0.359330 1.038201
H1    H     H_    0.018780 0.544378 0.648696 0.179406
N1    N     N_R   0.500980 0.500930 0.148050 -0.203642
N2    N     N_R   0.500990 0.500890 0.852140 -0.174967
O1    O     O_R   0.500000 0.319640 0.618810 -0.563417
O2    O     O_R   0.500020 0.319680 0.381230 -0.574124
O3    O     O_R   0.274830 0.499980 0.591380 -0.611818
O4    O     O_R   0.274850 0.500020 0.353800 -0.548656
O5    O     O_R   0.499980 0.680320 0.618770 -0.594337
O6    O     O_R   0.500000 0.680360 0.381190 -0.564864
O7    O     O_R   0.725150 0.499980 0.646200 -0.534202
O8    O     O_R   0.725170 0.500020 0.408620 -0.546400
Cl1   Cl    Cl    0.963646 0.381896 0.298007 -0.526345
H2    H     H_    0.348426 0.347001 0.851870 0.164028
Cl2   Cl    Cl    0.868309 0.502710 0.933945 -0.529041
H3    H     H_    0.766907 0.714062 0.901656 0.143677
H4    H     H_    0.804098 0.583932 0.184797 0.227439
Cl3   Cl    Cl    0.731952 0.801579 0.165865 -0.597229
H5    H     H_    0.423576 0.113067 0.271796 0.195350
H6    H     H_    0.421972 0.887428 0.271336 0.202451
H7    H     H_    0.588306 0.885384 0.840167 0.247134
H8    H     H_    0.736288 0.888203 0.714766 0.170512
Cl4   Cl    Cl    0.568010 0.130111 0.902485 -0.550427
H9    H     H_    0.738294 0.110827 0.718076 0.132751
H10   H     H_    0.352774 0.344189 0.112648 0.159379

loop_
_geom_bond_atom_site_label_1
_geom_bond_atom_site_label_2
_ccdc_geom_bond_type
C7    C10   A    
Cu1   O1    S    
C15   C17   S    
C16   Cl1   S    
C6    H9    S    
C12   O4    A    
Cu1   O5    S    
C19   C20   A    
C14   O6    A    
C5    H7    S    
C4    C18   A    
C2    C3    A    
C5    H8    S    
C9    N2    A    
C15   O7    A    
C6    Cl4   S    
Cu1   Cu2   S    
C11   C13   S    
C13   H4    S    
C17   H1    S    
C3    C14   S    
C12   O3    A    
C6    C18   S    
C4    C5    S    
C10   N2    A    
C11   Cl2   S    
Cu2   O4    S    
Cu1   O3    S    
C14   O5    A    
C8    H10   S    
Cu2   O2    S    
C5    C6    S    
C20   H5    S    
Cu1   O7    S    
Cu2   N1    S    
C1    O1    A    
C1    C19   S    
C10   C11   S    
C2    H6    S    
C2    C20   A    
C7    N1    A    
C12   C16   S    
C7    C13   S    
C1    O2    A    
C18   C19   A    
Cu2   O6    S    
C11   H3    S    
Cu2   O8    S    
Cu1   N2    S    
C8    C9    A    
C9    H2    S    
C8    N1    A    
C15   O8    A    
C13   Cl3   S    
C3    C4    A    
C16   C17   D    
