data_mof_unit_8187.cif
_audit_creation_date              2012-10-26T20:07:48-0400
_audit_creation_method            fapswitch 2.2
_symmetry_space_group_name_H-M    P1
_symmetry_Int_Tables_number       1
_space_group_crystal_system       triclinic
_cell_length_a                    9.493702
_cell_length_b                    10.8348
_cell_length_c                    17.151082
_cell_angle_alpha                 89.380391
_cell_angle_beta                  93.271837
_cell_angle_gamma                 90.011984
_cell_volume                      1761.22201209

loop_
_atom_site_label
_atom_site_type_symbol
_atom_type_description
_atom_site_fract_x
_atom_site_fract_y
_atom_site_fract_z
_atom_type_partial_charge
C1    C     C_R   0.499960 0.261995 0.500064 0.555996
C2    C     C_R   0.069618 0.578732 0.452279 0.001713
C3    C     C_R   0.516510 0.497620 0.651015 0.567945
C4    C     C_R   0.483433 0.500287 0.349020 0.571450
C5    C     C_R   0.524116 0.496422 0.736985 0.000159
C6    C     C_R   0.475487 0.499181 0.263110 0.001538
C7    C     C_R   0.402072 0.477920 0.778986 0.237098
C8    C     C_R   0.595426 0.472324 0.221351 0.238352
C9    C     C_R   0.413942 0.475580 0.860396 -0.083239
C10   C     C_R   0.582641 0.469531 0.139916 -0.085258
C11   C     C_R   0.544355 0.497300 0.901355 0.198054
C12   C     C_R   0.500040 0.738002 0.499944 0.541926
C13   C     C_R   0.454263 0.499530 0.098794 0.198446
C14   C     C_R   0.665967 0.516141 0.859329 0.002822
C15   C     C_R   0.334801 0.526478 0.140670 0.004225
C16   C     C_R   0.654720 0.515323 0.777713 -0.186607
C17   C     C_R   0.346499 0.525837 0.222282 -0.184978
C18   C     C_R   0.372037 0.063790 0.500576 -0.134921
C19   C     C_R   0.627963 0.936203 0.499451 -0.138965
C20   C     C_3   0.825973 0.525207 0.247646 -0.110794
C21   C     C_3   0.181011 0.551059 0.747248 -0.112855
C22   C     C_3   0.809409 0.537584 0.899229 -0.387444
C23   C     C_R   0.372055 0.936104 0.500492 -0.139533
C24   C     C_3   0.193231 0.556349 0.100607 -0.387630
C25   C     C_R   0.627945 0.063888 0.499536 -0.133765
C26   C     C_R   0.500021 0.871810 0.499946 0.020808
C27   C     C_R   0.499979 0.128184 0.500076 0.024515
C28   C     C_R   0.079399 0.421370 0.547828 0.014482
C29   C     C_R   0.920630 0.578974 0.452421 0.015409
C30   C     C_R   0.930390 0.421417 0.547824 0.005416
Cu1   Cu    Cu3+1 0.640660 0.500020 0.500000 0.959097
Cu2   Cu    Cu3+1 0.359340 0.499980 0.500000 0.952910
H1    H     H_    0.673495 0.441837 0.108970 0.141049
H2    H     H_    0.860396 0.642330 0.414484 0.101690
H3    H     H_    0.877976 0.358541 0.586098 0.110236
H4    H     H_    0.122022 0.641686 0.414047 0.100999
H5    H     H_    0.791196 0.619414 0.263477 0.105473
H6    H     H_    0.858230 0.524362 0.186391 0.096857
H7    H     H_    0.920885 0.501983 0.285677 0.138529
H8    H     H_    0.227374 0.638125 0.724955 0.127035
H9    H     H_    0.150498 0.562619 0.808373 0.097135
H10   H     H_    0.082993 0.532559 0.710929 0.133177
H11   H     H_    0.807868 0.536508 0.963839 0.153988
H12   H     H_    0.320286 0.455238 0.891348 0.141939
H13   H     H_    0.883294 0.464535 0.882108 0.126902
H14   H     H_    0.850469 0.628670 0.880781 0.121001
H15   H     H_    0.194377 0.554695 0.036006 0.154496
H16   H     H_    0.113923 0.488077 0.118830 0.122635
H17   H     H_    0.159517 0.649853 0.117800 0.121224
H18   H     H_    0.748937 0.530240 0.745999 0.136260
H19   H     H_    0.254029 0.547112 0.253942 0.131467
H20   H     H_    0.272008 0.111790 0.501042 0.129887
H21   H     H_    0.727993 0.888203 0.498985 0.126100
H22   H     H_    0.272033 0.888026 0.500878 0.126228
H23   H     H_    0.727967 0.111965 0.499152 0.131709
H24   H     H_    0.139653 0.358478 0.586101 0.141784
N1    N     N_2   0.556670 0.497980 0.984209 -0.255920
N2    N     N_2   0.441728 0.500336 0.015938 -0.255997
N3    N     N_R   0.852070 0.500030 0.499980 -0.219946
N4    N     N_R   0.147930 0.499970 0.500020 -0.226712
O1    O     O_R   0.618740 0.319660 0.500000 -0.504612
O2    O     O_3   0.273628 0.450260 0.740824 -0.557225
O3    O     O_R   0.381260 0.680340 0.500000 -0.516681
O4    O     O_R   0.381170 0.319630 0.500010 -0.509457
O5    O     O_R   0.618830 0.680370 0.499990 -0.517281
O6    O     O_R   0.631780 0.498870 0.613920 -0.524116
O7    O     O_R   0.368220 0.501130 0.386080 -0.520444
O8    O     O_R   0.394210 0.498840 0.613930 -0.451236
O9    O     O_R   0.605790 0.501160 0.386070 -0.447235
O10   O     O_3   0.720892 0.436106 0.260208 -0.537311

loop_
_geom_bond_atom_site_label_1
_geom_bond_atom_site_label_2
_ccdc_geom_bond_type
Cu1   O6    S    
C5    C7    A    
C7    O2    S    
C7    C9    A    
C17   H19   S    
C25   C27   A    
C20   H6    S    
C12   O5    A    
Cu1   O1    S    
C24   H16   S    
C8    O10   S    
Cu1   Cu2   S    
C13   C15   A    
Cu2   O8    S    
C20   O10   S    
C30   N3    A    
C19   H21   S    
C28   C30   A    
N1    N2    D    
C18   H20   S    
C1    C27   S    
C11   N1    S    
C20   H7    S    
C20   H5    S    
C9    C11   A    
C14   C22   S    
C21   O2    S    
C18   C23   A    
C21   H8    S    
C30   H3    S    
Cu2   O7    S    
C21   H9    S    
C4    C6    S    
C4    O9    A    
C22   H14   S    
C3    O8    A    
C16   H18   S    
C10   H1    S    
C14   C16   A    
C28   N4    A    
C28   H24   S    
C19   C25   A    
C11   C14   A    
C2    N4    A    
C3    O6    A    
Cu2   N4    S    
Cu1   N3    S    
C21   H10   S    
C6    C17   A    
C1    O4    A    
C29   N3    A    
Cu1   O9    S    
C22   H13   S    
C2    C29   A    
Cu2   O4    S    
C23   H22   S    
C8    C10   A    
C23   C26   A    
C2    H4    S    
C24   H17   S    
C15   C17   A    
C19   C26   A    
Cu1   O5    S    
C15   C24   S    
C5    C16   A    
C6    C8    A    
C13   N2    S    
C3    C5    S    
C12   O3    A    
C24   H15   S    
C29   H2    S    
C10   C13   A    
C22   H11   S    
C18   C27   A    
C25   H23   S    
Cu2   O3    S    
C12   C26   S    
C9    H12   S    
C4    O7    A    
C1    O1    A    
