data_mof_unit_15257.cif
_audit_creation_date              2013-03-05T15:57:47-0500
_audit_creation_method            fapswitch 2.2
_symmetry_space_group_name_H-M    P1
_symmetry_Int_Tables_number       1
_space_group_crystal_system       triclinic
_cell_length_a                    15.532874
_cell_length_b                    14.828614
_cell_length_c                    14.878254
_cell_angle_alpha                 109.669424
_cell_angle_beta                  121.417575
_cell_angle_gamma                 59.274327
_cell_volume                      2502.41616906

loop_
_atom_site_label
_atom_site_type_symbol
_atom_site_description
_atom_site_fract_x
_atom_site_fract_y
_atom_site_fract_z
_atom_type_partial_charge
C1    C     C_R   0.749346 0.997700 0.792063 -0.114064
C2    C     C_R   0.195689 0.064172 0.227103 -0.145431
H1    H     H_    0.758398 0.966257 0.853634 0.093026
H2    H     H_    0.167198 0.122864 0.178735 0.103833
N1    N     N_R   0.705410 0.966550 0.689210 -0.046312
N2    N     N_R   0.294590 0.033450 0.310790 -0.047063
C3    C     C_R   0.244359 0.290912 0.491612 -0.117970
C4    C     C_R   0.801769 0.726398 0.561659 -0.128741
H3    H     H_    0.232166 0.353140 0.458253 0.111860
H4    H     H_    0.829878 0.676169 0.618471 0.084637
N3    N     N_R   0.294590 0.188320 0.465660 -0.047157
N4    N     N_R   0.705410 0.811680 0.534340 -0.043784
C5    C     C_R   0.593002 0.216092 0.486858 -0.141672
C6    C     C_R   0.405630 0.768905 0.443453 -0.083038
H5    H     H_    0.679084 0.189816 0.507890 0.111602
H6    H     H_    0.319106 0.785285 0.402639 0.118180
N5    N     N_R   0.556610 0.157790 0.497330 -0.040596
N6    N     N_R   0.443390 0.842210 0.502670 -0.049895
C7    C     C_R   0.407954 0.979514 0.711314 -0.116837
C8    C     C_R   0.589898 0.951076 0.264971 -0.041192
H7    H     H_    0.322529 0.993342 0.680562 0.086322
H8    H     H_    0.675343 0.909610 0.276841 0.095639
N7    N     N_R   0.443390 0.997080 0.657540 -0.040606
N8    N     N_R   0.556610 0.002920 0.342460 -0.046771
C9    C     C_R   0.409732 0.289012 0.409644 -0.091519
C10   C     C_R   0.590431 0.693811 0.515532 -0.137139
H9    H     H_    0.324735 0.330956 0.355782 0.095800
H10   H     H_    0.676080 0.638239 0.539095 0.096629
N9    N     N_R   0.443390 0.203250 0.451380 -0.045104
N10   N     N_R   0.556610 0.796750 0.548620 -0.042673
C11   C     C_R   0.591204 0.907433 0.788237 -0.129465
C12   C     C_R   0.405209 0.020660 0.193582 -0.144045
H11   H     H_    0.676698 0.857054 0.832862 0.109177
H12   H     H_    0.319463 0.038083 0.143679 0.128531
N11   N     N_R   0.556610 0.951620 0.703500 -0.041853
N12   N     N_R   0.443390 0.048380 0.296500 -0.043873
C13   C     C_R   0.243517 0.199219 0.583963 -0.134219
C14   C     C_R   0.801593 0.816755 0.468810 -0.154193
H13   H     H_    0.231334 0.177657 0.637691 0.102159
H14   H     H_    0.831347 0.849268 0.441343 0.111835
N13   N     N_R   0.294590 0.131500 0.522480 -0.044140
N14   N     N_R   0.705410 0.868500 0.477520 -0.046750
C15   C     C_R   0.749900 0.090934 0.701595 -0.144043
C16   C     C_R   0.195560 0.971732 0.316997 -0.137716
H15   H     H_    0.759885 0.147388 0.681377 0.106887
H16   H     H_    0.165214 0.946116 0.350502 0.103312
N15   N     N_R   0.705410 0.023370 0.632390 -0.042321
N16   N     N_R   0.294590 0.976630 0.367610 -0.046821
C17   C     C_R   0.775792 0.078066 0.802433 0.140605
C18   C     C_R   0.131517 0.026739 0.228942 0.158203
C19   C     C_R   0.213045 0.300205 0.567644 0.148820
C20   C     C_R   0.863988 0.727370 0.521449 0.143284
C21   C     C_R   0.502498 0.298093 0.428043 0.062368
C22   C     C_R   0.496385 0.673954 0.445663 0.067850
C23   C     C_R   0.499050 0.919792 0.792763 0.073838
C24   C     C_R   0.494721 0.961021 0.168986 0.066212
H17   H     H_    0.986071 0.167929 0.084530 0.132870
H18   H     H_    0.822079 0.063603 0.998733 0.132516
Ni1   Ni    Ni4+2 0.629830 0.882720 0.617850 0.212100
Ni2   Ni    Ni4+2 0.370170 0.117280 0.382150 0.218357
Ni3   Ni    Ni4+2 0.629830 0.013030 0.487540 0.224118
Ni4   Ni    Ni4+2 0.370170 0.986970 0.512460 0.213991
H19   H     H_    0.979150 0.004855 0.162006 0.135658
H20   H     H_    0.858696 0.184113 0.898795 0.126246
H21   H     H_    0.947272 0.508088 0.896986 0.102553
H22   H     H_    0.986732 0.255437 0.931520 0.106467
C25   C     C_R   0.769005 0.588839 0.828233 -0.115880
C26   C     C_R   0.156196 0.223704 0.981607 -0.123564
H23   H     H_    0.757759 0.537948 0.754894 0.107554
H24   H     H_    0.142050 0.305838 0.003351 0.116866
C27   C     C_R   0.676587 0.670811 0.843035 -0.138182
C28   C     C_R   0.261709 0.146247 0.992603 -0.134365
H25   H     H_    0.594477 0.681590 0.780435 0.128579
H26   H     H_    0.328745 0.169032 0.022224 0.156359
C29   C     C_R   0.689991 0.738073 0.937895 0.098439
C30   C     C_R   0.280358 0.039495 0.965400 0.084344
C31   C     C_R   0.798130 0.720541 0.017813 -0.155975
C32   C     C_R   0.191943 0.011542 0.924051 -0.160528
H27   H     H_    0.811539 0.771260 0.091218 0.116918
H28   H     H_    0.204549 0.929817 0.900124 0.123829
C33   C     C_R   0.890251 0.637563 0.002902 -0.095957
C34   C     C_R   0.086525 0.089188 0.911858 -0.120773
H29   H     H_    0.973113 0.623681 0.064783 0.133298
H30   H     H_    0.019021 0.066490 0.878449 0.122008
C35   C     C_R   0.875754 0.572049 0.908228 -0.109688
C36   C     C_R   0.068577 0.195219 0.941103 -0.124606
C37   C     C_R   0.586520 0.845699 0.050358 -0.198353
C38   C     C_R   0.392791 0.928594 0.872556 -0.212720
H31   H     H_    0.659907 0.805906 0.117622 0.117290
H32   H     H_    0.315995 0.960487 0.803972 0.126584
C39   C     C_R   0.488855 0.920986 0.061739 0.084433
C40   C     C_R   0.494456 0.880988 0.868375 0.047538
C41   C     C_R   0.388870 0.958026 0.968984 0.025176
C42   C     C_R   0.590454 0.824097 0.952827 0.038138
H33   H     H_    0.009892 0.585245 0.663438 0.128056
H34   H     H_    0.176008 0.495896 0.563888 0.158893
C43   C     C_2   0.152212 0.398151 0.616489 -0.218317
C44   C     C_2   0.979088 0.655232 0.541235 -0.192584
C45   C     C_2   0.134972 0.491143 0.601865 -0.081004
C46   C     C_2   0.040077 0.584589 0.611765 -0.127404
H35   H     H_    0.010126 0.653069 0.489450 0.187762
H36   H     H_    0.109821 0.394358 0.653731 0.132728
C47   C     C_2   0.827723 0.134583 0.901682 -0.228011
C48   C     C_2   0.013663 0.051597 0.159954 -0.216886
H37   H     H_    0.005303 0.826497 0.079954 0.126697
H38   H     H_    0.993096 0.043932 0.496945 0.131411
C49   C     C_R   0.089170 0.743119 0.216274 -0.259634
C50   C     C_R   0.824450 0.112807 0.380621 -0.234025
H39   H     H_    0.013890 0.773700 0.225309 0.158903
H40   H     H_    0.835817 0.044397 0.323675 0.157113
C51   C     C_R   0.190366 0.673864 0.286537 0.353094
C52   C     C_R   0.721612 0.201377 0.355100 0.369751
C53   C     C_R   0.287755 0.635612 0.272752 -0.083438
C54   C     C_R   0.709295 0.289661 0.431888 -0.048347
C55   C     C_R   0.281380 0.670132 0.191401 -0.163924
C56   C     C_R   0.801209 0.288243 0.529763 -0.216755
H41   H     H_    0.354838 0.641861 0.179883 0.142129
H42   H     H_    0.793351 0.354783 0.589278 0.125670
C57   C     C_R   0.180127 0.739041 0.122735 -0.075115
C58   C     C_R   0.902836 0.200058 0.552855 -0.096222
H43   H     H_    0.175985 0.764320 0.059756 0.119059
H44   H     H_    0.972677 0.199448 0.628768 0.118588
C59   C     C_R   0.084020 0.774355 0.134332 -0.171276
C60   C     C_R   0.914241 0.112331 0.478685 -0.147077
C61   C     C_R   0.400643 0.458882 0.336966 -0.109992
C62   C     C_R   0.596409 0.480765 0.419318 -0.226504
H45   H     H_    0.323762 0.450477 0.300565 0.111468
H46   H     H_    0.672940 0.487403 0.447708 0.128821
C63   C     C_R   0.502611 0.377061 0.388490 0.069157
C64   C     C_R   0.495034 0.570063 0.395022 0.043258
C65   C     C_R   0.601205 0.382580 0.413113 0.103896
C66   C     C_R   0.395722 0.555412 0.337357 0.113281
C67   C     C_2   0.854955 0.110781 0.994822 -0.075284
C68   C     C_2   0.953218 0.119946 0.087051 -0.107479
N17   N     N_R   0.193239 0.646379 0.372421 0.218233
O1    O     O_R   0.279583 0.631817 0.463768 -0.429529
O2    O     O_R   0.104680 0.647707 0.363523 -0.455779
N18   N     N_R   0.632207 0.200718 0.251589 0.225920
O3    O     O_R   0.563167 0.286587 0.203979 -0.407961
O4    O     O_R   0.628014 0.111890 0.198833 -0.436586

loop_
_geom_bond_atom_site_label_1
_geom_bond_atom_site_label_2
_geom_bond_distance
_ccdc_geom_bond_type
C19   C43   1.460629 S    
H20   C47   1.084703 S    
C27   C29   1.410067 A    
H34   C45   1.085690 S    
C18   C48   1.465199 S    
N8    Ni3   1.836371 S    
C53   C66   1.483799 S    
C37   C39   1.409356 A    
C26   C36   1.398166 A    
C54   C65   1.483792 S    
C6    N6    1.330372 A    
C64   C66   1.414249 A    
C49   C59   1.395672 A    
C28   C30   1.405680 A    
C52   C54   1.421539 A    
N17   O1    1.301458 A    
C3    N3    1.333392 A    
N1    N15   1.379884 A    
N8    N12   1.363806 A    
C48   C68   1.338357 D    
C1    N1    1.333554 A    
C12   N12   1.320611 A    
C7    H7    1.078999 S    
C30   C32   1.401978 A    
H22   C36   1.081939 S    
C14   N14   1.342039 A    
C13   C19   1.387846 A    
C32   H28   1.083268 S    
C14   C20   1.379967 A    
C62   C64   1.400621 A    
C16   C18   1.379417 A    
C37   C42   1.404117 A    
N5    N9    1.363807 A    
H37   C59   1.082202 S    
N11   Ni1   1.846174 S    
C8    N8    1.343934 A    
N4    N14   1.379886 A    
C2    C18   1.380750 A    
N5    Ni3   1.841213 S    
N4    Ni1   1.845953 S    
C58   C60   1.394040 A    
C24   C39   1.474061 S    
C38   C40   1.389113 A    
C58   H44   1.082624 S    
C55   H41   1.083392 S    
C11   H11   1.078592 S    
N6    N10   1.363807 A    
C4    N4    1.335021 A    
C4    C20   1.383816 A    
C25   C27   1.397519 A    
C43   H36   1.087626 S    
C8    C24   1.401680 A    
C31   H27   1.082484 S    
C49   H39   1.082598 S    
C2    N2    1.338055 A    
N7    N11   1.363807 A    
N13   Ni4   1.841197 S    
C50   C60   1.396210 A    
C10   C22   1.397001 A    
C43   C45   1.335828 D    
C16   H16   1.081840 S    
C5    C21   1.381158 A    
C57   H43   1.082409 S    
H18   C67   1.084902 S    
C9    N9    1.337906 A    
C22   C64   1.475339 S    
C25   C35   1.395737 A    
N1    Ni1   1.831401 S    
N2    Ni2   1.831402 S    
C28   H26   1.083259 S    
C27   H25   1.083125 S    
H33   C46   1.084935 S    
N6    Ni4   1.841215 S    
C34   C36   1.398986 A    
C50   C52   1.407226 A    
C55   C57   1.395284 A    
C53   C55   1.406107 A    
C25   H23   1.082724 S    
C12   H12   1.066992 S    
C2    H2    1.080360 S    
C17   C47   1.466098 S    
C23   C40   1.470765 S    
C52   N18   1.440298 S    
C30   C41   1.473823 S    
C39   C41   1.422073 A    
C15   H15   1.079888 S    
C33   H29   1.080765 S    
C32   C34   1.394355 A    
N16   Ni4   1.835770 S    
C45   C46   1.454750 S    
N9    Ni2   1.831910 S    
C31   C33   1.399552 A    
C26   C28   1.398370 A    
N10   Ni1   1.831911 S    
C40   C42   1.410243 A    
C51   C53   1.421430 A    
C29   C31   1.408013 A    
N14   Ni3   1.841197 S    
N2    N16   1.379885 A    
C56   H42   1.083509 S    
C26   H24   1.082447 S    
C6    C22   1.387573 A    
C38   H32   1.080380 S    
C10   N10   1.338909 A    
C34   H30   1.079082 S    
C37   H31   1.081670 S    
C61   C63   1.401771 A    
C67   C68   1.460794 S    
C6    H6    1.071857 S    
H17   C68   1.084914 S    
C21   C63   1.478030 S    
C8    H8    1.079622 S    
N3    Ni2   1.845957 S    
C7    N7    1.325442 A    
C7    C23   1.381769 A    
N17   O2    1.301677 A    
C3    H3    1.079539 S    
C38   C41   1.376563 A    
C62   H46   1.081363 S    
C49   C51   1.406520 A    
C15   C17   1.390791 A    
C9    C21   1.389794 A    
H19   C48   1.086162 S    
N12   Ni2   1.846175 S    
N15   Ni3   1.835770 S    
C54   C56   1.407747 A    
H21   C35   1.082536 S    
N18   O4    1.301417 A    
C57   C59   1.393332 A    
C9    H9    1.079589 S    
C44   H35   1.087165 S    
C10   H10   1.076960 S    
C5    N5    1.331590 A    
C11   C23   1.382457 A    
C5    H5    1.072877 S    
C47   C67   1.337698 D    
C3    C19   1.391195 A    
C13   H13   1.081046 S    
C14   H14   1.081788 S    
C61   C66   1.392065 A    
C51   N17   1.439947 S    
C15   N15   1.346375 A    
C62   C65   1.392728 A    
C20   C44   1.461612 S    
C50   H40   1.082784 S    
N3    N13   1.379883 A    
C11   N11   1.340734 A    
C13   N13   1.341135 A    
C44   C46   1.336217 D    
N18   O3    1.301173 A    
C56   C58   1.395550 A    
C4    H4    1.080099 S    
H38   C60   1.082540 S    
C61   H45   1.080426 S    
N7    Ni4   1.836371 S    
C1    H1    1.078250 S    
C1    C17   1.386757 A    
C12   C24   1.380317 A    
C33   C35   1.396521 A    
C16   N16   1.344685 A    
C29   C42   1.489607 S    
C63   C65   1.417479 A    
