data_mof_unit_47598.cif
_audit_creation_date              2012-12-10T17:08:41-0500
_audit_creation_method            fapswitch 2.2
_symmetry_space_group_name_H-M    P1
_symmetry_Int_Tables_number       1
_space_group_crystal_system       triclinic
_cell_length_a                    27.778263
_cell_length_b                    11.09619
_cell_length_c                    9.800558
_cell_angle_alpha                 112.200033
_cell_angle_beta                  97.087845
_cell_angle_gamma                 91.37003
_cell_volume                      2767.35568679

loop_
_atom_site_label
_atom_site_type_symbol
_atom_type_description
_atom_site_fract_x
_atom_site_fract_y
_atom_site_fract_z
_atom_type_partial_charge
C1    C     C_R   0.495932 0.253644 0.439146 0.749981
C2    C     C_R   0.866878 0.386313 0.388850 -0.162090
C3    C     C_R   0.354469 0.499538 0.508646 -0.116812
C4    C     C_R   0.645450 0.500899 0.490874 -0.114995
C5    C     C_R   0.969163 0.383380 0.397359 -0.054034
C6    C     C_R   0.029379 0.611470 0.580706 -0.081110
C7    C     C_R   0.978187 0.617912 0.553932 -0.072335
C8    C     C_R   0.020606 0.378168 0.419711 0.012198
C9    C     C_R   0.948294 0.501000 0.474148 -0.054794
C10   C     C_R   0.050456 0.494676 0.502628 -0.052278
C11   C     C_R   0.937552 0.278360 0.291078 0.432960
C12   C     C_R   0.504076 0.746357 0.560851 0.750931
C13   C     C_R   0.060160 0.713912 0.693490 0.364901
C14   C     C_R   0.887497 0.273989 0.298531 0.390193
C15   C     C_R   0.110653 0.718155 0.693695 0.405492
C16   C     C_R   0.407414 0.499712 0.502645 0.847645
C17   C     C_R   0.592569 0.500535 0.497380 0.848337
C18   C     C_R   0.043174 0.258749 0.374770 0.342888
C19   C     C_R   0.955552 0.738107 0.596149 0.361700
C20   C     C_2   0.489479 0.113028 0.403262 0.120325
C21   C     C_2   0.510546 0.886970 0.596715 0.120584
C22   C     C_2   0.508413 0.065739 0.505066 0.388853
C23   C     C_R   0.101802 0.493179 0.513081 -0.200038
C24   C     C_2   0.491627 0.934251 0.494886 0.388511
C25   C     C_2   0.504225 0.510529 0.081405 0.005234
C26   C     C_2   0.495749 0.489538 0.918611 0.006542
C27   C     C_R   0.173916 0.381935 0.435546 0.650477
C28   C     C_R   0.825788 0.615469 0.550589 0.629533
C29   C     C_R   0.182400 0.606598 0.598452 0.623810
C30   C     C_R   0.816574 0.388322 0.397141 0.633808
C31   C     C_R   0.272447 0.506277 0.389381 0.474402
C32   C     C_R   0.727487 0.487034 0.604671 0.480185
C33   C     C_R   0.322966 0.507011 0.388630 -0.408874
C34   C     C_R   0.897058 0.502407 0.468317 -0.191980
C35   C     C_R   0.677028 0.487428 0.607171 -0.412848
C36   C     C_R   0.334922 0.491282 0.631751 0.403140
C37   C     C_R   0.664811 0.514794 0.370268 0.407346
C38   C     C_R   0.284349 0.490788 0.631668 -0.293556
C39   C     C_R   0.715263 0.514139 0.368616 -0.305959
C40   C     C_R   0.253425 0.497918 0.511663 0.277613
C41   C     C_R   0.746265 0.500442 0.484503 0.280555
C42   C     C_3   0.103097 0.099814 0.144077 -0.208600
C43   C     C_3   0.871553 0.896558 0.530738 -0.202582
C44   C     C_3   0.862598 0.066151 0.260697 -0.149007
C45   C     C_R   0.123107 0.377140 0.434953 -0.129949
C46   C     C_3   0.136636 0.929462 0.750170 -0.205463
C47   C     C_3   0.960869 0.230626 0.063371 -0.231866
C48   C     C_3   0.034854 0.759121 0.917864 -0.245657
C49   C     C_3   0.411402 0.866822 0.417780 -0.199481
C50   C     C_3   0.588639 0.133191 0.582110 -0.201403
C51   C     C_R   0.876017 0.619915 0.542309 -0.189267
C52   C     C_R   0.093460 0.259127 0.364864 0.359530
C53   C     C_R   0.905246 0.738800 0.597696 0.476468
C54   C     C_R   0.131815 0.607825 0.601325 -0.152823
Cu1   Cu    Cu3+1 0.508480 0.521810 0.644910 1.000092
Cu2   Cu    Cu3+1 0.491520 0.478190 0.355090 0.999666
H1    H     H_    0.467302 0.417279 0.845388 0.182049
H2    H     H_    0.653792 0.539366 0.182409 0.320286
H3    H     H_    0.551477 0.916543 0.785105 0.343167
H4    H     H_    0.448533 0.083457 0.214893 0.343180
H5    H     H_    0.063272 0.078581 0.105947 0.174692
H6    H     H_    0.120646 0.007835 0.092329 0.231298
H7    H     H_    0.117780 0.172649 0.103826 0.162893
H8    H     H_    0.844650 0.823883 0.442741 0.135297
H9    H     H_    0.903823 0.913857 0.481851 0.154157
H10   H     H_    0.854096 0.989967 0.573015 0.191221
H11   H     H_    0.740211 0.465046 0.793084 0.322104
H12   H     H_    0.532649 0.582854 0.154642 0.183853
H13   H     H_    0.260003 0.519303 0.196000 0.322988
H14   H     H_    0.852451 0.099696 0.374978 0.129698
H15   H     H_    0.899916 0.031969 0.260723 0.175215
H16   H     H_    0.837104 0.981229 0.188585 0.189092
H17   H     H_    0.147286 0.902280 0.637009 0.167589
H18   H     H_    0.162491 0.011096 0.828111 0.190748
H19   H     H_    0.099691 0.965930 0.752293 0.170227
H20   H     H_    0.990047 0.311631 0.104691 0.121015
H21   H     H_    0.926360 0.263288 0.022753 0.170516
H22   H     H_    0.972422 0.151159 0.967044 0.219266
H23   H     H_    0.548023 0.622485 0.934705 0.198471
H24   H     H_    0.069808 0.732650 0.964070 0.163351
H25   H     H_    0.007490 0.673636 0.873309 0.154186
H26   H     H_    0.020740 0.836064 0.010953 0.195261
H27   H     H_    0.038534 0.073600 0.345294 0.349363
H28   H     H_    0.007291 0.838374 0.561819 0.312869
H29   H     H_    0.384488 0.808565 0.319724 0.197927
H30   H     H_    0.401322 0.969724 0.457464 0.157639
H31   H     H_    0.408768 0.826523 0.504978 0.118448
H32   H     H_    0.598725 0.030293 0.542403 0.157858
H33   H     H_    0.615559 0.191452 0.680147 0.197177
H34   H     H_    0.451998 0.377453 0.065279 0.198421
H35   H     H_    0.591257 0.173503 0.494917 0.118432
H36   H     H_    0.268693 0.483924 0.724637 0.153680
H37   H     H_    0.730780 0.524993 0.277379 0.148441
H38   H     H_    0.662424 0.476175 0.699564 0.176335
H39   H     H_    0.337645 0.514109 0.294301 0.177605
H40   H     H_    0.345736 0.476676 0.825106 0.320929
N1    N     N_R   0.201912 0.495758 0.514236 -0.452400
N2    N     N_R   0.797601 0.500933 0.479357 -0.446064
N3    N     N_2   0.478780 0.445430 0.137360 -0.279522
N4    N     N_2   0.521220 0.554570 0.862640 -0.279148
O1    O     O_R   0.504520 0.332330 0.577400 -0.539016
O2    O     O_2   0.805065 0.724064 0.629530 -0.474673
O3    O     O_2   0.786651 0.279062 0.324923 -0.487497
O4    O     O_2   0.212074 0.715141 0.677497 -0.484113
O5    O     O_3   0.365387 0.481748 0.749278 -0.719592
O6    O     O_3   0.634272 0.531004 0.256999 -0.722664
O7    O     O_3   0.537345 0.969046 0.730063 -0.688276
O8    O     O_3   0.462682 0.030952 0.269909 -0.688102
O9    O     O_3   0.114103 0.142180 0.300313 -0.557926
O10   O     O_3   0.885018 0.857744 0.650878 -0.493224
O11   O     O_3   0.759127 0.473372 0.717219 -0.709609
O12   O     O_R   0.495480 0.667670 0.422600 -0.538313
O13   O     O_3   0.240941 0.514044 0.272985 -0.714675
O14   O     O_3   0.858272 0.164703 0.202749 -0.506277
O15   O     O_3   0.139476 0.824379 0.797890 -0.531673
O16   O     O_3   0.954140 0.181352 0.173432 -0.523791
O17   O     O_3   0.041800 0.809137 0.808591 -0.542417
O18   O     O_3   0.016722 0.144976 0.356422 -0.700804
O19   O     O_3   0.980308 0.855896 0.622479 -0.674888
O20   O     O_3   0.458155 0.856413 0.373903 -0.539734
O21   O     O_3   0.541892 0.143573 0.626032 -0.539553
O22   O     O_R   0.490210 0.295500 0.332650 -0.583102
O23   O     O_R   0.509790 0.704500 0.667350 -0.582878
O24   O     O_R   0.437420 0.518430 0.622370 -0.520744
O25   O     O_R   0.562580 0.481570 0.377630 -0.521541
O26   O     O_R   0.423110 0.481600 0.377610 -0.589119
O27   O     O_R   0.576890 0.518400 0.622390 -0.588578
O28   O     O_2   0.195526 0.274258 0.358812 -0.473133

loop_
_geom_bond_atom_site_label_1
_geom_bond_atom_site_label_2
_ccdc_geom_bond_type
C53   O10   S    
H40   O5    S    
C23   C45   A    
C32   O11   S    
C49   H31   S    
C46   H18   S    
Cu1   Cu2   S    
C17   O25   A    
C18   C52   A    
C39   C41   A    
C31   C40   A    
C50   O21   S    
H13   O13   S    
C34   C51   A    
C46   O15   S    
C23   C54   A    
C3    C36   A    
H27   O18   S    
C42   O9    S    
C47   H20   S    
C5    C11   A    
C43   H10   S    
C28   C51   A    
C49   O20   S    
C29   C54   A    
C3    C33   A    
C38   H36   S    
C48   H25   S    
C44   H15   S    
C1    O22   A    
C39   H37   S    
C25   N3    D    
C30   O3    S    
C32   C41   A    
C31   C33   A    
C44   H14   S    
C43   O10   S    
Cu2   O26   S    
C42   H6    S    
H4    O8    S    
C50   H32   S    
C2    C34   A    
C19   C53   A    
C4    C35   A    
C44   O14   S    
C25   H12   S    
C33   H39   S    
C46   H19   S    
C43   H8    S    
C6    C7    A    
C47   O16   S    
Cu1   O23   S    
C24   O20   S    
C32   C35   A    
C49   H29   S    
H23   N4    S    
C40   N1    S    
C17   O27   A    
C45   C52   A    
C25   C26   S    
C14   O14   S    
C12   C21   S    
H3    O7    S    
C29   O4    S    
H2    O6    S    
Cu2   O22   S    
Cu1   N4    S    
C15   C54   A    
C5    C9    A    
C27   O28   S    
C50   H33   S    
C43   H9    S    
Cu2   O25   S    
C11   O16   S    
C42   H5    S    
C21   O7    S    
C4    C17   S    
H11   O11   S    
C20   C22   D    
C7    C19   A    
C13   C15   A    
C9    C34   A    
C22   C24   S    
C47   H21   S    
C1    O1    A    
H34   N3    S    
C12   O12   A    
C22   O21   S    
C35   H38   S    
C28   N2    A    
C7    C9    A    
Cu1   O1    S    
Cu1   O24   S    
C27   N1    A    
C1    C20   S    
C36   O5    S    
C49   H30   S    
Cu1   O27   S    
C6    C10   A    
C5    C8    A    
C13   O17   S    
C48   O17   S    
C10   C23   A    
C30   N2    A    
Cu2   N3    S    
C29   N1    A    
C2    C30   A    
C48   H24   S    
C36   C38   A    
C16   O24   A    
C37   O6    S    
C37   C39   A    
C6    C13   A    
C38   C40   A    
C18   O18   S    
C27   C45   A    
C12   O23   A    
C52   O9    S    
H28   O19   S    
Cu2   O12   S    
C11   C14   A    
C48   H26   S    
C44   H16   S    
C15   O15   S    
C2    C14   A    
C26   H1    S    
C8    C18   A    
C19   O19   S    
C28   O2    S    
C50   H35   S    
C4    C37   A    
C8    C10   A    
C21   C24   D    
C41   N2    S    
C47   H22   S    
C51   C53   A    
C16   O26   A    
C42   H7    S    
C31   O13   S    
C46   H17   S    
C3    C16   S    
C26   N4    D    
C20   O8    S    
