data_mof_unit_66456.cif
_audit_creation_date              2013-03-05T16:44:32-0500
_audit_creation_method            fapswitch 2.2
_symmetry_space_group_name_H-M    P1
_symmetry_Int_Tables_number       1
_space_group_crystal_system       triclinic
_cell_length_a                    15.529608
_cell_length_b                    19.162156
_cell_length_c                    19.193679
_cell_angle_alpha                 94.516699
_cell_angle_beta                  102.27161
_cell_angle_gamma                 97.100239
_cell_volume                      5505.78434579

loop_
_atom_site_label
_atom_site_type_symbol
_atom_site_description
_atom_site_fract_x
_atom_site_fract_y
_atom_site_fract_z
_atom_type_partial_charge
Zn1   Zn    Zn3+2 0.425320 0.550450 0.550460 0.972875
Zn2   Zn    Zn3+2 0.580410 0.455020 0.567370 1.032758
Zn3   Zn    Zn3+2 0.568940 0.565780 0.453410 1.031603
Zn4   Zn    Zn3+2 0.425330 0.428750 0.428760 0.989367
O1    O     O_3   0.500000 0.500000 0.500000 -0.499455
O2    O     O_R   0.453390 0.335660 0.446330 -0.647588
O3    O     O_R   0.442080 0.649780 0.539130 -0.642452
O4    O     O_R   0.561920 0.473910 0.663190 -0.645347
O5    O     O_R   0.542610 0.540650 0.351350 -0.593971
O6    O     O_R   0.703360 0.489010 0.567610 -0.610787
O7    O     O_R   0.300660 0.429640 0.429680 -0.642360
O8    O     O_R   0.695340 0.566530 0.487850 -0.633342
O9    O     O_R   0.300650 0.514820 0.514850 -0.642876
O10   O     O_R   0.453370 0.540700 0.651360 -0.647426
O11   O     O_R   0.442100 0.444740 0.334100 -0.648028
O12   O     O_R   0.561930 0.354050 0.543340 -0.596917
O13   O     O_R   0.542600 0.660510 0.471200 -0.625889
C1    C     C_R   0.510246 0.311610 0.493196 0.877950
C2    C     C_R   0.490073 0.688165 0.505383 0.826594
C3    C     C_R   0.509530 0.508460 0.690958 0.806481
C4    C     C_R   0.489347 0.491807 0.308725 0.841330
C5    C     C_R   0.741178 0.534871 0.535581 0.803719
C6    C     C_R   0.258188 0.465171 0.466738 0.785530
C7    C     C_R   0.972686 0.560852 0.644570 -0.162581
H1    H     H_    0.847936 0.584357 0.663266 0.142222
H2    H     H_    0.137464 0.532071 0.675449 0.166058
H3    H     H_    0.006376 0.575484 0.700300 0.154824
C8    C     C_R   0.837621 0.546551 0.552413 0.006747
C9    C     C_R   0.116283 0.430328 0.377547 -0.173236
C10   C     C_R   0.025682 0.431641 0.354295 -0.128337
C11   C     C_R   0.977580 0.459097 0.400676 -0.155476
C12   C     C_R   0.018768 0.483145 0.473229 0.087442
C13   C     C_R   0.110213 0.476662 0.498125 0.084076
C14   C     C_R   0.972260 0.512859 0.522102 0.083513
C15   C     C_R   0.016999 0.532354 0.595156 0.160500
C16   C     C_R   0.104269 0.520242 0.619276 -0.218743
C17   C     C_R   0.149482 0.491378 0.571990 -0.181490
C18   C     C_R   0.882047 0.522195 0.501622 -0.216136
C19   C     C_R   0.883026 0.566825 0.623487 -0.177312
C20   C     C_R   0.160039 0.454719 0.448563 -0.076448
H4    H     H_    0.842701 0.506827 0.447990 0.135745
H5    H     H_    0.152875 0.412669 0.338939 0.170466
H6    H     H_    0.908183 0.459993 0.377954 0.141441
H7    H     H_    0.992924 0.413329 0.299100 0.158699
H8    H     H_    0.215023 0.479284 0.594826 0.171763
C21   C     C_R   0.480276 0.763284 0.501104 -0.069928
C22   C     C_R   0.521898 0.801972 0.455153 -0.248470
C23   C     C_R   0.508953 0.872089 0.446557 0.312520
C24   C     C_R   0.455924 0.904843 0.487341 0.216671
C25   C     C_R   0.413073 0.865743 0.531906 -0.215802
C26   C     C_R   0.425160 0.795561 0.538958 -0.192161
C27   C     C_R   0.436447 0.115536 0.469600 -0.183525
C28   C     C_R   0.435943 0.187788 0.467049 -0.261782
C29   C     C_R   0.516570 0.089111 0.495747 0.239122
N1    N     N_2   0.446873 0.977315 0.486250 -0.160349
N2    N     N_2   0.520557 0.015620 0.498254 -0.089233
C30   C     C_R   0.514806 0.235312 0.491009 -0.164694
H9    H     H_    0.373184 0.206781 0.447882 0.191258
H10   H     H_    0.374002 0.080553 0.450951 0.188040
H11   H     H_    0.371648 0.890364 0.562496 0.173512
H12   H     H_    0.391441 0.766647 0.574081 0.184466
C31   C     C_R   0.596128 0.209471 0.515820 0.228164
C32   C     C_R   0.596385 0.136243 0.517817 0.190328
H13   H     H_    0.562142 0.776841 0.423805 0.226334
C33   C     C_R   0.483326 0.489614 0.230845 -0.089078
C34   C     C_R   0.505251 0.551266 0.198457 0.241205
C35   C     C_R   0.502823 0.546193 0.125221 -0.166080
C36   C     C_R   0.478122 0.480534 0.082750 0.280160
C37   C     C_R   0.452432 0.420358 0.114194 -0.174866
C38   C     C_R   0.455492 0.424641 0.187639 -0.245055
C39   C     C_R   0.448173 0.537033 0.870084 0.285815
C40   C     C_R   0.444737 0.534708 0.796672 -0.249460
C41   C     C_R   0.521053 0.515416 0.915944 0.264430
N3    N     N_2   0.475254 0.474160 0.008056 -0.138844
N4    N     N_2   0.528119 0.520416 0.990620 -0.166563
C42   C     C_R   0.513499 0.510825 0.768367 -0.053014
H14   H     H_    0.388268 0.551520 0.761888 0.191048
H15   H     H_    0.431572 0.369727 0.081887 0.166913
H16   H     H_    0.437363 0.376784 0.210886 0.187962
C43   C     C_R   0.586137 0.489541 0.814634 -0.198180
C44   C     C_R   0.590202 0.492599 0.888087 -0.219395
H17   H     H_    0.640302 0.471403 0.794212 0.185177
H18   H     H_    0.519025 0.594001 0.101243 0.199126
H19   H     H_    0.647082 0.476945 0.923414 0.171018
N5    N     N_R   0.678533 0.256898 0.536412 0.243926
O14   O     O_R   0.702379 0.299201 0.491903 -0.378817
O15   O     O_R   0.729068 0.259034 0.600206 -0.316379
N6    N     N_R   0.546994 0.908230 0.394796 0.229736
O16   O     O_R   0.503932 0.951935 0.357360 -0.339626
O17   O     O_R   0.619553 0.891277 0.378677 -0.328857
Br1   Br    Br    0.706613 0.099163 0.547612 -0.323763
Br2   Br    Br    0.354069 0.572221 0.906313 -0.466409
Br3   Br    Br    0.533800 0.644944 0.248933 -0.422107

loop_
_geom_bond_atom_site_label_1
_geom_bond_atom_site_label_2
_geom_bond_distance
_ccdc_geom_bond_type
N1    N2    1.246946 D    
C35   H18   1.083066 S    
C9    H5    1.083318 S    
C15   C16   1.390302 A    
C26   H12   1.082963 S    
C7    H3    1.084037 S    
C40   C42   1.404688 A    
C2    C21   1.472868 S    
C30   C31   1.415255 A    
N5    O14   1.301307 A    
O6    C5    1.267310 A    
C3    C42   1.470758 S    
C9    C10   1.386736 A    
C11   H6    1.076057 S    
Zn1   O1    1.955705 S    
C16   C17   1.382196 A    
C10   C11   1.390463 A    
C29   C32   1.404017 A    
C36   N3    1.419925 S    
C33   C38   1.405918 A    
O8    C5    1.277157 A    
C7    C19   1.386650 A    
O9    C6    1.280779 A    
C14   C15   1.423927 A    
Zn3   O8    1.931387 S    
C39   Br2   1.917179 S    
C22   C23   1.400168 A    
C36   C37   1.396881 A    
C23   N6    1.439541 S    
Zn2   O12   1.924698 S    
C34   C35   1.393479 A    
C5    C8    1.448355 S    
C41   N4    1.408732 S    
C10   H7    1.082803 S    
C37   H15   1.083003 S    
C41   C44   1.397679 A    
C27   C29   1.409553 A    
N5    O15   1.300956 A    
O2    C1    1.276480 A    
C31   N5    1.435535 S    
C29   N2    1.421369 S    
C13   C20   1.418024 A    
N3    N4    1.247108 D    
C35   C36   1.407433 A    
C7    C15   1.400021 A    
O10   C3    1.282707 A    
C18   H4    1.077084 S    
C43   H17   1.083033 S    
Zn4   O2    1.926137 S    
C22   H13   1.083130 S    
C39   C41   1.406125 A    
C28   C30   1.399858 A    
C43   C44   1.394005 A    
C8    C19   1.396054 A    
C24   N1    1.414324 S    
C21   C26   1.402678 A    
C13   C17   1.410106 A    
C14   C18   1.410024 A    
C40   H14   1.083225 S    
Zn3   O5    1.923189 S    
C27   H10   1.082523 S    
C1    C30   1.470210 S    
C11   C12   1.417089 A    
C8    C18   1.392142 A    
C31   C32   1.407220 A    
C25   C26   1.393704 A    
O4    C3    1.283047 A    
Zn4   O7    1.942070 S    
C34   Br3   1.924634 S    
H2    C16   1.084405 S    
C23   C24   1.417515 A    
N6    O17   1.301480 A    
C24   C25   1.398397 A    
O3    C2    1.288716 A    
Zn2   O1    1.931190 S    
Zn1   O9    1.928444 S    
C17   H8    1.080021 S    
Zn2   O6    1.938627 S    
C44   H19   1.083021 S    
C27   C28   1.390142 A    
C21   C22   1.404307 A    
C4    C33   1.474680 S    
C38   H16   1.083219 S    
Zn1   O3    1.924749 S    
Zn2   O4    1.934226 S    
C42   C43   1.404412 A    
Zn4   O1    1.928460 S    
Zn3   O1    1.945657 S    
C28   H9    1.083543 S    
C25   H11   1.083109 S    
C12   C13   1.423018 A    
Zn4   O11   1.931797 S    
C39   C40   1.395639 A    
H1    C19   1.083726 S    
O5    C4    1.276643 A    
C9    C20   1.401976 A    
O7    C6    1.280117 A    
O13   C2    1.286985 A    
Zn3   O13   1.929844 S    
C37   C38   1.395897 A    
O11   C4    1.283166 A    
N6    O16   1.301485 A    
O12   C1    1.272347 A    
C33   C34   1.415713 A    
C32   Br1   1.926316 S    
Zn1   O10   1.921910 S    
C6    C20   1.473942 S    
C12   C14   1.425238 A    
