data_mof_unit_59718.cif
_audit_creation_date              2013-03-05T15:52:29-0500
_audit_creation_method            fapswitch 2.2
_symmetry_space_group_name_H-M    P1
_symmetry_Int_Tables_number       1
_space_group_crystal_system       triclinic
_cell_length_a                    11.010187
_cell_length_b                    11.14959
_cell_length_c                    18.67583
_cell_angle_alpha                 90.521053
_cell_angle_beta                  90.370822
_cell_angle_gamma                 59.368886
_cell_volume                      1972.64075347

loop_
_atom_site_label
_atom_site_type_symbol
_atom_site_description
_atom_site_fract_x
_atom_site_fract_y
_atom_site_fract_z
_atom_type_partial_charge
O1    O     O_R   0.748670 0.497520 0.427970 -0.515572
O2    O     O_R   0.476470 0.723930 0.429450 -0.494352
C1    C     C_R   0.357812 0.773707 0.397378 0.527875
O3    O     O_R   0.264730 0.744140 0.416740 -0.552938
O4    O     O_R   0.309440 0.472410 0.418220 -0.498189
C2    C     C_R   0.378066 0.351080 0.390960 0.535051
O5    O     O_R   0.501630 0.260530 0.414310 -0.534405
O6    O     O_R   0.727920 0.305730 0.428950 -0.503206
C3    C     C_R   0.785135 0.372993 0.406164 0.532950
O7    O     O_R   0.738670 0.496020 0.588600 -0.506856
O8    O     O_R   0.467190 0.722540 0.578350 -0.509376
C4    C     C_R   0.340484 0.775220 0.602375 0.538047
O9    O     O_R   0.254720 0.742640 0.577370 -0.521395
O10   O     O_R   0.300170 0.471020 0.567120 -0.510151
C5    C     C_R   0.369325 0.349274 0.594579 0.549768
O11   O     O_R   0.491630 0.259030 0.574940 -0.520725
O12   O     O_R   0.718640 0.304340 0.577850 -0.518611
C6    C     C_R   0.758649 0.379673 0.611229 0.541663
Cr1   Cr    Cr6+3 0.601740 0.606840 0.505840 1.015278
Cr2   Cr    Cr6+3 0.291500 0.601560 0.495070 1.009487
Cr3   Cr    Cr6+3 0.606780 0.291630 0.499130 0.996246
O13   O     O_3   0.500010 0.500010 0.500020 -0.248728
C7    C     C_R   0.884476 0.871367 0.152291 0.219370
C8    C     C_R   0.856587 0.945750 0.216486 -0.099496
C9    C     C_R   0.717894 0.033730 0.239496 -0.158139
C10   C     C_R   0.600213 0.065407 0.195173 0.012086
H1    H     H_    0.490987 0.109647 0.323821 0.139310
C11   C     C_R   0.349381 0.299668 0.172474 0.002595
C12   C     C_R   0.421837 0.196206 0.289623 -0.166933
C13   C     C_R   0.450572 0.183854 0.216323 -0.027480
C14   C     C_R   0.113696 0.678514 0.329041 0.010492
C15   C     C_R   0.004638 0.790620 0.367606 -0.101667
C16   C     C_R   0.632652 0.975728 0.135707 -0.118575
C17   C     C_R   0.770576 0.884056 0.113094 -0.120790
C18   C     C_R   0.239903 0.421065 0.204800 -0.123709
C19   C     C_R   0.225695 0.436685 0.278354 -0.040770
C20   C     C_R   0.874607 0.800620 0.375151 -0.132456
C21   C     C_R   0.850232 0.705502 0.339490 -0.103261
C22   C     C_R   0.960289 0.593285 0.302548 -0.107871
C23   C     C_R   0.099579 0.567415 0.306698 0.038178
C24   C     C_R   0.330045 0.326274 0.321297 -0.015162
H2    H     H_    0.787677 0.819612 0.066161 0.161344
H3    H     H_    0.016585 0.873013 0.390241 0.122652
H4    H     H_    0.942000 0.934751 0.249645 0.135121
H5    H     H_    0.706240 0.074789 0.292977 0.122683
H6    H     H_    0.209968 0.675315 0.314866 0.168708
H7    H     H_    0.554968 0.964571 0.108962 0.197444
H8    H     H_    0.789954 0.887793 0.403739 0.110246
H9    H     H_    0.745127 0.722172 0.339535 0.132821
H10   H     H_    0.932535 0.534785 0.267877 0.133041
C25   C     C_R   0.931499 0.300807 0.193974 0.001975
C26   C     C_R   0.823696 0.278247 0.215301 0.017198
C27   C     C_R   0.790304 0.283527 0.286545 0.000760
C28   C     C_R   0.988216 0.304583 0.320631 -0.164166
C29   C     C_R   0.027019 0.289941 0.247613 -0.201806
C30   C     C_3   0.673249 0.347021 0.192972 -0.234181
C31   C     C_3   0.637209 0.350899 0.271851 -0.261582
C32   C     C_R   0.857984 0.319296 0.338369 0.012512
H11   H     H_    0.053850 0.313569 0.361212 0.132795
H12   H     H_    0.127827 0.274875 0.232875 0.117990
H13   H     H_    0.651159 0.277367 0.159702 0.174607
H14   H     H_    0.638954 0.448517 0.169170 0.211574
H15   H     H_    0.580338 0.447789 0.302446 0.129447
C33   C     C_R   0.295002 0.948244 0.188351 0.026113
C34   C     C_R   0.431472 0.875463 0.216873 -0.002335
C35   C     C_R   0.450103 0.820377 0.286030 -0.031434
C36   C     C_R   0.200438 0.946004 0.305876 -0.144377
C37   C     C_R   0.180571 0.983497 0.233875 -0.115344
C38   C     C_3   0.552375 0.742442 0.187850 0.066584
C39   C     C_3   0.549100 0.678446 0.257293 -0.269058
C40   C     C_R   0.336037 0.854294 0.331576 0.011120
H16   H     H_    0.109174 0.979073 0.339117 0.110491
H17   H     H_    0.075213 0.032645 0.212357 0.139098
H18   H     H_    0.651099 0.745175 0.181843 0.116641
H19   H     H_    0.486089 0.627604 0.250706 0.169845
H20   H     H_    0.652218 0.618538 0.284556 0.117752
C41   C     C_R   0.298793 0.319487 0.810283 0.046055
C42   C     C_R   0.416586 0.216535 0.774766 -0.029867
C43   C     C_R   0.429327 0.212174 0.702797 0.005359
C44   C     C_R   0.197773 0.415280 0.693106 -0.149076
C45   C     C_R   0.180598 0.416900 0.767938 0.200346
C46   C     C_3   0.569756 0.155632 0.789440 -0.257394
C47   C     C_3   0.586440 0.150906 0.709087 -0.245772
C48   C     C_R   0.326713 0.320193 0.661548 -0.021736
H21   H     H_    0.115524 0.496164 0.660541 0.161854
H22   H     H_    0.618559 0.050455 0.813829 0.153530
H23   H     H_    0.593436 0.230614 0.816580 0.177642
H24   H     H_    0.620530 0.223017 0.690230 0.182618
H25   H     H_    0.647012 0.043088 0.687074 0.135813
C49   C     C_R   0.818732 0.321939 0.836826 0.029584
C50   C     C_R   0.737939 0.450575 0.805728 0.065805
C51   C     C_R   0.724893 0.465460 0.734343 0.065185
C52   C     C_R   0.860306 0.219339 0.716027 -0.180848
C53   C     C_R   0.873628 0.203645 0.791046 -0.173617
C54   C     C_3   0.657599 0.603130 0.820709 -0.220788
C55   C     C_3   0.634944 0.619554 0.739191 -0.233467
C56   C     C_R   0.788549 0.353929 0.686593 0.031145
H26   H     H_    0.905596 0.127902 0.681693 0.129043
H27   H     H_    0.932636 0.100222 0.813001 0.132516
H28   H     H_    0.725525 0.642201 0.842155 0.206048
H29   H     H_    0.559473 0.636609 0.851609 0.207302
H30   H     H_    0.526147 0.650897 0.723054 0.169639
C57   C     C_R   0.254440 0.927941 0.814534 0.017061
C58   C     C_R   0.172355 0.884284 0.779677 -0.032125
C59   C     C_R   0.186398 0.855272 0.707721 -0.025234
C60   C     C_R   0.365148 0.918517 0.699755 -0.168949
C61   C     C_R   0.345568 0.953468 0.772968 -0.160492
C62   C     C_3   0.142771 0.771273 0.796972 0.119029
C63   C     C_3   0.152417 0.741891 0.716805 -0.213169
C64   C     C_R   0.293706 0.856969 0.668332 0.017969
H31   H     H_    0.445631 0.925769 0.670385 0.128223
H32   H     H_    0.409935 0.989128 0.798225 0.149123
H33   H     H_    0.035905 0.812116 0.820138 0.150778
H34   H     H_    0.240317 0.638174 0.699826 0.187813
H35   H     H_    0.048736 0.770440 0.692510 0.120623
O14   O     O_R   0.186620 0.923750 0.087000 -0.382970
O15   O     O_R   0.957350 0.194160 0.084660 -0.517288
C65   C     C_R   0.968464 0.291092 0.118392 0.506613
O16   O     O_R   0.935120 0.407280 0.085350 -0.469363
O17   O     O_R   0.203800 0.365060 0.067090 -0.481108
C66   C     C_R   0.326194 0.284992 0.096394 0.560351
O18   O     O_R   0.417470 0.174910 0.067830 -0.547539
O19   O     O_R   0.375160 0.946380 0.070880 -0.489594
C67   C     C_R   0.269058 0.967137 0.111360 0.563843
O20   O     O_R   0.160500 0.919670 0.926690 -0.442147
O21   O     O_R   0.933140 0.190380 0.936050 -0.532756
C68   C     C_R   0.879362 0.309877 0.906721 0.558688
O22   O     O_R   0.909010 0.403210 0.925030 -0.464349
O23   O     O_R   0.179590 0.361290 0.918480 -0.419585
C69   C     C_R   0.293505 0.288524 0.884912 0.588065
O24   O     O_R   0.391360 0.170840 0.907510 -0.545526
O25   O     O_R   0.350950 0.942600 0.922260 -0.485849
C70   C     C_R   0.239039 0.955481 0.891210 0.562996
Cr4   Cr    Cr6+3 0.062440 0.063060 0.008240 1.089819
Cr5   Cr    Cr6+3 0.062950 0.375000 0.998920 1.136910
Cr6   Cr    Cr6+3 0.374550 0.061770 0.992470 1.020173
O26   O     O_3   0.166650 0.166610 0.999880 -0.365299
H36   H     H_    0.591593 0.287992 0.284700 0.161703
N1    N     N_R   0.520720 0.683426 0.124730 0.080268
O27   O     O_R   0.602220 0.648748 0.068919 -0.312237
O28   O     O_R   0.417862 0.657649 0.124608 -0.259523
N2    N     N_R   0.045849 0.519795 0.797128 0.069495
O29   O     O_R   0.036759 0.585825 0.856362 -0.290160
O30   O     O_R   0.935285 0.571541 0.755890 -0.421675
H37   H     H_    0.681779 0.675758 0.713146 0.184669
N3    N     N_R   0.026907 0.777541 0.129386 0.072775
O31   O     O_R   0.132621 0.749771 0.171371 -0.342648
O32   O     O_R   0.052253 0.717684 0.066697 -0.285453
N4    N     N_R   0.257158 0.658367 0.838533 0.105586
O33   O     O_R   0.378410 0.571965 0.809485 -0.412137
O34   O     O_R   0.237787 0.643712 0.905767 -0.212517
H38   H     H_    0.159643 0.503630 0.172307 0.206337

loop_
_geom_bond_atom_site_label_1
_geom_bond_atom_site_label_2
_geom_bond_distance
_ccdc_geom_bond_type
O20   Cr4   2.063802 S    
C38   N1    1.469135 S    
C43   C47   1.505821 S    
C59   C64   1.404156 A    
C52   C53   1.410917 A    
C27   C32   1.391950 A    
C55   H30   1.103875 S    
H1    C12   1.084043 S    
C61   H32   1.078060 S    
C54   C55   1.538533 S    
C17   H2    1.082971 S    
C58   C62   1.491671 S    
C44   C48   1.397329 A    
Cr4   O26   2.007308 S    
C4    C64   1.456992 S    
O19   C67   1.312454 A    
O4    Cr2   1.961806 S    
C41   C42   1.385593 A    
C14   C23   1.385158 A    
C55   H37   1.110536 S    
O8    Cr1   1.933739 S    
C20   C21   1.383884 A    
C33   C37   1.402797 A    
Cr3   O13   1.999138 S    
C36   H16   1.075838 S    
N4    O34   1.300606 A    
C60   C64   1.403855 A    
O4    C2    1.269242 A    
C34   C38   1.499451 S    
O14   Cr4   2.072915 S    
C60   C61   1.405843 A    
C46   H23   1.111984 S    
C51   C55   1.485015 S    
C25   C65   1.459322 S    
C62   C63   1.522443 S    
C3    C32   1.454272 S    
C52   C56   1.406938 A    
C65   O16   1.311762 A    
O23   Cr5   1.936547 S    
C18   C19   1.382909 A    
C11   C18   1.407637 A    
O25   C70   1.298872 A    
C14   H6    1.076945 S    
C49   C68   1.438075 S    
C68   O22   1.282423 A    
C49   C53   1.417645 A    
C6    C56   1.441136 S    
C30   C31   1.522619 S    
C60   H31   1.082938 S    
C47   H24   1.107099 S    
C29   H12   1.071917 S    
C43   C48   1.392631 A    
C19   C24   1.429488 A    
O15   Cr4   1.942236 S    
C58   C59   1.370505 A    
C51   C56   1.390188 A    
C31   H15   1.090726 S    
N3    O32   1.301632 A    
C28   H11   1.082554 S    
C21   C22   1.399983 A    
C47   H25   1.111979 S    
C7    N3    1.437146 S    
O1    Cr1   2.050987 S    
C5    O11   1.256681 A    
N3    O31   1.300294 A    
C25   C26   1.393861 A    
O10   Cr2   1.957168 S    
C19   C23   1.505289 S    
Cr1   O13   2.010141 S    
O1    C3    1.295593 A    
C8    C9    1.397559 A    
C54   H28   1.111064 S    
O24   Cr6   2.073400 S    
O22   Cr5   2.076128 S    
C22   C23   1.410412 A    
C21   H9    1.074508 S    
C27   C31   1.479308 S    
C42   C43   1.350149 A    
O6    C3    1.277117 A    
C25   C29   1.408185 A    
C37   H17   1.075932 S    
C46   H22   1.111674 S    
C2    C24   1.477245 S    
O16   Cr5   2.053909 S    
C36   C37   1.394268 A    
C62   H33   1.111754 S    
C1    C40   1.473697 S    
C12   C13   1.396728 A    
C42   C46   1.486850 S    
C10   C16   1.407742 A    
C35   C40   1.402789 A    
C44   H21   1.083458 S    
C41   C45   1.435463 A    
O7    Cr1   2.072409 S    
O25   Cr6   1.966722 S    
C7    C17   1.392045 A    
O12   C6    1.285338 A    
O17   C66   1.298420 A    
C38   H18   1.109241 S    
C15   C20   1.386217 A    
C20   H8    1.082746 S    
O18   Cr6   2.088528 S    
C66   O18   1.240600 A    
C5    C48   1.435092 S    
C63   H34   1.109644 S    
C45   N2    1.441915 S    
Cr2   O13   1.977704 S    
C10   C13   1.548004 S    
C39   H20   1.104690 S    
C8    H4    1.076673 S    
C30   H14   1.091942 S    
C18   H38   1.082062 S    
C1    O3    1.281007 A    
C9    H5    1.075690 S    
C50   C51   1.342672 A    
N2    O30   1.299295 A    
C26   C27   1.375447 A    
O23   C69   1.260288 A    
C28   C32   1.399335 A    
O20   C70   1.307787 A    
Cr5   O26   1.999906 S    
C59   C63   1.501172 S    
C28   C29   1.414639 A    
O14   C67   1.304953 A    
O9    Cr2   2.077422 S    
C12   C24   1.404654 A    
O2    Cr1   1.953339 S    
C30   H13   1.109092 S    
C14   C15   1.410069 A    
C44   C45   1.410209 A    
O6    Cr3   1.939476 S    
N1    O27   1.300910 A    
O11   Cr3   2.060632 S    
C2    O5    1.288797 A    
O19   Cr6   1.955756 S    
O17   Cr5   1.959578 S    
C33   C34   1.398195 A    
C11   C13   1.456263 A    
O2    C1    1.276966 A    
C9    C10   1.419108 A    
C33   C67   1.460251 S    
O15   C65   1.304324 A    
O5    Cr3   2.084522 S    
N1    O28   1.302593 A    
C49   C50   1.376235 A    
C35   C39   1.488212 S    
C53   H27   1.077803 S    
O7    C6    1.275834 A    
O21   C68   1.277080 A    
C16   H7    1.047981 S    
C15   H3    1.074837 S    
C16   C17   1.395675 A    
C31   H36   1.079519 S    
C69   O24   1.274446 A    
C36   C40   1.396034 A    
C41   C69   1.447559 S    
C57   C70   1.454536 S    
C38   C39   1.495331 S    
O12   Cr3   1.961864 S    
C63   H35   1.111741 S    
C7    C8    1.395215 A    
C50   C54   1.488368 S    
C62   N4    1.470669 S    
O3    Cr2   2.076850 S    
C26   C30   1.486027 S    
C22   H10   1.063462 S    
C4    O9    1.257954 A    
O21   Cr4   1.951958 S    
C34   C35   1.403585 A    
C57   C58   1.382906 A    
N2    O29   1.298977 A    
O10   C5    1.280510 A    
Cr6   O26   1.974771 S    
C39   H19   1.102797 S    
C57   C61   1.412577 A    
C11   C66   1.464385 S    
C46   C47   1.510222 S    
N4    O33   1.301504 A    
C52   H26   1.083227 S    
C54   H29   1.110314 S    
O8    C4    1.288722 A    
