data_mof_unit_55539.cif
_audit_creation_date              2012-12-11T14:08:08-0500
_audit_creation_method            fapswitch 2.2
_symmetry_space_group_name_H-M    P1
_symmetry_Int_Tables_number       1
_space_group_crystal_system       triclinic
_cell_length_a                    10.94151
_cell_length_b                    11.014034
_cell_length_c                    18.790422
_cell_angle_alpha                 90.396889
_cell_angle_beta                  90.287742
_cell_angle_gamma                 60.293177
_cell_volume                      1966.77708672

loop_
_atom_site_label
_atom_site_type_symbol
_atom_type_description
_atom_site_fract_x
_atom_site_fract_y
_atom_site_fract_z
_atom_type_partial_charge
C1    C     C_R   0.241698 0.642516 0.610022 0.533560
C2    C     C_3   0.736502 0.508723 0.797312 -0.113152
C3    C     C_3   0.695770 0.663942 0.815795 0.067205
C4    C     C_3   0.667487 0.641083 0.679353 0.043523
C5    C     C_3   0.759860 0.708206 0.691152 -0.260799
C6    C     C_3   0.740218 0.494926 0.715955 -0.194561
C7    C     C_2   0.673763 0.136927 0.662815 -0.121838
C8    C     C_2   0.713337 0.114641 0.819745 0.003725
C9    C     C_2   0.810967 0.036105 0.768957 -0.172843
C10   C     C_2   0.801339 0.074359 0.692001 -0.027939
C11   C     C_2   0.192523 0.654943 0.683719 -0.130879
C12   C     C_R   0.652437 0.619505 0.602897 0.539796
C13   C     C_2   0.191262 0.661029 0.839753 -0.148734
C14   C     C_2   0.172573 0.569400 0.800064 -0.152037
C15   C     C_2   0.202298 0.547180 0.723227 -0.027430
C16   C     C_2   0.673486 0.683017 0.334121 -0.103465
C17   C     C_2   0.658675 0.678803 0.169147 0.023034
C18   C     C_2   0.768621 0.629852 0.215176 -0.140032
C19   C     C_2   0.765321 0.593015 0.287870 -0.173607
C20   C     C_2   0.634719 0.191468 0.320183 -0.101169
C21   C     C_2   0.638711 0.208790 0.161654 0.014425
C22   C     C_2   0.529183 0.229288 0.201701 -0.165022
C23   C     C_R   0.630142 0.221379 0.598700 0.530165
C24   C     C_2   0.522062 0.259450 0.277129 -0.163860
C25   C     C_2   0.123572 0.679867 0.344221 -0.113820
C26   C     C_2   0.112141 0.691649 0.190538 -0.110183
C27   C     C_2   0.042548 0.803525 0.233774 -0.155062
C28   C     C_2   0.075896 0.798549 0.308733 -0.175406
C29   C     C_R   0.725480 0.051666 0.889489 0.563561
C30   C     C_R   0.718758 0.683820 0.891031 0.531295
C31   C     C_R   0.118242 0.706556 0.907630 0.540428
C32   C     C_R   0.673682 0.114494 0.101162 0.572674
C33   C     C_R   0.695564 0.690981 0.096527 0.544281
C34   C     C_R   0.216472 0.650778 0.404145 0.552644
C35   C     C_R   0.085382 0.714128 0.115425 0.551883
C36   C     C_R   0.646147 0.627484 0.397415 0.551523
C37   C     C_R   0.615003 0.231692 0.394150 0.547930
C38   C     C_3   0.539692 0.759403 0.794134 -0.262343
C39   C     C_3   0.521174 0.734864 0.715135 -0.235813
C40   C     C_3   0.786446 0.709952 0.771452 -0.213649
Cr1   Cr    Cr6+3 0.393010 0.398050 0.501480 0.998361
Cr2   Cr    Cr6+3 0.398820 0.707980 0.501630 1.003627
Cr3   Cr    Cr6+3 0.708140 0.393940 0.496850 1.003216
Cr4   Cr    Cr6+3 0.937950 0.938450 0.008940 0.991992
Cr5   Cr    Cr6+3 0.626180 0.937030 0.994750 0.999189
Cr6   Cr    Cr6+3 0.937790 0.625760 0.001410 0.985353
H1    H     H_    0.507956 0.871473 0.802235 0.143242
H2    H     H_    0.899372 0.638998 0.782227 0.130725
H3    H     H_    0.242592 0.715861 0.818747 0.090618
H4    H     H_    0.161082 0.754456 0.709227 0.088437
H5    H     H_    0.451502 0.203176 0.181931 0.145090
H6    H     H_    0.418703 0.332699 0.298227 0.154531
H7    H     H_    0.185080 0.587527 0.209768 0.079639
H8    H     H_    0.761977 0.816916 0.787330 0.113229
H9    H     H_    0.686823 0.435641 0.699578 0.119256
O1    O     O_R   0.507110 0.256280 0.580300 -0.541557
O2    O     O_R   0.524640 0.695370 0.425100 -0.496097
O3    O     O_R   0.735890 0.504390 0.415980 -0.518263
O4    O     O_R   0.690560 0.277820 0.422350 -0.502046
O5    O     O_3   0.499990 0.499990 0.499980 -0.244936
O6    O     O_R   0.089190 0.825870 0.932320 -0.522153
O7    O     O_R   0.819070 0.053960 0.931440 -0.512477
O8    O     O_R   0.607070 0.076440 0.916460 -0.522743
O9    O     O_R   0.647110 0.806550 0.917690 -0.518010
O10   O     O_R   0.837080 0.593860 0.915300 -0.546057
O11   O     O_R   0.064770 0.636080 0.932550 -0.504754
O12   O     O_R   0.280830 0.527190 0.577940 -0.510968
O13   O     O_R   0.068250 0.829200 0.092940 -0.515855
O14   O     O_R   0.799650 0.057040 0.080330 -0.507820
O15   O     O_R   0.586130 0.079760 0.077080 -0.522831
O16   O     O_R   0.627700 0.809630 0.066580 -0.497740
O17   O     O_R   0.816140 0.597180 0.075920 -0.537292
O18   O     O_R   0.045360 0.639170 0.081440 -0.500281
O19   O     O_3   0.833980 0.833750 0.001700 -0.257069
O20   O     O_R   0.261360 0.738990 0.584270 -0.532834
O21   O     O_R   0.532590 0.694780 0.574370 -0.509704
O22   O     O_R   0.744470 0.503750 0.577000 -0.531678
O23   O     O_R   0.698520 0.277230 0.571620 -0.498711
O24   O     O_R   0.498530 0.256920 0.419280 -0.513860
O25   O     O_R   0.272880 0.527780 0.428680 -0.506741
O26   O     O_R   0.252780 0.739630 0.423250 -0.511449
H10   H     H_    0.851451 0.434551 0.697619 0.148018
H11   H     H_    0.862044 0.648214 0.662755 0.120981
H12   H     H_    0.901726 0.937599 0.784549 0.114888
C41   C     C_3   0.929488 0.009479 0.643844 -0.240046
C42   C     C_3   0.041916 0.046279 0.664483 -0.438584
H13   H     H_    0.999159 0.160853 0.661045 0.150199
H14   H     H_    0.082570 0.007123 0.718616 0.141271
H15   H     H_    0.131226 0.996031 0.626766 0.163553
H16   H     H_    0.973220 0.895254 0.644966 0.136548
H17   H     H_    0.901684 0.038287 0.587215 0.163395
C43   C     C_3   0.587197 0.260733 0.807557 -0.260844
C44   C     C_3   0.541894 0.355574 0.873783 -0.408188
H18   H     H_    0.634615 0.347822 0.902277 0.153304
H19   H     H_    0.472050 0.465526 0.857676 0.118263
H20   H     H_    0.479974 0.329289 0.910821 0.184800
H21   H     H_    0.610639 0.315302 0.765319 0.132837
H22   H     H_    0.495864 0.250331 0.790587 0.143025
H23   H     H_    0.589345 0.133005 0.690881 0.095225
H24   H     H_    0.124794 0.513960 0.824050 0.156337
C45   C     C_3   0.242069 0.404647 0.690891 -0.238449
C46   C     C_3   0.215686 0.305649 0.736070 -0.492715
H25   H     H_    0.258383 0.203183 0.708391 0.136267
H26   H     H_    0.101012 0.350153 0.741196 0.141759
H27   H     H_    0.266683 0.287193 0.789084 0.151164
H28   H     H_    0.180148 0.419137 0.641511 0.175200
H29   H     H_    0.355520 0.351564 0.679190 0.189360
H30   H     H_    0.469336 0.737072 0.827407 0.100994
H31   H     H_    0.874612 0.596415 0.196461 0.150683
H32   H     H_    0.836580 0.484469 0.301524 0.151461
C47   C     C_3   0.504694 0.737522 0.189041 -0.269684
C48   C     C_3   0.470075 0.627850 0.216575 -0.431936
H33   H     H_    0.475871 0.557178 0.172833 0.146217
H34   H     H_    0.540574 0.565536 0.260430 0.168988
H35   H     H_    0.361226 0.681518 0.237591 0.157649
H36   H     H_    0.471977 0.823393 0.228333 0.142948
H37   H     H_    0.437402 0.786018 0.141483 0.151650
H38   H     H_    0.606475 0.792459 0.321165 0.109376
C49   C     C_3   0.740904 0.259718 0.183086 -0.279738
C50   C     C_3   0.768482 0.335059 0.122513 -0.413270
H39   H     H_    0.827241 0.262966 0.078199 0.168375
H40   H     H_    0.668457 0.421319 0.101331 0.146966
H41   H     H_    0.834543 0.377992 0.142997 0.156920
H42   H     H_    0.700774 0.333253 0.228775 0.153843
H43   H     H_    0.842801 0.168926 0.199490 0.138151
H44   H     H_    0.738531 0.116851 0.300427 0.088076
H45   H     H_    0.970845 0.906178 0.212235 0.152175
H46   H     H_    0.456121 0.683114 0.710667 0.130062
H47   H     H_    0.079163 0.887899 0.331456 0.150888
H48   H     H_    0.111711 0.594271 0.322798 0.105276
H49   H     H_    0.463284 0.837832 0.688030 0.132520
H50   H     H_    0.706108 0.816716 0.670024 0.120006
C51   C     C_3   0.871331 0.390467 0.834291 -0.278441
C52   C     C_3   0.927067 0.242583 0.806704 -0.474083
H51   H     H_    0.926706 0.173902 0.849483 0.180829
H52   H     H_    0.862975 0.241484 0.762039 0.186351
H53   H     H_    0.037783 0.198006 0.789459 0.130852
H54   H     H_    0.957942 0.414781 0.831733 0.173972
H55   H     H_    0.846241 0.385947 0.891161 0.176299
H56   H     H_    0.648737 0.495239 0.815832 0.127470

loop_
_geom_bond_atom_site_label_1
_geom_bond_atom_site_label_2
_ccdc_geom_bond_type
C24   H6    S    
C7    C10   D    
C29   O8    A    
C10   C41   S    
C45   H29   S    
C45   C46   S    
C6    H10   S    
C30   O9    A    
Cr5   O16   S    
C31   O6    A    
C47   C48   S    
C1    C11   S    
C18   H31   S    
C6    H9    S    
C52   H53   S    
C48   H34   S    
C41   H17   S    
C43   H22   S    
C23   O1    A    
Cr1   O12   S    
C41   C42   S    
C25   C28   D    
C37   O24   A    
C26   C27   D    
C44   H18   S    
C7    H23   S    
C8    C29   S    
C28   H47   S    
Cr6   O11   S    
C36   O3    A    
C38   C39   S    
C5    H11   S    
C42   H14   S    
C46   H27   S    
C18   C19   S    
Cr3   O3    S    
C34   O25   A    
C27   H45   S    
C5    H50   S    
C20   C24   D    
C3    C38   S    
C8    C9    D    
C47   H36   S    
C8    C43   S    
C34   O26   A    
C4    C12   S    
C9    C10   S    
Cr6   O17   S    
C33   O17   A    
C50   H41   S    
Cr3   O4    S    
C25   C34   S    
C51   H54   S    
C44   H19   S    
C21   C22   D    
C2    C6    S    
Cr2   O26   S    
C17   C33   S    
Cr1   O25   S    
C25   H48   S    
C17   C47   S    
Cr2   O2    S    
C48   H33   S    
C50   H40   S    
C43   H21   S    
C21   C32   S    
C2    C51   S    
C1    O20   A    
Cr6   O10   S    
C4    C6    S    
C36   O2    A    
Cr2   O5    S    
C42   H13   S    
C32   O15   A    
Cr4   O7    S    
C49   H42   S    
Cr5   O8    S    
Cr5   O19   S    
Cr3   O23   S    
C3    C30   S    
C46   H26   S    
Cr1   O1    S    
C20   H44   S    
C16   H38   S    
C4    C39   S    
C49   C50   S    
C12   O22   A    
C17   C18   D    
Cr2   O20   S    
Cr4   O14   S    
C15   C45   S    
Cr4   O19   S    
C38   H1    S    
C37   O4    A    
Cr3   O5    S    
C13   H3    S    
C49   H43   S    
C3    C40   S    
C51   H55   S    
C44   H20   S    
C11   C15   D    
C12   O21   A    
C51   C52   S    
C22   C24   S    
Cr4   O13   S    
C26   H7    S    
Cr6   O19   S    
C50   H39   S    
C19   H32   S    
C45   H28   S    
C40   H2    S    
C29   O7    A    
C35   O18   A    
C39   H46   S    
Cr5   O9    S    
Cr5   O15   S    
C31   O11   A    
Cr2   O21   S    
C13   C31   S    
Cr1   O5    S    
C4    C5    S    
C42   H15   S    
Cr1   O24   S    
C52   H52   S    
C41   H16   S    
C14   H24   S    
C32   O14   A    
Cr4   O6    S    
Cr3   O22   S    
C52   H51   S    
C40   H8    S    
C47   H37   S    
C2    H56   S    
C2    C3    S    
C21   C49   S    
C11   H4    S    
C16   C36   S    
C20   C37   S    
C39   H49   S    
C35   O13   A    
C16   C19   D    
C7    C23   S    
C43   C44   S    
C1    O12   A    
Cr6   O18   S    
C23   O23   A    
C38   H30   S    
C46   H25   S    
C30   O10   A    
C33   O16   A    
C9    H12   S    
C26   C35   S    
C5    C40   S    
C27   C28   S    
C14   C15   S    
C13   C14   D    
C48   H35   S    
C22   H5    S    
