data_mof_unit_58400.cif
_audit_creation_date              2013-03-05T16:02:22-0500
_audit_creation_method            fapswitch 2.2
_symmetry_space_group_name_H-M    P1
_symmetry_Int_Tables_number       1
_space_group_crystal_system       triclinic
_cell_length_a                    14.994845
_cell_length_b                    14.195881
_cell_length_c                    10.974016
_cell_angle_alpha                 89.747388
_cell_angle_beta                  89.05574
_cell_angle_gamma                 89.157171
_cell_volume                      2335.39409522

loop_
_atom_site_label
_atom_site_type_symbol
_atom_site_description
_atom_site_fract_x
_atom_site_fract_y
_atom_site_fract_z
_atom_type_partial_charge
O1    O     O_R   0.367860 0.580280 0.500020 -0.548225
O2    O     O_R   0.367860 0.419720 0.500020 -0.581793
C1    C     C_R   0.326067 0.500774 0.498081 1.014671
O3    O     O_R   0.500000 0.580270 0.314790 -0.551912
O4    O     O_R   0.500000 0.419730 0.314790 -0.567646
C2    C     C_R   0.501100 0.500267 0.257800 1.030341
Zn1   Zn    Zn3+2 0.500020 0.607200 0.499990 1.177473
Zn2   Zn    Zn3+2 0.500020 0.392800 0.499990 1.147545
O5    O     O_R   0.632160 0.580270 0.499960 -0.540909
O6    O     O_R   0.632160 0.419730 0.499960 -0.584315
O7    O     O_R   0.500030 0.580270 0.685200 -0.559641
O8    O     O_R   0.500030 0.419730 0.685200 -0.573977
C3    C     C_R   0.672803 0.499056 0.503947 0.969026
C4    C     C_R   0.504392 0.500275 0.742228 0.966954
C5    C     C_3   0.469376 0.605383 0.071870 0.278437
C6    C     C_3   0.434914 0.422532 0.072511 0.277830
C7    C     C_3   0.464445 0.597938 0.929308 -0.009697
C8    C     C_3   0.448642 0.417120 0.929712 -0.007845
H1    H     H_    0.394741 0.590822 0.902604 0.220955
H2    H     H_    0.384194 0.426485 0.884547 0.214765
H3    H     H_    0.636424 0.560243 0.902509 0.282307
H4    H     H_    0.642597 0.442090 0.874190 0.254402
C9    C     C_3   0.604911 0.479845 0.069286 0.391700
C10   C     C_3   0.503426 0.501347 0.121379 -0.491474
C11   C     C_3   0.506606 0.501963 0.879267 -0.330830
C12   C     C_3   0.602749 0.494386 0.926788 -0.389212
C13   C     C_R   0.814671 0.453635 0.413892 -0.055456
C14   C     C_R   0.768338 0.494550 0.510799 -0.140984
C15   C     C_R   0.811923 0.522820 0.616012 0.362428
C16   C     C_R   0.903663 0.502066 0.627373 -0.081105
C17   C     C_R   0.951862 0.474783 0.521031 -0.020476
C18   C     C_R   0.907025 0.450962 0.413057 -0.034755
C19   C     C_R   0.949672 0.511204 0.738149 0.373836
C20   C     C_R   0.043209 0.509159 0.738645 0.373351
C21   C     C_R   0.091797 0.491377 0.628990 -0.109777
C22   C     C_R   0.044890 0.476256 0.520232 -0.078519
C23   C     C_R   0.090989 0.470959 0.407714 -0.118049
C24   C     C_R   0.047367 0.441439 0.302109 0.393182
C25   C     C_R   0.955372 0.427680 0.306072 0.349000
C26   C     C_R   0.185906 0.488961 0.621451 0.307985
C27   C     C_R   0.228506 0.501597 0.507617 -0.255095
C28   C     C_R   0.177282 0.504999 0.402476 0.425139
H5    H     H_    0.778014 0.430416 0.336008 0.254362
C29   C     C_R   0.563106 0.797761 0.432700 0.490236
C30   C     C_R   0.568723 0.198366 0.447051 0.494074
N1    N     N_R   0.500070 0.750030 0.500050 -0.185694
N2    N     N_R   0.500070 0.249970 0.500050 -0.184994
C31   C     C_R   0.431981 0.799088 0.557036 0.483859
C32   C     C_R   0.429285 0.202687 0.551366 0.479511
C33   C     C_R   0.423857 0.899571 0.545909 -0.161329
C34   C     C_R   0.422257 0.102071 0.542652 -0.158114
C35   C     C_R   0.492647 0.949376 0.485160 -0.012030
C36   C     C_R   0.491994 0.050349 0.484856 -0.016268
C37   C     C_R   0.561769 0.898418 0.423838 -0.163126
C38   C     C_R   0.562051 0.099751 0.428029 -0.160894
C39   C     C_R   0.348264 0.951926 0.589632 0.245558
C40   C     C_R   0.347083 0.051473 0.586649 0.253729
C41   C     C_R   0.624478 0.049140 0.354476 0.239327
C42   C     C_R   0.624941 0.950360 0.352720 0.237228
N3    N     N_R   0.530841 0.682908 0.106598 0.271559
O9    O     O_R   0.500325 0.753443 0.171178 -0.257853
O10   O     O_R   0.606882 0.695956 0.051086 -0.228081
N4    N     N_R   0.445447 0.326447 0.129502 0.259061
O11   O     O_R   0.378606 0.288101 0.187588 -0.245460
O12   O     O_R   0.514053 0.271715 0.109313 -0.233986
Cl1   Cl    Cl    0.095151 0.544891 0.874637 -0.234799
N5    N     N_R   0.238390 0.473443 0.726678 0.231082
O13   O     O_R   0.227019 0.398400 0.793316 -0.231156
O14   O     O_R   0.294511 0.536910 0.758841 -0.382304
Cl2   Cl    Cl    0.194802 0.596277 0.296751 -0.295799
Cl3   Cl    Cl    0.108365 0.414104 0.167430 -0.243306
Cl4   Cl    Cl    0.901403 0.387845 0.173801 -0.301335
Cl5   Cl    Cl    0.647210 0.731659 0.359159 -0.343623
Cl6   Cl    Cl    0.675874 0.246456 0.435317 -0.423767
Cl7   Cl    Cl    0.359483 0.734977 0.652479 -0.369213
Cl8   Cl    Cl    0.356824 0.266580 0.648273 -0.395132
N6    N     N_R   0.266510 0.905803 0.620440 0.255170
O15   O     O_R   0.236636 0.905341 0.732430 -0.191576
O16   O     O_R   0.219424 0.868512 0.535098 -0.246584
N7    N     N_R   0.263834 0.099049 0.611962 0.256080
O17   O     O_R   0.229651 0.099101 0.721707 -0.194495
O18   O     O_R   0.220453 0.139569 0.523876 -0.268664
N8    N     N_R   0.681276 0.097085 0.268459 0.262062
O19   O     O_R   0.646437 0.144377 0.178976 -0.194360
O20   O     O_R   0.767617 0.088582 0.274552 -0.204064
N9    N     N_R   0.686005 0.905665 0.268755 0.264072
O21   O     O_R   0.662524 0.892963 0.156495 -0.192568
O22   O     O_R   0.769135 0.893376 0.298091 -0.209955
N10   N     N_R   0.378569 0.633814 0.120180 0.250379
O23   O     O_R   0.315979 0.664071 0.048170 -0.200286
O24   O     O_R   0.366831 0.653371 0.234860 -0.256325
N11   N     N_R   0.342614 0.453589 0.104389 0.226339
O25   O     O_R   0.318649 0.455822 0.218631 -0.335848
O26   O     O_R   0.281372 0.468758 0.023725 -0.214157
N12   N     N_R   0.492951 0.687569 0.871541 0.282831
O27   O     O_R   0.571113 0.697616 0.819963 -0.266130
O28   O     O_R   0.444845 0.763167 0.891611 -0.222115
N13   N     N_R   0.477868 0.322071 0.889488 0.285069
O29   O     O_R   0.558614 0.303124 0.851103 -0.283886
O30   O     O_R   0.421566 0.253257 0.897363 -0.211414
N14   N     N_R   0.671813 0.542848 0.121300 0.248226
O31   O     O_R   0.675409 0.553046 0.238431 -0.364634
O32   O     O_R   0.744021 0.561674 0.058959 -0.197051
N15   N     N_R   0.638598 0.384506 0.099316 0.267219
O33   O     O_R   0.648376 0.361795 0.213125 -0.291735
O34   O     O_R   0.684550 0.335088 0.020026 -0.206517
Cl9   Cl    Cl    0.753921 0.598489 0.718300 -0.449492
Cl10  Cl    Cl    0.893173 0.510435 0.880779 -0.286548

loop_
_geom_bond_atom_site_label_1
_geom_bond_atom_site_label_2
_geom_bond_distance
_ccdc_geom_bond_type
H3    C12   1.098756 S    
N4    O12   1.296755 A    
C26   C27   1.405652 A    
N14   O31   1.296259 A    
C5    N3    1.500318 S    
N12   O27   1.302577 A    
C40   N7    1.434213 S    
C20   Cl1   1.774186 S    
N15   O34   1.302104 A    
N2    C32   1.375567 A    
N6    O15   1.301142 A    
Zn1   O7    2.066483 S    
C19   Cl10  1.767549 S    
C23   C24   1.408498 A    
C14   C15   1.399281 A    
O4    C2    1.300934 A    
Zn2   O6    2.023469 S    
O7    C4    1.295536 A    
N9    O22   1.301612 A    
C18   C25   1.407664 A    
C28   Cl2   1.755238 S    
C39   C40   1.413244 A    
N3    O10   1.299183 A    
C20   C21   1.418092 A    
C27   C28   1.396871 A    
C9    C12   1.577236 S    
C23   C28   1.388100 A    
O5    C3    1.297020 A    
C1    C27   1.464797 S    
N8    O19   1.299502 A    
C35   C37   1.417630 A    
C32   C34   1.437481 A    
C26   N5    1.422671 S    
C33   C35   1.415265 A    
C25   Cl4   1.772301 S    
C3    C14   1.436207 S    
C34   C40   1.422148 A    
C6    N4    1.505333 S    
N10   O24   1.298552 A    
C30   N2    1.377142 A    
C6    C10   1.628517 S    
C31   Cl7   1.757934 S    
C8    C11   1.587943 S    
O3    Zn1   2.069693 S    
N15   O33   1.298611 A    
C29   N1    1.374848 A    
Zn1   O5    2.012426 S    
C37   C42   1.428706 A    
C36   C38   1.407294 A    
C24   C25   1.396004 A    
N1    C31   1.371264 A    
N5    O13   1.301187 A    
Zn1   N1    2.027612 S    
N6    O16   1.301167 A    
N7    O18   1.301260 A    
N9    O21   1.300890 A    
C41   C42   1.402387 A    
C33   C39   1.424037 A    
C39   N6    1.433117 S    
N3    O9    1.302441 A    
C34   C36   1.412289 A    
C21   C22   1.414080 A    
C15   C16   1.409993 A    
C29   C37   1.431670 A    
C5    N10   1.503303 S    
C9    N15   1.475433 S    
C16   C17   1.414984 A    
Zn2   O8    2.069797 S    
C2    C10   1.496936 S    
N11   O26   1.300992 A    
C19   C20   1.402540 A    
C32   Cl8   1.753745 S    
C7    N12   1.484432 S    
C6    C8    1.579237 S    
C5    C10   1.648326 S    
N8    O20   1.301296 A    
O8    C4    1.308887 A    
C6    N11   1.483144 S    
N13   O30   1.302167 A    
O3    C2    1.298701 A    
C35   C36   1.433270 A    
N5    O14   1.295910 A    
C5    C7    1.571539 S    
C24   Cl3   1.766813 S    
C22   C23   1.406879 A    
C16   C19   1.415018 A    
C13   C18   1.384670 A    
O1    Zn1   2.023737 S    
C17   C18   1.416636 A    
O2    Zn2   2.012698 S    
N7    O17   1.301082 A    
O6    C3    1.289554 A    
O4    Zn2   2.066378 S    
N12   O28   1.301770 A    
C7    C11   1.589753 S    
C21   C26   1.412128 A    
C11   C12   1.543249 S    
C42   N9    1.431881 S    
C41   N8    1.436852 S    
C9    N14   1.477123 S    
C31   C33   1.434680 A    
N11   O25   1.298868 A    
C7    H1    1.096342 S    
O2    C1    1.302367 A    
C8    H2    1.099393 S    
C4    C11   1.505085 S    
C29   Cl5   1.749469 S    
Zn2   N2    2.027585 S    
C9    C10   1.641622 S    
N4    O11   1.303504 A    
C13   H5    1.079174 S    
C30   C38   1.421543 A    
N14   O32   1.301642 A    
N13   O29   1.300132 A    
H4    C12   1.104861 S    
C38   C41   1.415772 A    
C13   C14   1.385724 A    
C17   C22   1.395290 A    
C30   Cl6   1.757504 S    
C8    N13   1.479535 S    
O1    C1    1.299425 A    
N10   O23   1.303606 A    
C15   Cl9   1.766734 S    
