data_mof_unit_17556.cif
_audit_creation_date              2013-03-05T15:52:55-0500
_audit_creation_method            fapswitch 2.2
_symmetry_space_group_name_H-M    P1
_symmetry_Int_Tables_number       1
_space_group_crystal_system       triclinic
_cell_length_a                    14.896373
_cell_length_b                    10.641104
_cell_length_c                    10.044669
_cell_angle_alpha                 88.132573
_cell_angle_beta                  88.185624
_cell_angle_gamma                 95.522017
_cell_volume                      1583.0192016

loop_
_atom_site_label
_atom_site_type_symbol
_atom_site_description
_atom_site_fract_x
_atom_site_fract_y
_atom_site_fract_z
_atom_type_partial_charge
O1    O     O_R   0.500000 0.316780 0.614690 -0.569128
O2    O     O_R   0.499990 0.316750 0.385360 -0.636564
C1    C     C_R   0.513994 0.264022 0.501413 0.992992
O3    O     O_R   0.367850 0.499980 0.614680 -0.569129
O4    O     O_R   0.367840 0.499960 0.385350 -0.553306
C2    C     C_R   0.326021 0.491677 0.502146 0.967621
Zn1   Zn    Zn3+2 0.500010 0.500020 0.653130 1.017141
Zn2   Zn    Zn3+2 0.499990 0.499980 0.346870 1.038389
O5    O     O_R   0.500010 0.683250 0.614640 -0.643128
O6    O     O_R   0.500000 0.683220 0.385310 -0.557382
O7    O     O_R   0.632160 0.500040 0.614650 -0.611092
O8    O     O_R   0.632150 0.500020 0.385320 -0.642938
C3    C     C_R   0.496916 0.740257 0.498898 0.817317
C4    C     C_R   0.672679 0.506762 0.497552 0.836434
C5    C     C_R   0.822040 0.622324 0.501090 -0.290300
C6    C     C_R   0.767937 0.508863 0.489669 -0.021577
C7    C     C_R   0.803746 0.397706 0.458122 -0.242018
C8    C     C_R   0.896135 0.396217 0.446611 0.046895
C9    C     C_R   0.952614 0.508641 0.462713 0.083887
C10   C     C_R   0.915303 0.623318 0.486013 0.138486
C11   C     C_R   0.932542 0.283324 0.422358 -0.316686
C12   C     C_R   0.025085 0.278007 0.425052 0.513923
C13   C     C_R   0.081782 0.386990 0.456778 -0.120206
C14   C     C_R   0.045956 0.504677 0.463550 -0.040730
C15   C     C_R   0.102400 0.616460 0.482352 0.149119
C16   C     C_R   0.065337 0.732085 0.493556 -0.161775
C17   C     C_R   0.971893 0.735241 0.497278 -0.224831
C18   C     C_R   0.170395 0.378865 0.495695 0.331214
C19   C     C_R   0.228497 0.491899 0.503398 -0.132529
C20   C     C_R   0.194610 0.609663 0.493029 -0.251999
H1    H     H_    0.791514 0.708627 0.521031 0.129852
H2    H     H_    0.759387 0.311995 0.445797 0.124054
H3    H     H_    0.889148 0.198053 0.404992 0.154411
H4    H     H_    0.239756 0.695444 0.499620 0.155431
H5    H     H_    0.108301 0.818824 0.505609 0.186113
H6    H     H_    0.943923 0.824295 0.511952 0.161519
H7    H     H_    0.556998 0.127271 0.290022 0.166606
C21   C     C_R   0.564480 0.105339 0.747995 0.438371
C22   C     C_R   0.541508 0.031706 0.865448 -0.353679
H8    H     H_    0.566371 0.064538 0.959564 0.190776
C23   C     C_R   0.478859 0.924390 0.862243 0.270941
C24   C     C_R   0.452951 0.880157 0.738706 -0.213963
H9    H     H_    0.404319 0.798087 0.735228 0.214866
C25   C     C_R   0.492158 0.938707 0.620425 -0.001298
C26   C     C_R   0.530862 0.062648 0.625324 0.012066
C27   C     C_R   0.536362 0.134649 0.504792 -0.097597
C28   C     C_R   0.543735 0.074425 0.383763 -0.214982
H10   H     H_    0.547150 0.897766 0.292951 0.238315
C29   C     C_R   0.531853 0.944570 0.383164 -0.152026
C30   C     C_R   0.499988 0.876278 0.498925 -0.072980
C31   C     C_R   0.414261 0.290353 0.147851 0.375297
C32   C     C_R   0.402191 0.175959 0.085463 -0.285975
H11   H     H_    0.372367 0.092492 0.140885 0.246783
C33   C     C_R   0.394633 0.178309 0.949897 -0.276973
H12   H     H_    0.359036 0.097088 0.906124 0.219055
C34   C     C_R   0.411659 0.291667 0.876537 0.381561
C35   C     C_R   0.458165 0.397621 0.934119 0.032134
C36   C     C_R   0.458223 0.397675 0.077305 -0.067539
N1    N     N_R   0.499150 0.498800 0.142780 -0.149469
C37   C     C_R   0.543490 0.595999 0.066117 0.581597
H13   H     H_    0.575240 0.676216 0.865654 0.144865
C38   C     C_R   0.541925 0.596484 0.923252 -0.184764
N2    N     N_R   0.499120 0.498720 0.857170 -0.127934
O9    O     O_3   0.621043 0.216153 0.752666 -0.609187
C39   C     C_3   0.710293 0.189546 0.779703 0.098817
H14   H     H_    0.754967 0.223074 0.692560 0.155600
H15   H     H_    0.718908 0.086982 0.795447 0.077331
C40   C     C_3   0.742970 0.258606 0.903183 -0.361385
H16   H     H_    0.696565 0.229275 0.989815 0.202623
H17   H     H_    0.811091 0.231466 0.926642 0.184956
C41   C     C_3   0.748513 0.401917 0.882081 -0.768461
H18   H     H_    0.794175 0.433193 0.795231 0.259399
H19   H     H_    0.775327 0.447964 0.972174 0.213336
H20   H     H_    0.680525 0.432221 0.865200 0.283156
N3    N     N_R   0.440729 0.861566 0.982746 0.222058
O10   O     O_R   0.462494 0.904416 0.097918 -0.425187
O11   O     O_R   0.379348 0.766178 0.978528 -0.374697
O12   O     O_3   0.585717 0.697581 0.129137 -0.598996
C42   C     C_3   0.680087 0.697538 0.111318 0.048960
H21   H     H_    0.701459 0.725011 0.006307 0.123016
H22   H     H_    0.702241 0.602712 0.137201 0.141909
C43   C     C_3   0.726179 0.793702 0.203095 -0.304642
H23   H     H_    0.705482 0.889092 0.178165 0.212592
H24   H     H_    0.704420 0.768061 0.308172 0.218737
C44   C     C_3   0.828735 0.798002 0.189359 -0.962564
H25   H     H_    0.851082 0.703012 0.210836 0.280454
H26   H     H_    0.859680 0.864695 0.261450 0.258216
H27   H     H_    0.852346 0.830818 0.086935 0.266170
N4    N     N_R   0.347570 0.303975 0.248543 0.229043
O13   O     O_R   0.278407 0.363077 0.216059 -0.413463
O14   O     O_R   0.337014 0.218565 0.344335 -0.376869
N5    N     N_R   0.349872 0.307839 0.775520 0.232335
O15   O     O_R   0.282772 0.372971 0.805056 -0.338615
O16   O     O_R   0.338494 0.219864 0.689183 -0.358720
O17   O     O_3   0.058742 0.164463 0.399098 -0.608979
C45   C     C_3   0.086387 0.162668 0.262891 0.170659
H28   H     H_    0.154744 0.129178 0.257835 0.226562
H29   H     H_    0.092115 0.257050 0.209246 0.147637
C46   C     C_3   0.021757 0.069665 0.190742 -0.462392
H30   H     H_    0.019412 0.974779 0.241168 0.249452
H31   H     H_    0.952806 0.101267 0.195259 0.218732
C47   C     C_3   0.051703 0.059953 0.045026 -0.818281
H32   H     H_    0.052763 0.153327 0.991884 0.285426
H33   H     H_    0.003695 0.991412 0.995834 0.256409
H34   H     H_    0.120097 0.026728 0.037897 0.280412
N6    N     N_R   0.186840 0.267805 0.572129 0.270659
O18   O     O_R   0.144607 0.248293 0.687472 -0.334836
O19   O     O_R   0.212413 0.170021 0.512934 -0.270915

loop_
_geom_bond_atom_site_label_1
_geom_bond_atom_site_label_2
_geom_bond_distance
_ccdc_geom_bond_type
C8    C11   1.390215 A    
C23   C24   1.394186 A    
O17   C45   1.417515 S    
C42   C43   1.527985 S    
C28   C29   1.376328 A    
C44   H25   1.110925 S    
C32   H11   1.082742 S    
Zn1   O7    1.994076 S    
C37   O12   1.379781 S    
C16   C17   1.394967 A    
C19   C20   1.397346 A    
C18   C19   1.418367 A    
Zn2   N1    2.050891 S    
C21   C22   1.409067 A    
O7    C4    1.301597 A    
C11   H3    1.084520 S    
N6    O18   1.301631 A    
C5    C6    1.395708 A    
C45   C46   1.529396 S    
C34   C35   1.415342 A    
C47   H34   1.111065 S    
C37   C38   1.435805 A    
C8    C9    1.411632 A    
C12   O17   1.381299 S    
O5    C3    1.297897 A    
C21   C26   1.416770 A    
C33   H12   1.082963 S    
C9    C10   1.411989 A    
C18   N6    1.433389 S    
C6    C7    1.385346 A    
C39   H15   1.117863 S    
C45   H29   1.118761 S    
C13   C14   1.410540 A    
N4    O14   1.297112 A    
N1    C37   1.372381 A    
C11   C12   1.386231 A    
H13   C38   1.081504 S    
C24   C25   1.406642 A    
O3    Zn1   2.018156 S    
C32   C33   1.369529 A    
C35   N2    1.384415 A    
C21   O9    1.384738 S    
C44   H26   1.110035 S    
C5    C10   1.391729 A    
C33   C34   1.390576 A    
C20   H4    1.085581 S    
C31   C32   1.386195 A    
C14   C15   1.410575 A    
O3    C2    1.309314 A    
C22   H8    1.082467 S    
C42   H22   1.116741 S    
O12   C42   1.411522 S    
C40   H16   1.111384 S    
C36   N1    1.381098 A    
C26   C27   1.407375 A    
C3    C30   1.443736 S    
O1    C1    1.304767 A    
N3    O10   1.296553 A    
C38   N2    1.368789 A    
C23   N3    1.437106 S    
C46   H30   1.111761 S    
Zn2   O8    2.018157 S    
C39   C40   1.531060 S    
C45   H28   1.110951 S    
C2    C19   1.452650 S    
N5    O16   1.299564 A    
C7    C8    1.379109 A    
C31   C36   1.417439 A    
C13   C18   1.398270 A    
C47   H33   1.110417 S    
N3    O11   1.301834 A    
Zn1   N2    2.048724 S    
Zn2   O6    2.000030 S    
H10   C29   1.076699 S    
C46   H31   1.111152 S    
O8    C4    1.296365 A    
C43   H23   1.112046 S    
C43   H24   1.111787 S    
C4    C6    1.416685 S    
O4    Zn2   1.994076 S    
H7    C28   1.083604 S    
C24   H9    1.081916 S    
C25   C26   1.390654 A    
C41   H19   1.110266 S    
C44   H27   1.110927 S    
C25   C30   1.415309 A    
C15   C20   1.389769 A    
Zn1   O5    1.975333 S    
C27   C28   1.398758 A    
O1    Zn1   2.000031 S    
O2    Zn2   1.975333 S    
O6    C3    1.311275 A    
C41   H20   1.108435 S    
C5    H1    1.084836 S    
C10   C17   1.401237 A    
C17   H6    1.083752 S    
C43   C44   1.525727 S    
C1    C27   1.446841 S    
O9    C39   1.418379 S    
O2    C1    1.308639 A    
C15   C16   1.402550 A    
C41   H18   1.111041 S    
C31   N4    1.415834 S    
C35   C36   1.438306 A    
O4    C2    1.307128 A    
N6    O19   1.297550 A    
C40   C41   1.526733 S    
N5    O15   1.302088 A    
C9    C14   1.395432 A    
C39   H14   1.110591 S    
C47   H32   1.110994 S    
C42   H21   1.113618 S    
C16   H5    1.083826 S    
C34   N5    1.408751 S    
C46   C47   1.526237 S    
C22   C23   1.405436 A    
C40   H17   1.111652 S    
C29   C30   1.396087 A    
C7    H2    1.086452 S    
C12   C13   1.418590 A    
N4    O13   1.302335 A    
