data_mof_unit_31282.cif
_audit_creation_date              2013-03-05T15:40:58-0500
_audit_creation_method            fapswitch 2.2
_symmetry_space_group_name_H-M    P1
_symmetry_Int_Tables_number       1
_space_group_crystal_system       triclinic
_cell_length_a                    7.848757
_cell_length_b                    8.532957
_cell_length_c                    13.775295
_cell_angle_alpha                 93.320844
_cell_angle_beta                  93.060362
_cell_angle_gamma                 94.353675
_cell_volume                      916.818783805

loop_
_atom_site_label
_atom_site_type_symbol
_atom_site_description
_atom_site_fract_x
_atom_site_fract_y
_atom_site_fract_z
_atom_type_partial_charge
O1    O     O_R   0.891570 0.738930 0.506190 -0.583009
O2    O     O_R   0.108430 0.261070 0.493810 -0.578342
O3    O     O_R   0.174650 0.711050 0.490030 -0.582371
O4    O     O_R   0.825350 0.288950 0.509970 -0.568079
C1    C     C_R   0.048000 0.794804 0.507612 0.877632
C2    C     C_R   0.958713 0.207003 0.513410 0.859461
O5    O     O_R   0.909850 0.521900 0.644940 -0.608052
O6    O     O_R   0.090150 0.478100 0.355060 -0.617142
O7    O     O_R   0.192930 0.494020 0.628780 -0.609029
O8    O     O_R   0.807070 0.505980 0.371220 -0.626216
C3    C     C_R   0.063571 0.513517 0.681951 0.868574
C4    C     C_R   0.937027 0.489055 0.317947 0.864055
Zn1   Zn    Zn3+2 0.810990 0.518620 0.510790 1.029694
Zn2   Zn    Zn3+2 0.189010 0.481380 0.489210 1.025292
C5    C     C_R   0.100111 0.545797 0.785666 -0.075702
C6    C     C_R   0.907606 0.481346 0.212755 -0.055241
C7    C     C_R   0.079551 0.712722 0.931324 -0.184661
C8    C     C_R   0.964670 0.376141 0.052511 -0.185641
C9    C     C_R   0.013320 0.655831 0.839075 -0.158209
C10   C     C_R   0.013457 0.402504 0.151083 -0.190035
C11   C     C_R   0.247021 0.488518 0.825517 -0.260455
C12   C     C_R   0.762284 0.544815 0.174986 -0.266501
C13   C     C_R   0.326253 0.556777 0.912299 0.092086
C14   C     C_R   0.711240 0.521456 0.076412 0.087381
C15   C     C_R   0.237229 0.666130 0.967582 0.168871
C16   C     C_R   0.810922 0.429706 0.015620 0.166680
C17   C     C_R   0.491893 0.520002 0.944573 0.060270
C18   C     C_R   0.556686 0.576394 0.038953 0.059829
C19   C     C_R   0.464985 0.685588 0.092650 -0.219504
C20   C     C_R   0.596760 0.432705 0.884489 -0.205853
C21   C     C_R   0.308386 0.730053 0.057009 -0.211456
C22   C     C_R   0.754128 0.389611 0.919546 -0.213182
H1    H     H_    0.242886 0.815104 0.099649 0.153771
H2    H     H_    0.830160 0.321838 0.871668 0.168037
H3    H     H_    0.684253 0.603046 0.225589 0.161646
H4    H     H_    0.300900 0.394657 0.784555 0.175316
H5    H     H_    0.128303 0.354488 0.179746 0.162898
H6    H     H_    0.898393 0.701132 0.808479 0.202037
H7    H     H_    0.011326 0.797396 0.972527 0.146213
H8    H     H_    0.043667 0.309347 0.005921 0.147522
H9    H     H_    0.514118 0.743981 0.161018 0.158706
H10   H     H_    0.563281 0.399635 0.808790 0.178056
C23   C     C_2   0.081278 0.959508 0.529277 -0.010530
C24   C     C_2   0.947475 0.048450 0.543820 -0.019281
N1    N     N_2   0.440860 0.456490 0.474790 -0.142653
N2    N     N_2   0.559140 0.543510 0.525210 -0.143337
H11   H     H_    0.486800 0.373627 0.427801 0.215164
H12   H     H_    0.513212 0.626281 0.572279 0.225455
N3    N     N_R   0.255857 0.024319 0.529183 0.240604
O9    O     O_R   0.324149 0.110279 0.604519 -0.340512
O10   O     O_R   0.345950 0.996956 0.454289 -0.360638
N4    N     N_R   0.798410 0.990408 0.591583 0.218291
O11   O     O_R   0.648776 0.035847 0.567309 -0.282520
O12   O     O_R   0.815917 0.909162 0.668115 -0.415393

loop_
_geom_bond_atom_site_label_1
_geom_bond_atom_site_label_2
_geom_bond_distance
_ccdc_geom_bond_type
C15   C21   1.389028 A    
O5    Zn1   1.963515 S    
O5    C3    1.293205 A    
O7    Zn2   1.917861 S    
C21   H1    1.084209 S    
C16   C22   1.388768 A    
C10   H5    1.083100 S    
C9    H6    1.082561 S    
C13   C17   1.415167 A    
C8    C16   1.403040 A    
O6    C4    1.292858 A    
C23   C24   1.358260 D    
C7    C15   1.403862 A    
C24   N4    1.441874 S    
N3    O10   1.301520 A    
N1    H11   1.029340 S    
C1    C23   1.421202 S    
C19   C21   1.386961 A    
C11   H4    1.078525 S    
C2    C24   1.437064 S    
N1    N2    1.289318 D    
C17   C20   1.418367 A    
C20   C22   1.385585 A    
C12   H3    1.076828 S    
O7    C3    1.298435 A    
C14   C16   1.418919 A    
O2    C2    1.277726 A    
O3    Zn2   1.970942 S    
O8    C4    1.299925 A    
O1    C1    1.281645 A    
C18   C19   1.418501 A    
C7    C9    1.392988 A    
N4    O12   1.301777 A    
Zn2   N1    2.023048 S    
C8    C10   1.391764 A    
C13   C15   1.418566 A    
C11   C13   1.392851 A    
Zn1   N2    2.023049 S    
O2    Zn2   1.943087 S    
C12   C14   1.393736 A    
O1    Zn1   1.943088 S    
C6    C10   1.399499 A    
N2    H12   1.029435 S    
C14   C18   1.416001 A    
C5    C11   1.385230 A    
N4    O11   1.297567 A    
O4    C2    1.302506 A    
N3    O9    1.301929 A    
C7    H7    1.083788 S    
C17   C18   1.414288 A    
C8    H8    1.083955 S    
C20   H10   1.077716 S    
O6    Zn2   1.963516 S    
C19   H9    1.077790 S    
C5    C9    1.399098 A    
C3    C5    1.448445 S    
C23   N3    1.438264 S    
C4    C6    1.452002 S    
O4    Zn1   1.970941 S    
C6    C12   1.388537 A    
O3    C1    1.292692 A    
O8    Zn1   1.917862 S    
C22   H2    1.084329 S    
