data_mof_unit_19955.cif
_audit_creation_date              2013-03-05T15:55:01-0500
_audit_creation_method            fapswitch 2.2
_symmetry_space_group_name_H-M    P1
_symmetry_Int_Tables_number       1
_space_group_crystal_system       triclinic
_cell_length_a                    6.925894
_cell_length_b                    14.55386
_cell_length_c                    16.210411
_cell_angle_alpha                 90.44938
_cell_angle_beta                  89.923964
_cell_angle_gamma                 89.903586
_cell_volume                      1633.93093968

loop_
_atom_site_label
_atom_site_type_symbol
_atom_site_description
_atom_site_fract_x
_atom_site_fract_y
_atom_site_fract_z
_atom_type_partial_charge
O1    O     O_R   0.505810 0.583360 0.413880 -0.581135
O2    O     O_R   0.175870 0.595480 0.585520 -0.597832
O3    O     O_R   0.005540 0.416640 0.586120 -0.562176
C1    C     C_R   0.344160 0.619037 0.613754 0.952633
O4    O     O_R   0.176100 0.594390 0.414490 -0.593589
O5    O     O_R   0.005770 0.415540 0.413870 -0.596027
C2    C     C_R   0.345076 0.614350 0.384034 0.983413
O6    O     O_R   0.505580 0.584460 0.586130 -0.613477
O7    O     O_3   0.339190 0.441320 0.500000 -0.235049
V1    V     V_3+5 0.064350 0.510890 0.500000 1.244427
O8    O     O_R   0.676050 0.404520 0.414480 -0.544669
C3    C     C_R   0.845311 0.380747 0.387097 1.105533
O9    O     O_R   0.675830 0.405610 0.585510 -0.585811
C4    C     C_R   0.844799 0.386682 0.615828 0.926104
V2    V     V_3+5 0.564340 0.489110 0.500000 1.285439
O10   O     O_3   0.839370 0.558680 0.500000 -0.299274
C5    C     C_2   0.719337 0.202867 0.778540 0.456847
C6    C     C_2   0.883539 0.171452 0.814622 -0.509059
H1    H     H_    0.022153 0.190349 0.788678 0.218603
C7    C     C_2   0.724621 0.264567 0.705658 -0.304997
C8    C     C_2   0.856397 0.331174 0.691858 0.040717
H2    H     H_    0.609897 0.254408 0.660815 0.188192
C9    C     C_R   0.006164 0.257281 0.192121 0.332837
C10   C     C_R   0.997122 0.318363 0.259292 -0.129768
H3    H     H_    0.095255 0.376284 0.261228 0.192209
C11   C     C_R   0.856496 0.309715 0.320838 -0.373673
C12   C     C_R   0.726431 0.235143 0.317320 0.380960
C13   C     C_R   0.739920 0.169425 0.252395 0.151002
C14   C     C_R   0.877530 0.181664 0.187770 -0.354396
C15   C     C_R   0.198580 0.750543 0.700550 0.295351
C16   C     C_R   0.213871 0.811181 0.768311 -0.114985
H4    H     H_    0.096006 0.858087 0.781690 0.128603
C17   C     C_R   0.379731 0.813624 0.817999 -0.182840
C18   C     C_R   0.533025 0.754091 0.798799 -0.119652
H5    H     H_    0.663159 0.754416 0.835779 0.141127
C19   C     C_R   0.518720 0.691893 0.732704 -0.139902
H6    H     H_    0.637903 0.645212 0.721545 0.142586
C20   C     C_R   0.352513 0.688323 0.682625 -0.169447
C21   C     C_R   0.209626 0.745336 0.302357 -0.086348
H7    H     H_    0.086377 0.747322 0.343538 0.145551
C22   C     C_R   0.219887 0.809832 0.238749 -0.094119
H8    H     H_    0.103488 0.859023 0.232135 0.120721
C23   C     C_R   0.379987 0.812222 0.185465 -0.175034
C24   C     C_R   0.527750 0.747316 0.196203 -0.234824
H9    H     H_    0.649202 0.746394 0.154007 0.174223
C25   C     C_R   0.515512 0.679579 0.257601 0.388796
C26   C     C_R   0.356823 0.679817 0.313475 -0.295139
O11   O     O_R   0.230120 0.912300 0.917180 -0.608032
O12   O     O_R   0.559740 0.902430 0.088770 -0.611231
O13   O     O_R   0.729930 0.081310 0.089370 -0.587923
C27   C     C_R   0.390780 0.880670 0.117756 0.931964
O14   O     O_R   0.559840 0.901330 0.917750 -0.601992
O15   O     O_R   0.730030 0.080210 0.917120 -0.564467
C28   C     C_R   0.391107 0.879571 0.888488 0.996521
O16   O     O_R   0.230020 0.913400 0.089430 -0.607745
O17   O     O_3   0.396460 0.055470 0.003290 -0.223456
V3    V     V_3+5 0.671360 0.985960 0.003250 1.221837
O18   O     O_R   0.059740 0.091300 0.917690 -0.545231
C29   C     C_R   0.890689 0.110309 0.887272 1.078357
O19   O     O_R   0.059640 0.092400 0.088720 -0.586228
C30   C     C_R   0.890289 0.114180 0.117941 1.036663
V4    V     V_3+5 0.171350 0.007820 0.003190 1.265785
O20   O     O_3   0.896380 0.938200 0.003220 -0.306705
N1    N     N_R   0.532716 0.171336 0.804138 0.246648
O21   O     O_R   0.401585 0.231114 0.825245 -0.311042
O22   O     O_R   0.480988 0.087219 0.787856 -0.426955
N2    N     N_R   0.658451 0.607946 0.258485 0.232466
O23   O     O_R   0.837835 0.626831 0.241892 -0.413453
O24   O     O_R   0.604572 0.522352 0.259773 -0.382080
N3    N     N_R   0.996270 0.356910 0.753621 0.248526
O25   O     O_R   0.170396 0.380224 0.732130 -0.343572
O26   O     O_R   0.941532 0.370937 0.829536 -0.317261
N4    N     N_R   0.142350 0.275527 0.127329 0.247386
O27   O     O_R   0.314043 0.305796 0.145333 -0.341871
O28   O     O_R   0.086008 0.276112 0.050771 -0.332761
N5    N     N_R   0.583077 0.224928 0.380639 0.232483
O29   O     O_R   0.400484 0.226418 0.361865 -0.383882
O30   O     O_R   0.634747 0.215132 0.457220 -0.426050
C31   C     C_3   0.615449 0.083754 0.255059 -0.826479
H10   H     H_    0.495577 0.089553 0.209984 0.260920
H11   H     H_    0.703700 0.021835 0.240813 0.201158
H12   H     H_    0.551875 0.071400 0.316740 0.256172
C32   C     C_3   0.019263 0.756327 0.648024 -0.953820
H13   H     H_    0.924436 0.814413 0.667026 0.239652
H14   H     H_    0.059689 0.767124 0.582502 0.242835
H15   H     H_    0.933436 0.692511 0.654007 0.260208

loop_
_geom_bond_atom_site_label_1
_geom_bond_atom_site_label_2
_geom_bond_distance
_ccdc_geom_bond_type
O18   V4    2.005173 S    
C22   C23   1.405292 A    
C22   H8    1.083247 S    
C1    O6    1.302641 A    
O15   C29   1.291379 A    
C21   C22   1.401630 A    
O11   C28   1.296052 A    
C11   C12   1.412475 A    
C9    C14   1.418477 A    
C4    C8    1.481136 S    
C13   C14   1.427718 A    
C10   C11   1.399858 A    
C6    H1    1.084341 S    
C5    N1    1.434201 S    
O5    C3    1.295966 A    
C15   C16   1.407845 A    
V2    O10   2.158714 S    
O16   V4    2.009376 S    
C5    C7    1.490021 S    
O12   V3    2.006027 S    
O17   V3    2.154497 S    
C15   C20   1.425781 A    
O19   V4    2.000842 S    
C18   H5    1.083102 S    
N4    O27   1.301510 A    
C15   C32   1.509322 S    
C13   C31   1.517901 S    
O8    V2    2.000819 S    
C32   H13   1.111026 S    
C24   C25   1.408937 A    
O12   C27   1.300989 A    
C9    C10   1.401539 A    
C16   C17   1.404199 A    
N3    O25   1.301153 A    
O1    V2    2.006115 S    
O7    V1    2.154542 S    
C18   C19   1.400931 A    
O9    C4    1.299807 A    
N4    O28   1.301515 A    
C9    N4    1.437330 S    
O14   C28   1.300516 A    
V3    O20   1.705378 S    
O4    C2    1.303695 A    
C14   C30   1.495239 S    
N2    O23   1.301090 A    
C10   H3    1.084016 S    
C21   H7    1.083156 S    
C31   H11   1.110629 S    
O15   V3    2.006606 S    
O18   C29   1.301191 A    
C3    C11   1.486770 S    
O19   C30   1.302109 A    
N2    O24   1.301329 A    
N1    O22   1.301318 A    
O2    C1    1.298405 A    
C23   C24   1.403475 A    
V4    O20   2.158691 S    
O11   V4    2.002105 S    
C16   H4    1.083877 S    
C5    C6    1.359661 D    
N5    O29   1.301295 A    
O3    C4    1.290307 A    
C32   H14   1.110494 S    
C7    H2    1.087134 S    
O6    V2    2.001734 S    
O9    V2    2.005140 S    
O17   V4    1.707430 S    
C12   N5    1.435824 S    
O2    V1    2.003331 S    
C24   H9    1.083469 S    
C21   C26   1.407469 A    
C17   C28   1.488735 S    
C25   C26   1.423239 A    
C19   H6    1.082329 S    
O1    C2    1.296124 A    
O13   V3    2.003054 S    
N5    O30   1.301265 A    
O5    V1    2.003180 S    
C31   H12   1.108092 S    
O8    C3    1.298395 A    
C8    N3    1.441905 S    
N1    O21   1.300244 A    
C19   C20   1.410259 A    
O7    V2    1.708516 S    
O4    V1    2.005995 S    
O3    V1    2.006689 S    
V1    O10   1.705303 S    
C23   C27   1.489921 S    
C17   C18   1.402345 A    
C27   O16   1.296317 A    
O14   V3    2.003465 S    
C31   H10   1.110241 S    
C6    C29   1.482467 S    
C25   N2    1.436646 S    
C32   H15   1.108376 S    
C7    C8    1.352241 D    
C12   C13   1.419460 A    
O13   C30   1.294817 A    
N3    O26   1.301675 A    
C1    C20   1.499763 S    
C2    C26   1.496595 S    
