data_mof_unit_26360.cif
_audit_creation_date              2012-10-26T18:50:44-0400
_audit_creation_method            fapswitch 2.2
_symmetry_space_group_name_H-M    P1
_symmetry_Int_Tables_number       1
_space_group_crystal_system       triclinic
_cell_length_a                    12.298456
_cell_length_b                    13.146586
_cell_length_c                    17.290469
_cell_angle_alpha                 104.68795
_cell_angle_beta                  75.26809
_cell_angle_gamma                 116.455141
_cell_volume                      2388.57738145

loop_
_atom_site_label
_atom_site_type_symbol
_atom_type_description
_atom_site_fract_x
_atom_site_fract_y
_atom_site_fract_z
_atom_type_partial_charge
C1    C     C_R   0.144585 0.713568 0.505956 0.514917
C2    C     C_R   0.998126 0.470368 0.261723 0.006592
C3    C     C_R   0.739460 0.970697 0.402507 0.387701
C4    C     C_R   0.987783 0.502503 0.652514 0.575912
C5    C     C_R   0.774863 0.163727 0.473030 -0.064407
C6    C     C_R   0.180056 0.918504 0.549079 -0.110367
C7    C     C_R   0.257688 0.034406 0.560822 -0.130715
C8    C     C_R   0.383741 0.069709 0.534709 -0.104697
C9    C     C_R   0.435069 0.989059 0.493267 0.030757
C10   C     C_R   0.353693 0.873459 0.472021 -0.006785
C11   C     C_R   0.564103 0.019762 0.471545 -0.048701
C12   C     C_R   0.887790 0.521575 0.797584 0.345224
C13   C     C_R   0.610351 0.937357 0.423347 0.062946
C14   C     C_R   0.527053 0.825890 0.394822 0.143779
C15   C     C_R   0.400689 0.797978 0.416523 -0.115738
C16   C     C_R   0.855915 0.286062 0.488456 0.544515
C17   C     C_R   0.648719 0.130425 0.498086 -0.158232
C18   C     C_R   0.820173 0.083098 0.426752 -0.084017
C19   C     C_R   0.226749 0.836543 0.506564 -0.006221
C20   C     C_R   0.647662 0.680490 0.626507 -0.094385
C21   C     C_R   0.250073 0.351259 0.390335 0.524744
C22   C     C_R   0.349902 0.320782 0.366476 -0.126050
C23   C     C_R   0.877992 0.435278 0.158057 0.129465
C24   C     C_R   0.450474 0.378458 0.407180 -0.183969
C25   C     C_R   0.452637 0.468140 0.472888 -0.023808
C26   C     C_R   0.348685 0.496807 0.494904 0.089356
C27   C     C_R   0.553246 0.529575 0.517652 -0.042175
C28   C     C_R   0.008321 0.491628 0.347595 0.568285
C29   C     C_R   0.550648 0.622167 0.581116 -0.016831
C30   C     C_R   0.450461 0.653689 0.599916 0.108329
C31   C     C_R   0.349744 0.586903 0.559346 -0.052532
C32   C     C_R   0.657275 0.502805 0.502337 0.015372
C33   C     C_R   0.746400 0.649713 0.608393 0.552483
C34   C     C_R   0.890821 0.460949 0.239467 0.384192
C35   C     C_R   0.982446 0.501561 0.738808 -0.047427
C36   C     C_R   0.071860 0.481728 0.763921 0.060232
C37   C     C_R   0.066050 0.484392 0.845944 0.403213
C38   C     C_R   0.968224 0.498392 0.903073 0.009761
C39   C     C_R   0.879860 0.518990 0.879268 0.091258
C40   C     C_3   0.141859 0.339504 0.678233 -0.241972
C41   C     C_3   0.500088 0.650109 0.290836 -0.277735
C42   C     C_3   0.345768 0.778941 0.687904 -0.290093
C43   C     C_3   0.675622 0.429796 0.952063 -0.270133
C44   C     C_3   0.679077 0.304553 0.123005 -0.292687
C45   C     C_R   0.090981 0.451473 0.201535 -0.192973
C46   C     C_R   0.078958 0.427064 0.120240 -0.131450
C47   C     C_R   0.974332 0.421479 0.098246 0.013435
C48   C     C_2   0.960973 0.496365 0.988584 -0.019626
C49   C     C_2   0.972999 0.413121 0.012628 0.425631
Cu1   Cu    Cu3+1 0.900140 0.524980 0.518800 1.102194
Cu2   Cu    Cu3+1 0.099860 0.475020 0.481200 0.987985
F1    F     F_    0.789495 0.897482 0.355513 -0.606088
F2    F     F_    0.840018 0.707591 0.651773 -0.584232
F3    F     F_    0.796111 0.472802 0.296275 -0.648051
F4    F     F_    0.153149 0.293863 0.349866 -0.616147
F5    F     F_    0.990635 0.324229 0.958685 -0.582334
F6    F     F_    0.800414 0.540717 0.776118 -0.585267
F7    F     F_    0.157512 0.474456 0.869905 -0.589314
H1    H     H_    0.153269 0.416496 0.074256 0.185964
H2    H     H_    0.525145 0.351285 0.385490 0.148182
H3    H     H_    0.349457 0.252142 0.316107 0.137782
H4    H     H_    0.272568 0.607423 0.579745 0.200673
H5    H     H_    0.173402 0.456699 0.217189 0.163334
H6    H     H_    0.943586 0.564622 0.033232 0.113968
H7    H     H_    0.253614 0.503774 0.726612 0.299594
H8    H     H_    0.218296 0.330861 0.630354 0.132573
H9    H     H_    0.055742 0.296781 0.651657 0.161362
H10   H     H_    0.131753 0.295772 0.728472 0.193465
H11   H     H_    0.608422 0.712969 0.382003 0.296609
H12   H     H_    0.918179 0.107914 0.406808 0.201098
H13   H     H_    0.558709 0.607585 0.249872 0.169051
H14   H     H_    0.469039 0.686303 0.253413 0.155758
H15   H     H_    0.419737 0.584031 0.322592 0.133083
H16   H     H_    0.533965 0.826552 0.649660 0.253697
H17   H     H_    0.364972 0.853950 0.737603 0.161370
H18   H     H_    0.267195 0.704693 0.712683 0.166276
H19   H     H_    0.321879 0.800998 0.638384 0.146684
H20   H     H_    0.757604 0.596282 0.927370 0.309926
H21   H     H_    0.630424 0.389161 0.897363 0.183207
H22   H     H_    0.608625 0.448786 0.003616 0.149625
H23   H     H_    0.619070 0.193634 0.538423 0.142363
H24   H     H_    0.703253 0.368559 0.967450 0.166144
H25   H     H_    0.728540 0.476297 0.173893 0.300059
H26   H     H_    0.597502 0.301513 0.104441 0.133431
H27   H     H_    0.648465 0.267031 0.179644 0.176058
H28   H     H_    0.719705 0.252298 0.074018 0.179683
H29   H     H_    0.083423 0.892911 0.574688 0.177545
H30   H     H_    0.437573 0.161122 0.546426 0.107842
H31   H     H_    0.220426 0.097206 0.592662 0.121778
H32   H     H_    0.338941 0.716552 0.388546 0.153013
H33   H     H_    0.647727 0.748968 0.676827 0.150693
H34   H     H_    0.667143 0.434676 0.455202 0.167620
N1    N     N_R   0.749710 0.562810 0.547300 -0.235376
N2    N     N_R   0.249640 0.437820 0.453210 -0.241721
N3    N     N_2   0.169114 0.460262 0.707570 -0.484350
N4    N     N_2   0.571035 0.740703 0.348776 -0.435344
N5    N     N_2   0.454034 0.753958 0.658854 -0.523456
N6    N     N_2   0.781621 0.535535 0.937561 -0.496169
N7    N     N_2   0.767826 0.422617 0.136391 -0.526648
O1    O     O_R   0.025490 0.682370 0.523640 -0.455502
O2    O     O_R   0.194150 0.640180 0.491890 -0.563505
O3    O     O_R   0.905900 0.523560 0.631310 -0.377599
O4    O     O_R   0.074570 0.481370 0.599560 -0.526307
O5    O     O_R   0.805850 0.359820 0.508110 -0.527247
O6    O     O_R   0.974510 0.317630 0.476360 -0.457714
O7    O     O_R   0.925430 0.518630 0.400440 -0.445467
O8    O     O_R   0.094100 0.476440 0.368690 -0.476226

loop_
_geom_bond_atom_site_label_1
_geom_bond_atom_site_label_2
_ccdc_geom_bond_type
C18   H12   S    
C23   N7    S    
C26   N2    A    
C46   H1    S    
C27   C29   A    
C35   C36   A    
C43   N6    S    
H11   N4    S    
C7    C8    A    
C47   C49   S    
C32   H34   S    
C45   C46   A    
Cu1   O5    S    
C6    C19   A    
C30   N5    S    
C42   H17   S    
C29   C30   A    
C36   C37   A    
C10   C15   A    
C38   C39   A    
C44   N7    S    
C48   H6    S    
C41   N4    S    
C5    C17   A    
C21   N2    A    
C28   O8    A    
C43   H21   S    
C7    H31   S    
C4    O4    A    
C3    C18   A    
C5    C16   S    
C16   O5    A    
C28   O7    A    
C8    C9    A    
C40   H9    S    
C4    O3    A    
H20   N6    S    
C9    C10   A    
C38   C48   S    
C37   F7    S    
C3    C13   A    
C24   H2    S    
C41   H13   S    
C2    C34   A    
C32   N1    A    
C4    C35   S    
C26   C31   A    
C40   H8    S    
C13   C14   A    
C31   H4    S    
C44   H28   S    
C1    O1    A    
C14   N4    S    
H16   N5    S    
C20   C29   A    
C2    C45   A    
C33   F2    S    
C20   H33   S    
C1    C19   S    
C23   C47   A    
C24   C25   A    
C42   N5    S    
C21   F4    S    
C39   N6    S    
C5    C18   A    
C25   C26   A    
C45   H5    S    
C6    H29   S    
C8    H30   S    
C37   C38   A    
H25   N7    S    
C10   C19   A    
Cu2   O6    S    
C23   C34   A    
Cu1   Cu2   S    
C12   C35   A    
C9    C11   A    
C16   O6    A    
C41   H14   S    
C20   C33   A    
C48   C49   D    
Cu1   O3    S    
C22   C24   A    
Cu2   O2    S    
C12   F6    S    
C40   N3    S    
C44   H27   S    
C1    O2    A    
C46   C47   A    
C11   C17   A    
C27   C32   A    
Cu1   O1    S    
C44   H26   S    
C33   N1    A    
C3    F1    S    
Cu1   N1    S    
C34   F3    S    
C6    C7    A    
C25   C27   A    
C49   F5    S    
C42   H18   S    
C12   C39   A    
C43   H22   S    
C22   H3    S    
C11   C13   A    
C36   N3    S    
C30   C31   A    
C17   H23   S    
Cu2   N2    S    
C41   H15   S    
H7    N3    S    
C42   H19   S    
Cu2   O8    S    
C40   H10   S    
Cu1   O7    S    
C43   H24   S    
C14   C15   A    
C2    C28   S    
C21   C22   A    
Cu2   O4    S    
C15   H32   S    
