data_mof_unit_31038.cif
_audit_creation_date              2012-12-10T16:52:10-0500
_audit_creation_method            fapswitch 2.2
_symmetry_space_group_name_H-M    P1
_symmetry_Int_Tables_number       1
_space_group_crystal_system       triclinic
_cell_length_a                    7.80384
_cell_length_b                    8.594999
_cell_length_c                    14.887345
_cell_angle_alpha                 91.861509
_cell_angle_beta                  85.416485
_cell_angle_gamma                 93.096898
_cell_volume                      993.508609277

loop_
_atom_site_label
_atom_site_type_symbol
_atom_type_description
_atom_site_fract_x
_atom_site_fract_y
_atom_site_fract_z
_atom_type_partial_charge
C1    C     C_R   0.544632 0.794145 0.499465 0.840555
C2    C     C_R   0.559980 0.644945 0.813894 0.429515
C3    C     C_R   0.494091 0.492382 0.232413 -0.186313
C4    C     C_R   0.505909 0.507616 0.767586 -0.186311
C5    C     C_R   0.548329 0.627838 0.188516 -0.215103
C6    C     C_R   0.451680 0.372157 0.811483 -0.215108
C7    C     C_R   0.550339 0.631662 0.096105 0.099180
C8    C     C_R   0.449679 0.368330 0.903894 0.099182
C9    C     C_R   0.497940 0.497030 0.046915 -0.074408
C10   C     C_R   0.502081 0.502961 0.953083 -0.074407
C11   C     C_R   0.441903 0.356862 0.091635 0.028139
C12   C     C_R   0.455368 0.205855 0.500535 0.840555
C13   C     C_R   0.558116 0.643130 0.908363 0.028137
C14   C     C_R   0.604799 0.769264 0.053042 -0.305303
C15   C     C_R   0.395225 0.230727 0.946956 -0.305303
C16   C     C_R   0.609400 0.777265 0.959375 0.470894
C17   C     C_R   0.390625 0.222726 0.040623 0.470899
C18   C     C_2   0.564229 0.957269 0.511946 0.194672
C19   C     C_2   0.435771 0.042731 0.488055 0.194681
C20   C     C_R   0.501785 0.501846 0.672541 0.850295
C21   C     C_R   0.498214 0.498153 0.327459 0.850294
C22   C     C_R   0.440024 0.355052 0.186105 0.429514
H1    H     H_    0.588980 0.730957 0.227074 0.170161
H2    H     H_    0.226259 0.060528 0.425125 0.371232
H3    H     H_    0.937010 0.301619 0.387276 0.348258
H4    H     H_    0.062990 0.698381 0.612724 0.348258
H5    H     H_    0.411028 0.269039 0.772925 0.170158
H6    H     H_    0.400580 0.231023 0.295840 0.320062
H7    H     H_    0.599331 0.768998 0.704167 0.320044
H8    H     H_    0.643953 0.871338 0.092651 0.177159
H9    H     H_    0.356073 0.128653 0.907348 0.177157
H10   H     H_    0.693248 0.995730 0.963297 0.331846
H11   H     H_    0.306784 0.004259 0.036700 0.331845
H12   H     H_    0.773736 0.939471 0.574879 0.371238
N1    N     N_2   0.950330 0.457950 0.475660 0.192928
N2    N     N_2   0.049670 0.542050 0.524340 0.192928
O1    O     O_R   0.389250 0.738570 0.505970 -0.577629
O2    O     O_3   0.612837 0.780742 0.769482 -0.682847
O3    O     O_3   0.663341 0.914631 0.917417 -0.689508
O4    O     O_3   0.336688 0.085359 0.082581 -0.689508
O5    O     O_3   0.701462 0.022717 0.556835 -0.742133
O6    O     O_3   0.298537 0.977283 0.443166 -0.742132
O7    O     O_3   0.030542 0.356994 0.418678 -0.646509
O8    O     O_3   0.969458 0.643006 0.581322 -0.646492
O9    O     O_R   0.610750 0.261430 0.494030 -0.577624
O10   O     O_R   0.678390 0.711620 0.490370 -0.598912
O11   O     O_R   0.321610 0.288380 0.509630 -0.598921
O12   O     O_R   0.355420 0.513510 0.639950 -0.633414
O13   O     O_R   0.644580 0.486490 0.360050 -0.633401
O14   O     O_R   0.644560 0.486560 0.624350 -0.558839
O15   O     O_R   0.355440 0.513440 0.375650 -0.558857
O16   O     O_3   0.387162 0.219255 0.230517 -0.682853
Zn1   Zn    Zn3+2 0.306940 0.517990 0.510420 1.086018
Zn2   Zn    Zn3+2 0.693060 0.482010 0.489580 1.086031

loop_
_geom_bond_atom_site_label_1
_geom_bond_atom_site_label_2
_ccdc_geom_bond_type
H7    O2    S    
C2    C4    A    
C3    C21   S    
C15   H9    S    
C6    H5    S    
H2    O6    S    
C9    C10   A    
C2    O2    S    
C11   C22   A    
N1    N2    D    
C5    H1    S    
C19   O6    S    
C1    O1    A    
O11   Zn1   S    
O1    Zn1   S    
H3    O7    S    
C21   O13   A    
H4    O8    S    
O14   Zn2   S    
N1    Zn2   S    
H6    O16   S    
O10   Zn2   S    
C1    C18   S    
C20   O12   A    
H12   O5    S    
C14   H8    S    
C12   O11   A    
C6    C8    A    
C12   C19   S    
C22   O16   S    
O9    Zn2   S    
C8    C15   A    
C5    C7    A    
C9    C11   A    
O12   Zn1   S    
C8    C10   A    
C14   C16   A    
C1    O10   A    
H10   O3    S    
H11   O4    S    
N2    O8    S    
C16   O3    S    
O13   Zn2   S    
C4    C20   S    
C21   O15   A    
N1    O7    S    
C4    C6    A    
C18   C19   D    
C13   C16   A    
C7    C9    A    
C2    C13   A    
C11   C17   A    
C3    C22   A    
C20   O14   A    
N2    Zn1   S    
C3    C5    A    
C15   C17   A    
C10   C13   A    
C7    C14   A    
C18   O5    S    
C12   O9    A    
O15   Zn1   S    
C17   O4    S    
