data_mof_unit_55889.cif
_audit_creation_date              2013-03-05T15:59:35-0500
_audit_creation_method            fapswitch 2.2
_symmetry_space_group_name_H-M    P1
_symmetry_Int_Tables_number       1
_space_group_crystal_system       triclinic
_cell_length_a                    12.643465
_cell_length_b                    13.150114
_cell_length_c                    15.747304
_cell_angle_alpha                 90.721266
_cell_angle_beta                  102.809553
_cell_angle_gamma                 82.516351
_cell_volume                      2530.92771602

loop_
_atom_site_label
_atom_site_type_symbol
_atom_site_description
_atom_site_fract_x
_atom_site_fract_y
_atom_site_fract_z
_atom_type_partial_charge
O1    O     O_R   0.366730 0.627160 0.478790 -0.615747
O2    O     O_R   0.544830 0.662520 0.507160 -0.621609
C1    C     C_R   0.438968 0.691041 0.487061 0.845980
O3    O     O_R   0.410960 0.482330 0.609040 -0.592292
O4    O     O_R   0.589060 0.517690 0.637410 -0.620094
C2    C     C_R   0.501098 0.500334 0.661779 0.893846
Zn1   Zn    Zn3+2 0.381080 0.476390 0.481050 0.969139
Zn2   Zn    Zn3+2 0.618920 0.523610 0.518950 0.934068
O5    O     O_R   0.455170 0.337480 0.492840 -0.614941
O6    O     O_R   0.633270 0.372840 0.521210 -0.631190
O7    O     O_R   0.410940 0.482310 0.362590 -0.593237
O8    O     O_R   0.589040 0.517670 0.390960 -0.644013
C3    C     C_R   0.560828 0.308901 0.508556 0.865183
C4    C     C_R   0.498850 0.499792 0.338201 0.878074
C5    C     C_3   0.436586 0.586669 0.018019 -0.280099
C6    C     C_3   0.541514 0.581084 0.981743 0.207675
H1    H     H_    0.386598 0.657385 0.033467 0.181990
H2    H     H_    0.685066 0.492494 0.088664 0.167508
C7    C     C_1   0.503251 0.500720 0.751001 -0.147520
C8    C     C_1   0.496355 0.499471 0.248909 -0.145748
C9    C     C_3   0.396762 0.504031 0.952627 0.253347
C10   C     C_3   0.499842 0.499858 0.916457 0.033954
C11   C     C_3   0.454197 0.418635 0.017496 0.294145
C12   C     C_3   0.495548 0.499244 0.082694 0.008314
C13   C     C_3   0.558566 0.412636 0.981423 -0.305283
C14   C     C_3   0.600940 0.495042 0.047909 -0.185190
C15   C     C_1   0.502745 0.500523 0.826129 0.057882
C16   C     C_1   0.495341 0.499330 0.173495 0.056154
H3    H     H_    0.607258 0.341317 0.965587 0.187597
C17   C     C_R   0.699471 0.064737 0.437423 -0.185326
H4    H     H_    0.743252 0.216725 0.456569 0.149773
H5    H     H_    0.696711 0.874351 0.377557 0.154672
H6    H     H_    0.768934 0.038438 0.409404 0.139196
C18   C     C_R   0.595866 0.200430 0.500876 -0.044617
C19   C     C_R   0.301639 0.837339 0.501631 -0.182952
C20   C     C_R   0.273409 0.941868 0.510137 -0.135411
C21   C     C_R   0.346172 0.009451 0.500818 -0.178020
C22   C     C_R   0.447024 0.973225 0.478464 0.088522
C23   C     C_R   0.466900 0.869457 0.456557 0.078901
C24   C     C_R   0.528875 0.036405 0.477121 0.080140
C25   C     C_R   0.620122 0.000537 0.441094 0.174205
C26   C     C_R   0.629632 0.901974 0.407910 -0.244472
C27   C     C_R   0.553855 0.837095 0.415341 -0.209715
C28   C     C_R   0.523261 0.134001 0.512163 -0.246996
C29   C     C_R   0.686331 0.165407 0.465904 -0.189567
C30   C     C_R   0.399943 0.800418 0.477734 -0.107974
H7    H     H_    0.460052 0.162163 0.545897 0.153667
H8    H     H_    0.248255 0.785220 0.516431 0.155549
H9    H     H_    0.320174 0.089633 0.509317 0.139216
H10   H     H_    0.196948 0.970305 0.527672 0.149447
H11   H     H_    0.563652 0.761542 0.387876 0.176337
C31   C     C_R   0.088738 0.343556 0.381021 -0.293829
H12   H     H_    0.254434 0.330447 0.365634 0.153980
H13   H     H_    0.881329 0.311849 0.360015 0.155388
H14   H     H_    0.066968 0.284139 0.334532 0.156921
N1    N     N_R   0.222180 0.444680 0.455580 -0.110418
C32   C     C_R   0.805078 0.631579 0.602413 0.327434
C33   C     C_R   0.913680 0.649022 0.629084 -0.207557
C34   C     C_R   0.992959 0.594777 0.593340 -0.210561
C35   C     C_R   0.965216 0.522476 0.528667 0.011696
C36   C     C_R   0.855146 0.500477 0.506897 0.196282
C37   C     C_R   0.043306 0.471559 0.485235 0.006636
C38   C     C_R   0.012409 0.394805 0.424174 0.183185
C39   C     C_R   0.905633 0.370715 0.406406 -0.279735
C40   C     C_R   0.828102 0.423425 0.446632 -0.192470
C41   C     C_R   0.151160 0.495502 0.498655 -0.030931
C42   C     C_R   0.194265 0.369787 0.398074 0.026905
N2    N     N_R   0.776980 0.554790 0.543960 -0.128794
H15   H     H_    0.181538 0.554318 0.541816 0.130965
H16   H     H_    0.075020 0.612165 0.617654 0.167190
H17   H     H_    0.937340 0.707143 0.676397 0.166541
H18   H     H_    0.747453 0.402480 0.428941 0.207486
C43   C     C_3   0.592041 0.673600 0.960333 -0.857060
H19   H     H_    0.615108 0.718848 0.019998 0.246747
H20   H     H_    0.666129 0.647586 0.935030 0.246319
H21   H     H_    0.532044 0.722484 0.910213 0.245126
C44   C     C_3   0.722924 0.704549 0.636889 -0.796960
H22   H     H_    0.763423 0.751565 0.690505 0.196174
H23   H     H_    0.677931 0.760146 0.585085 0.248686
H24   H     H_    0.667255 0.665057 0.665112 0.266757
N3    N     N_R   0.404581 0.329524 0.035368 0.232573
O9    O     O_R   0.373068 0.267056 0.972953 -0.344291
O10   O     O_R   0.391657 0.311675 0.113217 -0.374999
N4    N     N_R   0.284724 0.507421 0.902179 0.231637
O11   O     O_R   0.204761 0.510460 0.942149 -0.345341
O12   O     O_R   0.263751 0.508000 0.817515 -0.384151

loop_
_geom_bond_atom_site_label_1
_geom_bond_atom_site_label_2
_geom_bond_distance
_ccdc_geom_bond_type
C25   C26   1.391993 A    
C17   C29   1.393568 A    
C19   C20   1.386916 A    
H2    C14   1.110358 S    
N3    O9    1.300336 A    
C44   H22   1.111267 S    
Zn1   O7    1.987966 S    
C2    C7    1.399172 S    
C21   C22   1.418934 A    
C20   C21   1.390630 A    
C12   C14   1.543509 S    
O4    C2    1.301454 A    
O7    C4    1.301471 A    
C33   H17   1.084034 S    
C41   H15   1.075204 S    
C5    C6    1.549633 S    
C35   C37   1.416544 A    
C43   H19   1.109724 S    
O5    C3    1.308456 A    
C10   C13   1.544128 S    
C11   C12   1.526431 S    
C17   C25   1.403628 A    
C7    C15   1.184547 T    
C31   H14   1.083725 S    
C34   C35   1.402953 A    
C9    C10   1.528310 S    
C13   H3    1.110204 S    
C43   H20   1.109893 S    
Zn1   N1    2.056141 S    
O3    Zn1   1.969046 S    
C19   H8    1.083471 S    
N3    O10   1.300270 A    
C44   H23   1.106579 S    
C6    C14   1.546445 S    
C37   C41   1.409155 A    
C6    C43   1.519923 S    
C4    C8    1.399426 S    
C18   C28   1.386549 A    
N4    O11   1.300360 A    
O3    C2    1.300095 A    
C23   C27   1.413743 A    
C8    C16   1.184762 T    
C33   C34   1.372675 A    
O6    C3    1.304230 A    
C35   C36   1.424340 A    
O1    C1    1.304288 A    
C37   C38   1.416899 A    
C32   C44   1.507234 S    
C21   H9    1.078603 S    
C9    N4    1.457789 S    
C24   C28   1.390125 A    
Zn2   O8    1.969045 S    
C18   C29   1.399775 A    
C31   C42   1.389227 A    
C23   C30   1.408933 A    
C5    C12   1.544110 S    
O8    C4    1.300251 A    
Zn2   N2    2.043848 S    
C10   C15   1.431162 S    
C9    C11   1.522964 S    
C43   H21   1.109891 S    
C26   C27   1.387315 A    
C32   N2    1.384987 A    
N1    C42   1.356800 A    
C20   H10   1.082712 S    
C44   H24   1.096518 S    
C5    H1    1.110297 S    
C24   C25   1.420228 A    
C6    C10   1.534345 S    
C11   N3    1.457389 S    
C17   H6    1.083740 S    
O1    Zn1   1.967300 S    
O2    Zn2   1.932468 S    
C12   C16   1.430449 S    
N4    O12   1.300320 A    
C31   C38   1.398993 A    
O4    Zn2   1.987965 S    
C28   H7    1.078997 S    
C40   H18   1.066995 S    
C1    C30   1.456754 S    
C39   C40   1.389210 A    
O2    C1    1.310233 A    
C13   C14   1.559309 S    
C3    C18   1.449243 S    
C22   C24   1.412734 A    
C36   N2    1.374364 A    
C27   H11   1.081843 S    
C32   C33   1.392232 A    
C22   C23   1.407642 A    
H13   C39   1.084210 S    
N1    C41   1.347376 A    
C11   C13   1.540893 S    
C36   C40   1.402269 A    
H12   C42   1.081877 S    
C34   H16   1.076474 S    
C38   C39   1.393869 A    
Zn1   O5    1.932468 S    
C5    C9    1.542486 S    
Zn2   O6    1.967300 S    
H4    C29   1.082071 S    
H5    C26   1.083895 S    
C19   C30   1.402759 A    
