data_mof_unit_34130.cif
_audit_creation_date              2012-12-10T17:42:43-0500
_audit_creation_method            fapswitch 2.2
_symmetry_space_group_name_H-M    P1
_symmetry_Int_Tables_number       1
_space_group_crystal_system       triclinic
_cell_length_a                    9.984341
_cell_length_b                    10.820834
_cell_length_c                    13.427589
_cell_angle_alpha                 94.832812
_cell_angle_beta                  72.478286
_cell_angle_gamma                 89.92274
_cell_volume                      1377.93047005

loop_
_atom_site_label
_atom_site_type_symbol
_atom_type_description
_atom_site_fract_x
_atom_site_fract_y
_atom_site_fract_z
_atom_type_partial_charge
C1    C     C_R   0.495629 0.740622 0.511447 0.948394
C2    C     C_R   0.395587 0.455248 0.810512 -0.120132
C3    C     C_R   0.237776 0.898119 0.556917 -0.212628
C4    C     C_R   0.426553 0.487596 0.700900 0.875998
C5    C     C_R   0.132505 0.937361 0.518565 -0.171070
C6    C     C_R   0.162241 0.028125 0.448383 0.502579
C7    C     C_R   0.285480 0.096144 0.435245 -0.232305
C8    C     C_R   0.388515 0.057260 0.479810 0.014196
C9    C     C_R   0.372524 0.942798 0.521037 0.093536
C10   C     C_R   0.491817 0.876181 0.523532 -0.092575
C11   C     C_R   0.615384 0.939193 0.518110 -0.100392
C12   C     C_R   0.458704 0.458033 0.973977 0.114552
C13   C     C_R   0.619382 0.064841 0.506022 -0.166924
C14   C     C_R   0.506499 0.125120 0.486080 -0.107949
C15   C     C_R   0.800290 0.662028 0.643170 -0.252141
C16   C     C_R   0.503304 0.259453 0.492087 0.883178
C17   C     C_R   0.840775 0.745095 0.712779 0.449918
C18   C     C_R   0.977855 0.738853 0.716720 -0.217773
C19   C     C_R   0.073690 0.650332 0.652330 -0.202180
C20   C     C_R   0.039670 0.572856 0.575740 0.141905
C21   C     C_R   0.896711 0.575481 0.573949 -0.001498
C22   C     C_R   0.964228 0.438647 0.420432 0.538466
C23   C     C_R   0.500842 0.458657 0.863965 0.108313
C24   C     C_R   0.104726 0.435625 0.424169 -0.137703
C25   C     C_R   0.575379 0.505905 0.299353 1.028017
C26   C     C_R   0.774497 0.594753 0.033622 0.347664
C27   C     C_R   0.615405 0.522198 0.189028 -0.212723
C28   C     C_R   0.259289 0.422487 0.864157 -0.130137
C29   C     C_R   0.220133 0.412588 0.971565 -0.036617
C30   C     C_R   0.316490 0.435644 0.026920 -0.133577
C31   C     C_R   0.559464 0.486093 0.027568 0.058994
C32   C     C_R   0.693323 0.531695 0.974391 -0.002298
C33   C     C_R   0.739131 0.508226 0.865721 -0.125239
C34   C     C_R   0.647463 0.461778 0.812990 -0.195853
C35   C     C_R   0.533299 0.466425 0.132065 -0.300450
C36   C     C_R   0.718032 0.606059 0.143577 0.371452
H1    H     H_    0.218115 0.833650 0.614222 0.152583
H2    H     H_    0.448313 0.408642 0.170576 0.185119
H3    H     H_    0.182196 0.406390 0.822904 0.195983
H4    H     H_    0.276706 0.438388 0.111204 0.191598
H5    H     H_    0.112519 0.392464 0.012866 0.184532
H6    H     H_    0.696662 0.426333 0.732867 0.191655
H7    H     H_    0.707522 0.892130 0.524998 0.222298
H8    H     H_    0.576784 0.887278 0.292148 0.381126
H9    H     H_    0.880134 0.953589 0.337571 0.420149
H10   H     H_    0.066992 0.260062 0.163906 0.390277
H11   H     H_    0.529515 0.950098 0.791953 0.392279
H12   H     H_    0.031902 0.893073 0.539167 0.189494
H13   H     H_    0.005758 0.848954 0.952292 0.386954
H14   H     H_    0.303462 0.172506 0.386130 0.183782
H15   H     H_    0.710686 0.114299 0.512333 0.235705
H16   H     H_    0.694445 0.670344 0.642315 0.240333
H17   H     H_    0.013322 0.805336 0.767032 0.217917
H18   H     H_    0.177313 0.651566 0.658444 0.219996
H19   H     H_    0.845400 0.520704 0.819444 0.204485
H20   H     H_    0.186675 0.385317 0.362449 0.195924
N1    N     N_R   0.856860 0.501200 0.500990 -0.176184
N2    N     N_R   0.142450 0.501280 0.501020 -0.149707
O1    O     O_R   0.385310 0.683220 0.500000 -0.617821
O2    O     O_2   0.809939 0.844417 0.158628 -0.220632
O3    O     O_3   0.573264 0.795661 0.290210 -0.592748
O4    O     O_2   0.960296 0.165798 0.424962 -0.333418
O5    O     O_2   0.132027 0.067324 0.264695 -0.228111
O6    O     O_3   0.943466 0.929962 0.377559 -0.536415
O7    O     O_2   0.820515 0.295824 0.313173 -0.263777
O8    O     O_2   0.931309 0.482940 0.235744 -0.282867
O9    O     O_3   0.089332 0.295121 0.227416 -0.556378
O10   O     O_2   0.657548 0.808213 0.900539 -0.223612
O11   O     O_2   0.792804 0.975138 0.807789 -0.280121
O12   O     O_R   0.614640 0.683250 0.500010 -0.605957
O13   O     O_3   0.588934 0.883315 0.743837 -0.614343
O14   O     O_2   0.023986 0.660974 0.054863 -0.223017
O15   O     O_2   0.025583 0.590249 0.878179 -0.394456
O16   O     O_3   0.916407 0.807760 0.954721 -0.461205
O17   O     O_R   0.328400 0.499950 0.653610 -0.632031
O18   O     O_R   0.557730 0.499970 0.653620 -0.669630
O19   O     O_R   0.385360 0.316750 0.499990 -0.637157
O20   O     O_R   0.614690 0.316780 0.500000 -0.588078
O21   O     O_R   0.442270 0.500030 0.346380 -0.630416
O22   O     O_R   0.671600 0.500050 0.346390 -0.511468
O23   O     O_2   0.814538 0.714389 0.297419 -0.209989
S1    S     S_3+6 0.736423 0.743089 0.222185 0.097875
S2    S     S_3+6 0.047928 0.051635 0.375931 0.043900
S3    S     S_3+6 0.944912 0.377917 0.298432 0.074066
S4    S     S_3+6 0.719311 0.856384 0.795081 0.039914
S5    S     S_3+6 0.941112 0.660668 0.978032 0.052358
Zn1   Zn    Zn3+2 0.346880 0.499980 0.499990 0.971421
Zn2   Zn    Zn3+2 0.653120 0.500020 0.500010 1.052817

loop_
_geom_bond_atom_site_label_1
_geom_bond_atom_site_label_2
_ccdc_geom_bond_type
C33   H19   S    
O4    S2    D    
C26   C32   A    
C25   O22   A    
C19   C20   A    
C34   H6    S    
O12   Zn2   S    
N2    Zn1   S    
C22   N1    A    
O21   Zn1   S    
O23   S1    D    
C7    C8    A    
C12   C23   A    
C17   S4    S    
C28   C29   A    
C18   C19   A    
O3    S1    S    
C1    O1    A    
C5    C6    A    
O20   Zn2   S    
C16   O19   A    
C4    O17   A    
C18   H17   S    
C13   H15   S    
O2    S1    D    
C36   S1    S    
C8    C9    A    
C11   H7    S    
C9    C10   A    
O18   Zn2   S    
C16   O20   A    
C12   C30   A    
O9    S3    S    
O13   S4    S    
C13   C14   A    
O10   S4    D    
C17   C18   A    
C5    H12   S    
C35   H2    S    
O7    S3    D    
C28   H3    S    
C27   C35   A    
O5    S2    D    
C22   S3    S    
C2    C4    S    
O6    S2    S    
C21   N1    A    
C29   C30   A    
C3    C9    A    
C31   C32   A    
C26   S5    S    
C23   C34   A    
C33   C34   A    
C30   H4    S    
C15   H16   S    
O16   S5    S    
H11   O13   S    
C19   H18   S    
O17   Zn1   S    
C12   C31   A    
C27   C36   A    
C14   C16   S    
C24   H20   S    
C20   N2    A    
O11   S4    D    
C26   C36   A    
C15   C17   A    
C8    C14   A    
C6    S2    S    
C29   H5    S    
C25   O21   A    
C1    C10   S    
C7    H14   S    
C3    C5    A    
O14   S5    D    
C6    C7    A    
H8    O3    S    
C25   C27   S    
H9    O6    S    
C1    O12   A    
N1    Zn2   S    
C32   C33   A    
H10   O9    S    
O22   Zn2   S    
C11   C13   A    
C31   C35   A    
C22   C24   A    
O1    Zn1   S    
O15   S5    D    
C4    O18   A    
C10   C11   A    
O8    S3    D    
C15   C21   A    
C20   C21   A    
O19   Zn1   S    
C24   N2    A    
C2    C23   A    
H13   O16   S    
C2    C28   A    
C3    H1    S    
