data_mof_unit_28273.cif
_audit_creation_date              2012-12-10T17:58:57-0500
_audit_creation_method            fapswitch 2.2
_symmetry_space_group_name_H-M    P1
_symmetry_Int_Tables_number       1
_space_group_crystal_system       triclinic
_cell_length_a                    9.592903
_cell_length_b                    10.752585
_cell_length_c                    13.858282
_cell_angle_alpha                 91.722211
_cell_angle_beta                  85.607117
_cell_angle_gamma                 89.626434
_cell_volume                      1424.5620772

loop_
_atom_site_label
_atom_site_type_symbol
_atom_type_description
_atom_site_fract_x
_atom_site_fract_y
_atom_site_fract_z
_atom_type_partial_charge
C1    C     C_R   0.499681 0.737486 0.500044 0.804030
C2    C     C_R   0.500010 0.262582 0.501272 0.867646
C3    C     C_R   0.499834 0.128724 0.502489 -0.177099
C4    C     C_R   0.499506 0.871401 0.499335 -0.177239
C5    C     C_R   0.478171 0.501085 0.682796 0.793413
C6    C     C_R   0.521897 0.499097 0.317214 0.779776
C7    C     C_R   0.917428 0.581973 0.558569 0.415827
C8    C     C_R   0.081772 0.416718 0.442233 0.338965
C9    C     C_R   0.067152 0.588123 0.553922 0.389585
C10   C     C_R   0.931148 0.413227 0.445504 0.377480
C11   C     C_1   0.533529 0.492347 0.214169 -0.189905
C12   C     C_1   0.466749 0.509222 0.785821 -0.191972
C13   C     C_2   0.548116 0.472878 0.024076 -0.163829
C14   C     C_2   0.452287 0.529613 0.975896 -0.186502
C15   C     C_1   0.458806 0.518277 0.872532 0.007841
C16   C     C_1   0.541622 0.484042 0.127438 0.005485
C17   C     C_R   0.580273 0.936226 0.563640 -0.334270
C18   C     C_R   0.416739 0.063911 0.439781 -0.328048
C19   C     C_R   0.581774 0.066159 0.565598 0.439105
C20   C     C_R   0.418141 0.934965 0.436173 0.487153
Cu1   Cu    Cu3+1 0.359340 0.499980 0.500000 1.004764
Cu2   Cu    Cu3+1 0.640660 0.500020 0.500000 1.016582
H1    H     H_    0.368882 0.585028 0.013718 0.143523
H2    H     H_    0.630533 0.416254 0.986368 0.162894
H3    H     H_    0.637513 0.885572 0.614440 0.182090
H4    H     H_    0.352563 0.113544 0.392354 0.188463
N1    N     N_R   0.147930 0.499970 0.499980 -0.266481
N2    N     N_R   0.852070 0.500030 0.500020 -0.266514
O1    O     O_R   0.381260 0.680340 0.500000 -0.505837
O2    O     O_R   0.618740 0.319660 0.500000 -0.528519
O3    O     O_R   0.618830 0.680370 0.500010 -0.547330
O4    O     O_R   0.381170 0.319630 0.499990 -0.542580
O5    O     O_R   0.364420 0.499960 0.637840 -0.594422
O6    O     O_R   0.635580 0.500040 0.362160 -0.534456
O7    O     O_R   0.601990 0.499990 0.637850 -0.560781
O8    O     O_R   0.398010 0.500010 0.362150 -0.567724
O9    O     O_3   0.834634 0.666022 0.615119 -0.565443
C21   C     C_3   0.838068 0.650249 0.716793 0.088416
H5    H     H_    0.733119 0.678026 0.750243 0.153914
H6    H     H_    0.908711 0.719526 0.746561 0.144702
C22   C     C_3   0.869882 0.518113 0.752858 -0.414324
H7    H     H_    0.785540 0.452607 0.737301 0.250370
H8    H     H_    0.968341 0.478116 0.717733 0.180006
C23   C     C_3   0.883282 0.522446 0.861895 -0.917932
H9    H     H_    0.975650 0.578251 0.879274 0.251335
H10   H     H_    0.896827 0.426623 0.887660 0.257962
H11   H     H_    0.788106 0.564863 0.900411 0.263216
O10   O     O_3   0.162592 0.333447 0.383523 -0.574707
C24   C     C_3   0.153732 0.361306 0.284942 0.082543
H12   H     H_    0.191283 0.457044 0.270135 0.152765
H13   H     H_    0.045038 0.354731 0.263118 0.166996
C25   C     C_3   0.243655 0.267396 0.222414 -0.354795
H14   H     H_    0.354756 0.276788 0.238631 0.221354
H15   H     H_    0.209795 0.171554 0.240051 0.211415
C26   C     C_3   0.230930 0.286300 0.114774 -0.905531
H16   H     H_    0.257525 0.383311 0.096057 0.264275
H17   H     H_    0.122540 0.266841 0.095962 0.252693
H18   H     H_    0.303718 0.221786 0.071492 0.262225
O11   O     O_3   0.126542 0.699614 0.581851 -0.526764
C27   C     C_3   0.172238 0.697185 0.676329 -0.187399
H19   H     H_    0.285855 0.715565 0.673447 0.173086
H20   H     H_    0.150052 0.609887 0.715295 0.132903
H21   H     H_    0.124737 0.776383 0.720067 0.128632
O12   O     O_3   0.861649 0.327441 0.390205 -0.550133
C28   C     C_3   0.901759 0.203728 0.407872 -0.233849
H22   H     H_    0.806653 0.145563 0.413947 0.164185
H23   H     H_    0.956544 0.193073 0.475185 0.131664
H24   H     H_    0.969273 0.165512 0.345303 0.176039
O13   O     O_3   0.643165 0.133625 0.637956 -0.612967
C29   C     C_3   0.786627 0.103704 0.640977 0.068804
H25   H     H_    0.845705 0.191888 0.633745 0.156930
H26   H     H_    0.829613 0.038952 0.581343 0.132838
C30   C     C_3   0.812362 0.049881 0.739005 -0.338113
H27   H     H_    0.770759 0.115279 0.798087 0.227572
H28   H     H_    0.757074 0.959998 0.747431 0.207248
C31   C     C_3   0.968124 0.028672 0.748091 -0.925581
H29   H     H_    0.012979 0.967618 0.687352 0.278104
H30   H     H_    0.983700 0.983416 0.817480 0.247644
H31   H     H_    0.024011 0.118840 0.746928 0.259732
O14   O     O_3   0.333814 0.872356 0.374469 -0.588094
C32   C     C_3   0.414458 0.830489 0.289669 0.069825
H32   H     H_    0.366355 0.743366 0.263369 0.169198
H33   H     H_    0.524834 0.806274 0.302333 0.103638
C33   C     C_3   0.411122 0.926832 0.210617 -0.377508
H34   H     H_    0.300742 0.948444 0.197668 0.226670
H35   H     H_    0.461741 0.013964 0.234426 0.209158
C34   C     C_3   0.487639 0.878781 0.116047 -0.901820
H36   H     H_    0.598814 0.857891 0.127024 0.257867
H37   H     H_    0.483926 0.950689 0.060434 0.255080
H38   H     H_    0.437080 0.793159 0.089277 0.252841

loop_
_geom_bond_atom_site_label_1
_geom_bond_atom_site_label_2
_ccdc_geom_bond_type
C34   H36   S    
C22   H8    S    
C30   H27   S    
C18   H4    S    
C33   C34   S    
C26   H16   S    
C32   H32   S    
Cu1   O8    S    
C23   H9    S    
Cu2   O7    S    
C27   H21   S    
C2    O4    A    
C33   H35   S    
C21   H5    S    
Cu1   O5    S    
C1    O3    A    
C3    C18   A    
C27   H20   S    
C22   H7    S    
C17   C19   A    
C23   H10   S    
C28   H23   S    
C5    O5    A    
C31   H31   S    
C3    C19   A    
C29   H25   S    
C23   H11   S    
C24   C25   S    
Cu1   N1    S    
O11   C27   S    
Cu2   N2    S    
Cu1   Cu2   S    
C30   H28   S    
C32   H33   S    
C25   H15   S    
Cu2   O6    S    
Cu1   O4    S    
Cu2   O3    S    
C20   O14   S    
C31   H29   S    
C5    C12   S    
C6    C11   S    
C24   H13   S    
Cu1   O1    S    
C7    N2    A    
C6    O6    A    
C13   H2    S    
C27   H19   S    
C9    O11   S    
C14   H1    S    
C8    O10   S    
O9    C21   S    
C11   C16   T    
C12   C15   T    
C28   H24   S    
C29   C30   S    
C1    O1    A    
C7    O9    S    
C33   H34   S    
C21   C22   S    
C4    C17   A    
O10   C24   S    
C28   H22   S    
C26   H17   S    
C30   C31   S    
C19   O13   S    
C32   C33   S    
C25   H14   S    
C9    N1    A    
C10   N2    A    
C7    C9    A    
Cu2   O2    S    
C10   O12   S    
C31   H30   S    
O14   C32   S    
C25   C26   S    
C2    O2    A    
C1    C4    S    
C17   H3    S    
O12   C28   S    
C34   H37   S    
C2    C3    S    
C13   C16   S    
C21   H6    S    
C26   H18   S    
C5    O7    A    
C22   C23   S    
C6    O8    A    
C18   C20   A    
O13   C29   S    
C4    C20   A    
C8    C10   A    
C24   H12   S    
C34   H38   S    
C8    N1    A    
C14   C15   S    
C29   H26   S    
C13   C14   D    
