data_mof_unit_25229.cif
_audit_creation_date              2012-10-26T20:59:37-0400
_audit_creation_method            fapswitch 2.2
_symmetry_space_group_name_H-M    P1
_symmetry_Int_Tables_number       1
_space_group_crystal_system       triclinic
_cell_length_a                    15.983339
_cell_length_b                    14.765164
_cell_length_c                    15.102188
_cell_angle_alpha                 90.182472
_cell_angle_beta                  90.392613
_cell_angle_gamma                 89.827929
_cell_volume                      3563.94775715

loop_
_atom_site_label
_atom_site_type_symbol
_atom_type_description
_atom_site_fract_x
_atom_site_fract_y
_atom_site_fract_z
_atom_type_partial_charge
C1    C     C_R   0.340868 0.500117 0.499882 0.616139
C2    C     C_R   0.086748 0.504012 0.492324 -0.069779
C3    C     C_1   0.823271 0.498334 0.506798 0.117097
C4    C     C_1   0.176746 0.502053 0.495284 0.119986
C5    C     C_1   0.251823 0.500641 0.497926 0.158204
C6    C     C_1   0.748209 0.499523 0.503249 0.126906
C7    C     C_R   0.539666 0.952001 0.569800 0.192689
C8    C     C_R   0.470478 0.048034 0.425054 0.187944
C9    C     C_R   0.460386 0.951804 0.430452 0.185637
C10   C     C_R   0.529747 0.048394 0.575048 0.188396
C11   C     C_R   0.500034 0.903086 0.500113 -0.071275
C12   C     C_R   0.659143 0.499925 0.500403 0.604180
C13   C     C_R   0.500147 0.096997 0.500009 -0.071865
C14   C     C_1   0.500009 0.802632 0.500067 0.314382
C15   C     C_1   0.500075 0.197392 0.499987 0.348644
C16   C     C_R   0.499642 0.499774 0.328509 0.595746
C17   C     C_R   0.500190 0.500126 0.671481 0.591904
C18   C     C_R   0.568195 0.464902 0.815525 0.029840
C19   C     C_R   0.429334 0.532963 0.184807 0.048726
C20   C     C_R   0.499478 0.500559 0.768121 -0.043327
C21   C     C_R   0.499089 0.498848 0.231829 -0.041639
C22   C     C_R   0.430358 0.537385 0.813781 0.036527
C23   C     C_R   0.347220 0.516221 0.045907 0.243392
C24   C     C_R   0.567783 0.462030 0.185763 0.019923
C25   C     C_R   0.424594 0.523029 0.906382 -0.037096
C26   C     C_R   0.573486 0.476879 0.093366 -0.040029
C27   C     C_R   0.498945 0.500782 0.953445 -0.018344
C28   C     C_R   0.499158 0.499227 0.046452 -0.019339
C29   C     C_R   0.573494 0.481322 0.907348 -0.006159
C30   C     C_R   0.424436 0.517576 0.092671 -0.001245
C31   C     C_R   0.347291 0.525827 0.952861 0.066897
C32   C     C_R   0.650785 0.473583 0.046969 0.047087
C33   C     C_2   0.630072 0.404090 0.771932 0.645196
C34   C     C_R   0.650879 0.481569 0.953874 0.195348
C35   C     C_2   0.365289 0.590609 0.229080 0.635209
C36   C     C_2   0.367829 0.594606 0.766230 0.609991
C37   C     C_2   0.629714 0.403907 0.232825 0.615188
C38   C     C_2   0.265919 0.527362 0.904865 0.672942
C39   C     C_2   0.732208 0.471893 0.094871 0.652925
C40   C     C_R   0.956667 0.573939 0.541523 0.201677
C41   C     C_R   0.043231 0.426942 0.461263 0.146809
C42   C     C_R   0.043987 0.579975 0.527083 0.203507
C43   C     C_R   0.956185 0.420535 0.476510 0.156538
C44   C     C_R   0.913243 0.496622 0.510668 -0.062367
Cu1   Cu    Cu3+1 0.500000 0.589220 0.500000 1.153282
Cu2   Cu    Cu3+1 0.500000 0.410780 0.500000 1.184243
H1    H     H_    0.708561 0.381742 0.670294 0.364663
H2    H     H_    0.843736 0.308773 0.588888 0.361963
H3    H     H_    0.786699 0.666587 0.677735 0.393981
H4    H     H_    0.152673 0.437777 0.306046 0.374486
H5    H     H_    0.507611 0.232904 0.737208 0.388060
H6    H     H_    0.363314 0.749386 0.368192 0.373743
H7    H     H_    0.488914 0.234578 0.266603 0.388752
H8    H     H_    0.655444 0.755865 0.646463 0.370474
H9    H     H_    0.293549 0.703139 0.222783 0.386891
H10   H     H_    0.302674 0.711752 0.763763 0.385459
H11   H     H_    0.711979 0.390131 0.333491 0.377531
H12   H     H_    0.191844 0.470462 0.811583 0.376012
H13   H     H_    0.844677 0.411736 0.110846 0.380440
H14   H     H_    0.147641 0.394268 0.065025 0.399353
H15   H     H_    0.768319 0.637092 0.975053 0.365115
H16   H     H_    0.220080 0.736155 0.505471 0.401618
N1    N     N_1   0.500000 0.276710 0.500000 -0.130550
N2    N     N_1   0.500000 0.723290 0.500000 -0.159267
O1    O     O_R   0.380310 0.575320 0.500020 -0.472930
O2    O     O_R   0.667067 0.428697 0.692081 -0.648038
O3    O     O_2   0.335729 0.568581 0.300248 -0.486800
O4    O     O_R   0.337919 0.669956 0.187537 -0.606023
O5    O     O_2   0.334510 0.567575 0.698045 -0.493381
O6    O     O_R   0.346206 0.679225 0.801155 -0.618575
O7    O     O_2   0.645560 0.328331 0.203986 -0.417338
O8    O     O_R   0.671070 0.436025 0.308291 -0.664876
O9    O     O_2   0.213153 0.584274 0.923684 -0.374092
O10   O     O_R   0.249290 0.462534 0.839419 -0.630866
O11   O     O_2   0.747625 0.529259 0.151235 -0.451180
O12   O     O_R   0.619690 0.424680 0.499980 -0.470080
O13   O     O_R   0.791622 0.405616 0.074171 -0.557866
O14   O     O_2   0.277067 0.423480 0.180960 -0.232332
O15   O     O_2   0.200854 0.556501 0.125167 -0.201048
O16   O     O_3   0.199129 0.408749 0.031857 -0.452092
O17   O     O_2   0.795435 0.433095 0.875403 -0.130581
O18   O     O_2   0.724561 0.567285 0.815939 -0.254901
O19   O     O_3   0.803552 0.582913 0.964242 -0.423979
O20   O     O_2   0.046288 0.764608 0.532094 -0.121872
O21   O     O_2   0.132615 0.682581 0.640492 -0.221903
O22   O     O_3   0.182415 0.691083 0.477504 -0.495891
O23   O     O_R   0.619690 0.575320 0.499980 -0.480604
O24   O     O_2   0.868229 0.313693 0.366077 -0.183975
O25   O     O_2   0.956048 0.235913 0.475578 -0.127957
O26   O     O_3   0.818730 0.308495 0.528685 -0.499225
O27   O     O_2   0.956061 0.700506 0.672905 -0.130887
O28   O     O_2   0.871236 0.730767 0.540073 -0.186170
O29   O     O_3   0.817895 0.613870 0.654079 -0.483323
O30   O     O_2   0.132683 0.272716 0.459874 -0.152602
O31   O     O_2   0.042532 0.298710 0.330560 -0.141258
O32   O     O_3   0.178648 0.390165 0.343356 -0.450815
O33   O     O_2   0.540180 0.050479 0.755012 -0.136822
O34   O     O_R   0.380310 0.424680 0.500020 -0.481705
O35   O     O_2   0.639984 0.143293 0.672492 -0.188886
O36   O     O_3   0.486305 0.198588 0.685342 -0.515156
O37   O     O_2   0.329156 0.950618 0.314264 -0.108585
O38   O     O_2   0.450676 0.855585 0.279779 -0.217581
O39   O     O_3   0.348594 0.803861 0.403228 -0.520876
O40   O     O_2   0.460551 0.048552 0.245157 -0.133516
O41   O     O_2   0.360149 0.142256 0.327181 -0.182174
O42   O     O_3   0.513644 0.197259 0.314550 -0.496097
O43   O     O_2   0.670833 0.950271 0.685792 -0.118776
O44   O     O_2   0.547940 0.858425 0.721377 -0.219281
O45   O     O_R   0.499980 0.575350 0.370250 -0.486223
O46   O     O_3   0.649287 0.801759 0.599163 -0.496283
O47   O     O_R   0.500020 0.424650 0.629750 -0.481559
O48   O     O_R   0.500020 0.575350 0.629750 -0.480084
O49   O     O_R   0.499980 0.424650 0.370250 -0.477643
O50   O     O_2   0.649615 0.332667 0.807409 -0.419498
S1    S     S_3+6 0.254479 0.476931 0.099664 0.089759
S2    S     S_3+6 0.602929 0.891344 0.647853 0.123161
S3    S     S_3+6 0.744841 0.515553 0.898912 0.109640
S4    S     S_3+6 0.100683 0.682767 0.546618 0.120799
S5    S     S_3+6 0.900539 0.316650 0.459694 0.118186
S6    S     S_3+6 0.901110 0.658636 0.602892 0.130173
S7    S     S_3+6 0.098413 0.343392 0.398017 0.133739
S8    S     S_3+6 0.551434 0.109450 0.675098 0.123594
S9    S     S_3+6 0.396328 0.891132 0.353069 0.117167
S10   S     S_3+6 0.448874 0.108305 0.324870 0.128625

loop_
_geom_bond_atom_site_label_1
_geom_bond_atom_site_label_2
_ccdc_geom_bond_type
C25   C31   A    
C7    C10   A    
H6    O39   S    
C26   C32   A    
C8    C13   A    
O15   S1    D    
C27   C29   A    
O14   S1    D    
C3    C6    T    
O39   S9    S    
C16   O49   A    
H13   O13   S    
Cu2   O12   S    
H9    O4    S    
Cu1   O48   S    
Cu1   Cu2   S    
C7    C11   A    
H16   O22   S    
C33   O50   D    
O37   S9    D    
O32   S7    S    
C1    C5    S    
C39   O13   S    
Cu1   O23   S    
C24   C26   A    
C6    C12   S    
C11   C14   S    
Cu1   O45   S    
C2    C41   A    
O17   S3    D    
C17   C20   S    
H8    O46   S    
C32   C39   S    
C41   S7    S    
H7    O42   S    
O25   S5    D    
C8    C9    A    
C22   C25   A    
C33   O2    S    
C1    O1    A    
O29   S6    S    
C39   O11   D    
H1    O2    S    
C18   C20   A    
Cu2   O49   S    
O31   S7    D    
C34   S3    S    
C40   C42   A    
Cu2   O34   S    
H2    O26   S    
Cu2   O47   S    
C41   C43   A    
C17   O47   A    
C36   O6    S    
C16   O45   A    
C3    C44   S    
C43   S5    S    
C23   C30   A    
H15   O19   S    
C8    S10   S    
C29   C34   A    
O41   S10   D    
C32   C34   A    
C7    S2    S    
C2    C4    S    
C43   C44   A    
O33   S8    D    
O16   S1    S    
C35   O3    D    
C14   N2    T    
C24   C37   S    
O22   S4    S    
C18   C29   A    
O24   S5    D    
C9    C11   A    
O35   S8    D    
C40   S6    S    
C20   C22   A    
H10   O6    S    
C37   O7    D    
C13   C15   S    
Cu1   O1    S    
C21   C24   A    
O38   S9    D    
C17   O48   A    
O46   S2    S    
C36   O5    D    
H12   O10   S    
C38   O10   S    
H5    O36   S    
H14   O16   S    
C12   O23   A    
C19   C21   A    
C42   S4    S    
C4    C5    T    
C10   S8    S    
C10   C13   A    
C1    O34   A    
C16   C21   S    
O40   S10   D    
C25   C27   A    
C22   C36   S    
Cu1   N2    S    
C26   C28   A    
H4    O32   S    
C31   C38   S    
Cu2   N1    S    
O26   S5    S    
O44   S2    D    
C12   O12   A    
O28   S6    D    
C19   C35   S    
O19   S3    S    
C35   O4    S    
C2    C42   A    
C28   C30   A    
C9    S9    S    
O36   S8    S    
H11   O8    S    
O21   S4    D    
C18   C33   S    
O43   S2    D    
C23   S1    S    
O30   S7    D    
C40   C44   A    
O20   S4    D    
C37   O8    S    
O42   S10   S    
C27   C28   A    
C15   N1    T    
O27   S6    D    
O18   S3    D    
H3    O29   S    
C19   C30   A    
C23   C31   A    
C38   O9    D    
