data_mof_unit_10273.cif
_audit_creation_date              2012-12-10T16:55:49-0500
_audit_creation_method            fapswitch 2.2
_symmetry_space_group_name_H-M    P1
_symmetry_Int_Tables_number       1
_space_group_crystal_system       triclinic
_cell_length_a                    7.784912
_cell_length_b                    8.565415
_cell_length_c                    10.502655
_cell_angle_alpha                 90.890301
_cell_angle_beta                  85.550883
_cell_angle_gamma                 93.730249
_cell_volume                      696.699228415

loop_
_atom_site_label
_atom_site_type_symbol
_atom_type_description
_atom_site_fract_x
_atom_site_fract_y
_atom_site_fract_z
_atom_type_partial_charge
C1    C     C_R   0.545797 0.794687 0.496667 0.958484
C2    C     C_3   0.503306 0.500378 0.876599 -0.223252
C3    C     C_3   0.339772 0.511282 0.047537 0.469387
C4    C     C_3   0.660620 0.489458 0.952438 0.476894
C5    C     C_2   0.569830 0.958281 0.494613 -0.327114
C6    C     C_2   0.430173 0.041719 0.505436 -0.324774
C7    C     C_R   0.454204 0.205313 0.503353 0.961271
C8    C     C_R   0.501691 0.500211 0.742190 0.948884
C9    C     C_R   0.498370 0.499981 0.257813 0.947458
C10   C     C_3   0.440220 0.635093 0.962589 0.099941
C11   C     C_3   0.560304 0.365770 0.037451 0.172886
C12   C     C_3   0.601042 0.624457 0.039689 -0.360509
C13   C     C_3   0.399397 0.376149 0.960564 -0.338684
C14   C     C_3   0.496980 0.500183 0.123402 -0.170429
H1    H     H_    0.684093 0.723517 0.075165 0.210056
H2    H     H_    0.316366 0.277040 0.925150 0.215265
H3    H     H_    0.013635 0.382632 0.403900 0.219434
H4    H     H_    0.986367 0.617378 0.596092 0.197151
H5    H     H_    0.701664 0.009498 0.484116 0.187021
H6    H     H_    0.298338 0.990502 0.515937 0.187059
H7    H     H_    0.099640 0.534183 0.031010 0.374785
H8    H     H_    0.866010 0.579005 0.861556 0.334054
I1    I     I_    0.341290 0.845617 0.899663 -0.327346
I2    I     I_    0.660095 0.155482 0.100001 -0.262029
N1    N     N_2   0.950320 0.457950 0.465730 -0.150963
N2    N     N_2   0.049680 0.542050 0.534270 -0.158996
O1    O     O_R   0.389250 0.738570 0.508410 -0.610451
O2    O     O_3   0.828853 0.475268 0.898403 -0.725867
O3    O     O_R   0.610750 0.261430 0.491590 -0.609925
O4    O     O_R   0.678390 0.711620 0.486450 -0.633837
O5    O     O_R   0.321610 0.288380 0.513550 -0.631843
O6    O     O_R   0.355460 0.513510 0.697030 -0.605484
O7    O     O_R   0.644540 0.486490 0.302970 -0.603122
O8    O     O_R   0.644600 0.486560 0.675070 -0.610541
O9    O     O_R   0.355400 0.513440 0.324930 -0.581827
O10   O     O_3   0.172071 0.522928 0.103321 -0.705094
Zn1   Zn    Zn3+2 0.306940 0.517990 0.514670 1.002440
Zn2   Zn    Zn3+2 0.693060 0.482010 0.485330 0.999614

loop_
_geom_bond_atom_site_label_1
_geom_bond_atom_site_label_2
_ccdc_geom_bond_type
O3    Zn2   S    
C2    C4    S    
C9    C14   S    
N2    Zn1   S    
C6    C7    S    
C7    O3    A    
N1    Zn2   S    
C4    C12   S    
C6    H6    S    
O7    Zn2   S    
H4    N2    S    
C12   H1    S    
H3    N1    S    
H7    O10   S    
H8    O2    S    
O6    Zn1   S    
C4    C11   S    
C9    O7    A    
C11   C13   S    
C3    C14   S    
C10   C12   S    
C3    O10   S    
O1    Zn1   S    
C1    C5    S    
C1    O4    A    
C4    O2    S    
C12   C14   S    
C5    H5    S    
C5    C6    D    
C10   I1    S    
C11   C14   S    
C9    O9    A    
C7    O5    A    
C8    O6    A    
C11   I2    S    
O4    Zn2   S    
C1    O1    A    
C13   H2    S    
C3    C10   S    
C2    C13   S    
C8    O8    A    
O9    Zn1   S    
N1    N2    D    
O8    Zn2   S    
C2    C10   S    
C2    C8    S    
O5    Zn1   S    
C3    C13   S    
