data_mof_unit_7453.cif
_audit_creation_date              2012-12-10T17:12:32-0500
_audit_creation_method            fapswitch 2.2
_symmetry_space_group_name_H-M    P1
_symmetry_Int_Tables_number       1
_space_group_crystal_system       triclinic
_cell_length_a                    11.656075
_cell_length_b                    12.957579
_cell_length_c                    11.888915
_cell_angle_alpha                 100.023191
_cell_angle_beta                  92.0541
_cell_angle_gamma                 93.455394
_cell_volume                      1763.0538444

loop_
_atom_site_label
_atom_site_type_symbol
_atom_type_description
_atom_site_fract_x
_atom_site_fract_y
_atom_site_fract_z
_atom_type_partial_charge
C1    C     C_R   0.502433 0.299742 0.478091 0.771760
C2    C     C_R   0.496722 0.700248 0.521974 0.782412
C3    C     C_R   0.377299 0.413922 0.028754 -0.300072
C4    C     C_R   0.612734 0.597102 0.971715 -0.381925
C5    C     C_R   0.387676 0.422896 0.147218 0.322215
C6    C     C_R   0.601692 0.588507 0.852393 0.351554
C7    C     C_R   0.562418 0.528548 0.149268 0.284975
C8    C     C_R   0.442172 0.463287 0.846475 0.280759
C9    C     C_R   0.542025 0.533808 0.030601 -0.014664
C10   C     C_R   0.452413 0.470553 0.968120 -0.011282
C11   C     C_R   0.284500 0.499799 0.501309 0.807596
C12   C     C_R   0.715500 0.500172 0.498691 0.818358
C13   C     C_1   0.162775 0.500086 0.503333 -0.195647
C14   C     C_1   0.837237 0.500010 0.496625 -0.191691
C15   C     C_1   0.060034 0.500119 0.501691 -0.008017
C16   C     C_1   0.939985 0.500040 0.498259 -0.002793
C17   C     C_R   0.486876 0.813757 0.535297 -0.101976
C18   C     C_R   0.510853 0.186236 0.464848 -0.096279
C19   C     C_R   0.576071 0.019997 0.371202 -0.184387
C20   C     C_R   0.420662 0.979833 0.628900 -0.184760
C21   C     C_R   0.570716 0.128577 0.374917 0.133126
C22   C     C_R   0.427195 0.871256 0.625527 0.131230
C23   C     C_R   0.461579 0.136063 0.548357 -0.278282
C24   C     C_R   0.534669 0.864128 0.451394 -0.277257
C25   C     C_R   0.469558 0.029107 0.544590 0.121022
C26   C     C_R   0.526707 0.970962 0.455369 0.119336
Cu1   Cu    Cu3+1 0.508350 0.507730 0.615930 0.941729
Cu2   Cu    Cu3+1 0.491650 0.492270 0.384070 0.921247
H1    H     H_    0.578933 0.819868 0.382391 0.152149
H2    H     H_    0.416445 0.180733 0.616800 0.139415
H3    H     H_    0.619262 0.972475 0.303795 0.146755
H4    H     H_    0.377394 0.027188 0.696365 0.146139
H5    H     H_    0.306642 0.362316 0.986964 0.174369
H6    H     H_    0.677219 0.654225 0.017236 0.160268
N1    N     N_R   0.520920 0.519350 0.790130 -0.188765
N2    N     N_R   0.479080 0.480650 0.209870 -0.200679
O1    O     O_R   0.505930 0.354460 0.582000 -0.596511
O2    O     O_R   0.494070 0.645540 0.418000 -0.567698
O3    O     O_R   0.491820 0.341410 0.386200 -0.611133
O4    O     O_R   0.508180 0.658590 0.613800 -0.569392
O5    O     O_R   0.344250 0.506540 0.597900 -0.587480
O6    O     O_R   0.655750 0.493460 0.402100 -0.591227
O7    O     O_R   0.330140 0.493480 0.402100 -0.582339
O8    O     O_R   0.669860 0.506520 0.597900 -0.537587
C27   C     C_3   0.369321 0.815782 0.713998 -0.356081
C28   C     C_3   0.288864 0.880347 0.792785 -0.883615
H7    H     H_    0.338174 0.946223 0.850094 0.250709
H8    H     H_    0.221100 0.910870 0.741830 0.256718
H9    H     H_    0.246176 0.829488 0.847266 0.249533
H10   H     H_    0.316984 0.745350 0.668344 0.206579
H11   H     H_    0.436837 0.789505 0.768899 0.223797
C29   C     C_3   0.630084 0.183843 0.287071 -0.357599
C30   C     C_3   0.710900 0.118895 0.209069 -0.887026
H12   H     H_    0.777676 0.087762 0.260632 0.257458
H13   H     H_    0.661672 0.053430 0.151075 0.250072
H14   H     H_    0.754819 0.169663 0.155254 0.247901
H15   H     H_    0.563432 0.210567 0.231562 0.222650
H16   H     H_    0.682556 0.253963 0.333254 0.205928
C31   C     C_3   0.341868 0.394135 0.782226 -0.361111
C32   C     C_3   0.227863 0.447356 0.796946 -0.820976
H17   H     H_    0.236683 0.528084 0.777439 0.268327
H18   H     H_    0.160091 0.400899 0.738026 0.238224
H19   H     H_    0.198578 0.453308 0.885288 0.236468
H20   H     H_    0.353807 0.370413 0.691556 0.248910
H21   H     H_    0.334829 0.316546 0.809646 0.147808
C33   C     C_3   0.687931 0.550408 0.192496 -0.321907
C34   C     C_3   0.715716 0.660227 0.262588 -0.803199
H22   H     H_    0.675798 0.720319 0.220729 0.222785
H23   H     H_    0.686562 0.666443 0.350451 0.272115
H24   H     H_    0.810378 0.677962 0.269071 0.223158
H25   H     H_    0.719955 0.485596 0.230607 0.209242
H26   H     H_    0.745637 0.543317 0.119688 0.157490
N3    N     N_3   0.675003 0.653694 0.796086 -0.523601
H27   H     H_    0.760309 0.639706 0.815251 0.196856
H28   H     H_    0.662879 0.732074 0.830086 0.187535
N4    N     N_3   0.300622 0.365347 0.197275 -0.610496
H29   H     H_    0.237444 0.415011 0.228701 0.239534
H30   H     H_    0.334844 0.325955 0.258225 0.261245

loop_
_geom_bond_atom_site_label_1
_geom_bond_atom_site_label_2
_ccdc_geom_bond_type
C18   C21   A    
N3    H27   S    
C19   H3    S    
C30   H12   S    
C28   H9    S    
C31   H20   S    
C32   H19   S    
N4    H30   S    
C19   C21   A    
C24   C26   A    
C8    C31   S    
C20   C25   A    
C27   H11   S    
C15   C16   S    
C5    N2    A    
C6    N1    A    
C32   H18   S    
C7    N2    A    
C19   C26   A    
C2    O2    A    
C24   H1    S    
C12   O6    A    
Cu1   O8    S    
C33   H26   S    
C11   O7    A    
C9    C10   A    
C1    O1    A    
C33   C34   S    
C31   C32   S    
C2    C17   S    
N3    H28   S    
C28   H8    S    
C30   H13   S    
C4    H6    S    
C17   C24   A    
C18   C23   A    
C23   H2    S    
N4    H29   S    
C4    C6    A    
Cu2   O3    S    
Cu1   N1    S    
C25   C26   A    
C27   C28   S    
C34   H22   S    
C32   H17   S    
C34   H23   S    
C8    N1    A    
Cu1   O5    S    
C33   H25   S    
Cu2   O2    S    
Cu1   O4    S    
C1    C18   S    
C29   H16   S    
C20   C22   A    
C13   C15   T    
C14   C16   T    
C29   C30   S    
C6    N3    S    
C20   H4    S    
C30   H14   S    
C7    C9    A    
C28   H7    S    
C12   C14   S    
C3    C5    A    
Cu2   O7    S    
C17   C22   A    
C34   H24   S    
C5    N4    S    
C12   O8    A    
C3    C10   A    
C31   H21   S    
C7    C33   S    
C11   C13   S    
C27   H10   S    
Cu1   O1    S    
Cu2   O6    S    
C11   O5    A    
C23   C25   A    
C29   H15   S    
C1    O3    A    
C2    O4    A    
C22   C27   S    
Cu2   N2    S    
C8    C10   A    
Cu1   Cu2   S    
C3    H5    S    
C4    C9    A    
C21   C29   S    
