data_mof_unit_44691.cif
_audit_creation_date              2012-12-10T17:09:56-0500
_audit_creation_method            fapswitch 2.2
_symmetry_space_group_name_H-M    P1
_symmetry_Int_Tables_number       1
_space_group_crystal_system       triclinic
_cell_length_a                    10.806224
_cell_length_b                    13.065447
_cell_length_c                    11.694537
_cell_angle_alpha                 98.456102
_cell_angle_beta                  93.152985
_cell_angle_gamma                 92.056275
_cell_volume                      1629.0911733

loop_
_atom_site_label
_atom_site_type_symbol
_atom_type_description
_atom_site_fract_x
_atom_site_fract_y
_atom_site_fract_z
_atom_type_partial_charge
C1    C     C_R   0.509446 0.300159 0.479670 0.867499
C2    C     C_R   0.069662 0.526535 0.611681 0.037049
C3    C     C_R   0.130178 0.532844 0.507768 -0.171107
C4    C     C_R   0.057142 0.537982 0.404901 0.172653
C5    C     C_R   0.929670 0.521180 0.402967 -0.199695
C6    C     C_R   0.873272 0.493361 0.499396 -0.139335
C7    C     C_R   0.516048 0.813621 0.530612 -0.082385
C8    C     C_R   0.530533 0.188517 0.469706 -0.229084
C9    C     C_R   0.572443 0.024220 0.355514 -0.186367
C10   C     C_R   0.561664 0.130630 0.363763 0.089417
C11   C     C_R   0.523205 0.138064 0.568283 0.377551
C12   C     C_R   0.263776 0.514064 0.502377 0.867642
C13   C     C_R   0.517954 0.029794 0.554715 0.020098
C14   C     C_R   0.548998 0.972326 0.449227 0.028616
C15   C     C_R   0.559005 0.864665 0.441070 0.123222
C16   C     C_R   0.481244 0.871740 0.633308 -0.219090
C17   C     C_R   0.485060 0.978716 0.646432 -0.166761
C18   C     C_R   0.368389 0.416127 0.028921 -0.372219
C19   C     C_R   0.384345 0.418482 0.149513 0.712176
C20   C     C_R   0.561190 0.532728 0.153940 0.033731
C21   C     C_R   0.550295 0.530652 0.032110 -0.034984
C22   C     C_R   0.452621 0.469823 0.968673 -0.099405
C23   C     C_R   0.507670 0.700555 0.520052 0.830493
C24   C     C_R   0.442810 0.462051 0.846482 0.364720
C25   C     C_R   0.615451 0.581226 0.850836 -0.112297
C26   C     C_R   0.634019 0.587758 0.973634 0.368333
C27   C     C_R   0.737842 0.494035 0.499080 0.796209
C28   C     C_R   0.123730 0.560318 0.725211 0.204302
C29   C     C_R   0.071775 0.525894 0.820483 -0.150268
C30   C     C_R   0.964565 0.462148 0.804798 -0.191361
C31   C     C_R   0.900344 0.444095 0.696726 -0.154780
C32   C     C_R   0.946568 0.485988 0.601826 0.067559
Cu1   Cu    Cu3+1 0.509250 0.507730 0.615930 0.992623
Cu2   Cu    Cu3+1 0.490750 0.492270 0.384070 1.040448
H1    H     H_    0.458939 0.021194 0.727585 0.194138
H2    H     H_    0.675209 0.623362 0.801416 0.141276
H3    H     H_    0.288133 0.374294 0.984487 0.166304
H4    H     H_    0.637910 0.574801 0.204613 0.201517
H5    H     H_    0.113296 0.550109 0.907074 0.178411
H6    H     H_    0.926492 0.432795 0.877952 0.161544
H7    H     H_    0.814739 0.397670 0.688462 0.154667
H8    H     H_    0.874392 0.531394 0.325647 0.195003
H9    H     H_    0.452496 0.834628 0.704803 0.200932
H10   H     H_    0.595531 0.982662 0.273219 0.206265
N1    N     N_R   0.523180 0.519350 0.790130 -0.213563
N2    N     N_R   0.476820 0.480650 0.209890 -0.220365
O1    O     O_R   0.506570 0.354460 0.582000 -0.522261
O2    O     O_R   0.490940 0.341410 0.386200 -0.536694
O3    O     O_R   0.327470 0.506530 0.597920 -0.552869
O4    O     O_R   0.311840 0.493480 0.402120 -0.508205
O5    O     O_R   0.509060 0.658590 0.613800 -0.581016
O6    O     O_R   0.493430 0.645540 0.418000 -0.558977
O7    O     O_R   0.688160 0.506520 0.597880 -0.608423
O8    O     O_R   0.672530 0.493470 0.402080 -0.586662
I1    I     I_    0.125362 0.585186 0.252358 -0.349073
I2    I     I_    0.611089 0.193763 0.213230 -0.409971
O9    O     O_3   0.526166 0.194305 0.678556 -0.547682
C33   C     C_3   0.648716 0.195667 0.728659 0.080104
H11   H     H_    0.717373 0.224387 0.671690 0.126137
H12   H     H_    0.673398 0.116875 0.744862 0.146319
C34   C     C_3   0.659375 0.266771 0.844333 -0.738578
H13   H     H_    0.584819 0.246524 0.899891 0.268440
H14   H     H_    0.750883 0.258882 0.889475 0.201626
H15   H     H_    0.652436 0.348304 0.829978 0.233222
I3    I     I_    0.310561 0.348027 0.753140 -0.311121
O10   O     O_3   0.729723 0.647220 0.040796 -0.573725
C35   C     C_3   0.807038 0.704766 0.977577 0.057077
H16   H     H_    0.752385 0.760406 0.934285 0.151228
H17   H     H_    0.855976 0.652041 0.913272 0.151337
C36   C     C_3   0.905179 0.767137 0.059874 -0.680290
H18   H     H_    0.958992 0.714754 0.107970 0.271620
H19   H     H_    0.969568 0.808909 0.009988 0.201674
H20   H     H_    0.860830 0.824651 0.122385 0.264004
O11   O     O_3   0.303573 0.365523 0.211333 -0.538953
C37   C     C_3   0.262377 0.267076 0.151856 0.035597
H21   H     H_    0.337377 0.226638 0.104015 0.162436
H22   H     H_    0.181932 0.275112 0.090868 0.155033
C38   C     C_3   0.219020 0.200190 0.239261 -0.693064
H23   H     H_    0.143348 0.237884 0.288043 0.248950
H24   H     H_    0.183904 0.123212 0.193603 0.203875
H25   H     H_    0.297236 0.189141 0.301182 0.252376
I4    I     I_    0.251045 0.689705 0.766047 -0.392770
I5    I     I_    0.667005 0.786855 0.309945 -0.372052

loop_
_geom_bond_atom_site_label_1
_geom_bond_atom_site_label_2
_ccdc_geom_bond_type
C6    C32   A    
C21   C26   A    
C1    C8    S    
Cu1   N1    S    
C5    H8    S    
C12   O3    A    
O9    C33   S    
C19   N2    A    
C24   N1    A    
C21   C22   A    
C28   C29   A    
C18   H3    S    
C5    C6    A    
C38   H24   S    
C33   H12   S    
C2    C32   A    
C18   C19   A    
C34   H14   S    
C3    C12   S    
C31   C32   A    
C16   C17   A    
C36   H18   S    
Cu2   N2    S    
C10   I2    S    
C9    C10   A    
C33   C34   S    
C7    C15   A    
O10   C35   S    
C13   C14   A    
Cu1   O7    S    
C27   O8    A    
Cu2   O4    S    
O11   C37   S    
C28   I4    S    
C35   H16   S    
C26   O10   S    
C9    C14   A    
C38   H23   S    
C1    O1    A    
C15   I5    S    
C25   C26   A    
C35   H17   S    
C34   H15   S    
C37   H21   S    
C29   C30   A    
C20   H4    S    
C23   O5    A    
C6    C27   S    
C29   H5    S    
C36   H20   S    
Cu1   Cu2   S    
C30   H6    S    
C37   H22   S    
C16   H9    S    
C24   I3    S    
C7    C16   A    
Cu2   O8    S    
C4    I1    S    
Cu1   O1    S    
C22   C24   A    
Cu2   O2    S    
C3    C4    A    
C25   N1    A    
C9    H10   S    
C31   H7    S    
C18   C22   A    
C19   O11   S    
C4    C5    A    
C12   O4    A    
C27   O7    A    
C1    O2    A    
Cu1   O5    S    
Cu2   O6    S    
C13   C17   A    
C35   C36   S    
C2    C3    A    
C33   H11   S    
C11   C13   A    
C38   H25   S    
C23   O6    A    
C30   C31   A    
C8    C11   A    
C7    C23   S    
C34   H13   S    
C37   C38   S    
C2    C28   A    
C25   H2    S    
C20   C21   A    
C8    C10   A    
C14   C15   A    
C36   H19   S    
C17   H1    S    
C11   O9    S    
Cu1   O3    S    
C20   N2    A    
