data_mof_unit_14619.cif
_audit_creation_date              2012-12-10T17:13:38-0500
_audit_creation_method            fapswitch 2.2
_symmetry_space_group_name_H-M    P1
_symmetry_Int_Tables_number       1
_space_group_crystal_system       triclinic
_cell_length_a                    10.78457
_cell_length_b                    13.009337
_cell_length_c                    11.720149
_cell_angle_alpha                 100.879781
_cell_angle_beta                  95.300244
_cell_angle_gamma                 92.363186
_cell_volume                      1604.98071223

loop_
_atom_site_label
_atom_site_type_symbol
_atom_type_description
_atom_site_fract_x
_atom_site_fract_y
_atom_site_fract_z
_atom_type_partial_charge
C1    C     C_R   0.494262 0.298749 0.477251 0.839293
C2    C     C_3   0.877685 0.497973 0.502526 0.105802
C3    C     C_3   0.928841 0.592542 0.453991 -0.392461
C4    C     C_3   0.910564 0.393797 0.426661 -0.476963
C5    C     C_R   0.492702 0.816679 0.537086 -0.149251
C6    C     C_R   0.482656 0.184608 0.461531 -0.073425
C7    C     C_R   0.489725 0.012122 0.341054 0.001739
C8    C     C_R   0.494780 0.120979 0.353002 -0.245590
C9    C     C_R   0.456552 0.138979 0.555828 -0.223471
C10   C     C_R   0.455897 0.030312 0.546895 0.056611
C11   C     C_R   0.478662 0.966649 0.440256 0.105012
C12   C     C_R   0.259130 0.496465 0.498553 0.815415
C13   C     C_R   0.489678 0.859430 0.435574 -0.333085
C14   C     C_R   0.480044 0.882738 0.646367 0.421831
C15   C     C_R   0.439550 0.984925 0.644510 -0.156490
C16   C     C_R   0.373231 0.404369 0.016618 -0.168574
C17   C     C_R   0.392678 0.408324 0.139003 0.117930
C18   C     C_R   0.551258 0.543496 0.159373 0.019712
C19   C     C_R   0.542514 0.535833 0.035925 0.058939
C20   C     C_R   0.451077 0.467001 0.963502 0.003036
C21   C     C_R   0.442690 0.461220 0.839888 0.020352
C22   C     C_R   0.613915 0.584800 0.860580 0.189338
C23   C     C_R   0.501641 0.701936 0.522928 0.840915
C24   C     C_R   0.623857 0.594917 0.983204 -0.348139
C25   C     C_R   0.740239 0.500230 0.501259 0.787233
C26   C     C_3   0.083004 0.490280 0.622066 -0.374276
C27   C     C_3   0.942786 0.502961 0.627258 -0.382508
C28   C     C_3   0.072571 0.597160 0.464725 -0.474289
C29   C     C_3   0.052772 0.395506 0.409065 0.431572
C30   C     C_3   0.120021 0.493928 0.496906 0.070203
Cu1   Cu    Cu3+1 0.509350 0.507730 0.615930 0.975799
Cu2   Cu    Cu3+1 0.490650 0.492270 0.384070 0.953720
H1    H     H_    0.134247 0.554307 0.688322 0.186434
H2    H     H_    0.851868 0.377093 0.341094 0.150343
H3    H     H_    0.106046 0.610892 0.381576 0.188735
H4    H     H_    0.892357 0.585100 0.360608 0.183479
H5    H     H_    0.502085 0.809309 0.353035 0.189785
H6    H     H_    0.509043 0.155904 0.277877 0.166674
H7    H     H_    0.443158 0.188984 0.638277 0.167787
H8    H     H_    0.373011 0.408931 0.782664 0.136854
H9    H     H_    0.107988 0.414685 0.646836 0.210131
H10   H     H_    0.695856 0.647885 0.036975 0.138763
H11   H     H_    0.619650 0.598539 0.214912 0.126020
H12   H     H_    0.902578 0.440621 0.668668 0.181254
H13   H     H_    0.929974 0.579716 0.682953 0.207759
H14   H     H_    0.110021 0.665239 0.533634 0.189185
H15   H     H_    0.897049 0.667108 0.502733 0.174366
H16   H     H_    0.884744 0.330393 0.473201 0.164217
N1    N     N_R   0.523430 0.519360 0.790130 -0.202519
N2    N     N_R   0.476570 0.480640 0.209880 -0.210886
O1    O     O_R   0.506640 0.354460 0.582000 -0.595918
O2    O     O_R   0.490840 0.341410 0.386200 -0.586843
O3    O     O_R   0.325590 0.506510 0.597900 -0.596396
O4    O     O_R   0.309790 0.493450 0.402100 -0.580814
O5    O     O_R   0.509160 0.658590 0.613800 -0.524488
O6    O     O_R   0.493360 0.645540 0.418000 -0.600342
O7    O     O_R   0.690210 0.506550 0.597900 -0.590067
O8    O     O_R   0.674410 0.493490 0.402100 -0.598224
O9    O     O_3   0.506632 0.845220 0.750113 -0.562690
C31   C     C_3   0.558943 0.925409 0.844850 0.097555
H17   H     H_    0.484074 0.953479 0.899866 0.189756
H18   H     H_    0.605899 0.992962 0.816428 0.126438
C32   C     C_3   0.657309 0.884761 0.923208 -0.754653
H19   H     H_    0.742938 0.871226 0.878647 0.248850
H20   H     H_    0.683033 0.944964 0.003610 0.205492
H21   H     H_    0.620747 0.812529 0.948785 0.263282
C33   C     C_1   0.494259 0.949019 0.226372 0.208153
N3    N     N_1   0.496380 0.897638 0.134715 -0.307356
C34   C     C_1   0.374761 0.040103 0.738552 0.197807
N4    N     N_1   0.322653 0.083926 0.813362 -0.267899
C35   C     C_1   0.701094 0.644512 0.809989 0.316488
N5    N     N_1   0.771023 0.692842 0.768964 -0.335318
C36   C     C_1   0.272905 0.336430 0.946894 0.235444
N6    N     N_1   0.192135 0.282991 0.891465 -0.251883
C37   C     C_1   0.330800 0.328482 0.186717 0.344412
N7    N     N_1   0.281943 0.262336 0.222658 -0.297724
C38   C     C_1   0.065908 0.407020 0.286652 0.198278
N8    N     N_1   0.073654 0.416968 0.191437 -0.300573
O10   O     O_3   0.108931 0.303372 0.434109 -0.600101
C39   C     C_3   0.055163 0.208000 0.363651 0.072420
H22   H     H_    0.054489 0.208262 0.268912 0.169233
H23   H     H_    0.958458 0.190903 0.382482 0.132597
C40   C     C_3   0.130985 0.117905 0.390790 -0.732386
H24   H     H_    0.227566 0.128125 0.368085 0.267793
H25   H     H_    0.133817 0.115294 0.485178 0.249823
H26   H     H_    0.088051 0.042388 0.339050 0.195537

loop_
_geom_bond_atom_site_label_1
_geom_bond_atom_site_label_2
_ccdc_geom_bond_type
C32   H20   S    
C24   H10   S    
C36   N6    T    
C19   C20   A    
Cu2   O8    S    
C6    C9    A    
C21   N1    A    
C23   O6    A    
C38   N8    T    
C7    C11   A    
C14   O9    S    
C28   H14   S    
C26   C27   S    
C8    H6    S    
C31   C32   S    
C3    C28   S    
C10   C15   A    
C9    H7    S    
C31   H18   S    
C18   C19   A    
Cu2   O2    S    
C27   H12   S    
C40   H24   S    
C28   H3    S    
C16   C17   A    
C5    C23   S    
C2    C27   S    
C9    C10   A    
C13   H5    S    
C4    C29   S    
C27   H13   S    
C32   H21   S    
O9    C31   S    
C25   O7    A    
Cu1   N1    S    
C39   C40   S    
Cu2   O4    S    
C15   C34   S    
C4    H2    S    
C33   N3    T    
C7    C8    A    
O10   C39   S    
C39   H23   S    
C6    C8    A    
C16   C36   S    
C31   H17   S    
C2    C4    S    
C37   N7    T    
C29   C30   S    
C26   H1    S    
Cu1   Cu2   S    
C29   O10   S    
C16   C20   A    
Cu1   O3    S    
C1    O1    A    
Cu2   N2    S    
C5    C14   A    
C22   N1    A    
C40   H25   S    
C26   C30   S    
C22   C24   A    
C25   O8    A    
C22   C35   S    
C18   N2    A    
C4    H16   S    
C12   C30   S    
C5    C13   A    
C12   O3    A    
Cu1   O1    S    
C39   H22   S    
C17   N2    A    
C23   O5    A    
Cu1   O7    S    
C28   C30   S    
C19   C24   A    
C35   N5    T    
C18   H11   S    
C11   C13   A    
C21   H8    S    
C3    H4    S    
C3    H15   S    
C2    C3    S    
C2    C25   S    
C34   N4    T    
C1    O2    A    
C10   C11   A    
C7    C33   S    
C32   H19   S    
C40   H26   S    
C29   C38   S    
C20   C21   A    
C1    C6    S    
C17   C37   S    
C14   C15   A    
Cu1   O5    S    
Cu2   O6    S    
C12   O4    A    
C26   H9    S    
