data_mof_unit_19194.cif
_audit_creation_date              2012-12-11T17:44:06-0500
_audit_creation_method            fapswitch 2.2
_symmetry_space_group_name_H-M    P1
_symmetry_Int_Tables_number       1
_space_group_crystal_system       triclinic
_cell_length_a                    20.254038
_cell_length_b                    22.767248
_cell_length_c                    6.938774
_cell_angle_alpha                 89.999986
_cell_angle_beta                  87.087885
_cell_angle_gamma                 90.0
_cell_volume                      3195.53594464

loop_
_atom_site_label
_atom_site_type_symbol
_atom_type_description
_atom_site_fract_x
_atom_site_fract_y
_atom_site_fract_z
_atom_type_partial_charge
O1    O     O_R   0.751270 0.447300 0.600030 -0.544958
O2    O     O_R   0.248730 0.947300 0.399970 -0.544958
O3    O     O_R   0.613530 0.440160 0.952150 -0.542569
O4    O     O_R   0.386470 0.940160 0.047850 -0.542568
O5    O     O_R   0.613050 0.552700 0.122560 -0.552609
O6    O     O_R   0.386950 0.052700 0.877440 -0.552610
C1    C     C_R   0.591644 0.425371 0.786362 0.747783
C2    C     C_R   0.408355 0.925371 0.213638 0.747783
O7    O     O_R   0.750780 0.440350 0.929820 -0.505260
O8    O     O_R   0.249220 0.940350 0.070180 -0.505259
O9    O     O_R   0.751280 0.552900 0.100070 -0.504177
O10   O     O_R   0.248720 0.052900 0.899930 -0.504178
C3    C     C_R   0.774040 0.426360 0.757826 0.888095
C4    C     C_R   0.225960 0.926360 0.242174 0.888094
O11   O     O_R   0.613040 0.447100 0.622520 -0.551713
O12   O     O_R   0.386960 0.947100 0.377480 -0.551713
O13   O     O_3   0.682160 0.536920 0.777780 -0.361492
O14   O     O_3   0.317840 0.036920 0.222220 -0.361493
V1    V     V_3+5 0.682160 0.493150 0.052630 1.598583
V2    V     V_3+5 0.317840 0.993150 0.947370 1.598584
O15   O     O_R   0.750790 0.559840 0.429870 -0.501194
O16   O     O_R   0.249210 0.059840 0.570130 -0.501194
C5    C     C_R   0.773741 0.574326 0.257726 0.853439
C6    C     C_R   0.226259 0.074326 0.742274 0.853437
O17   O     O_R   0.613540 0.559650 0.452200 -0.547826
O18   O     O_R   0.386460 0.059650 0.547800 -0.547827
C7    C     C_R   0.591659 0.574427 0.286708 0.668335
C8    C     C_R   0.408340 0.074427 0.713291 0.668335
V3    V     V_3+5 0.682160 0.506850 0.552630 1.582326
V4    V     V_3+5 0.317840 0.006850 0.447370 1.582326
O19   O     O_3   0.682150 0.463080 0.277610 -0.377768
O20   O     O_3   0.317850 0.963080 0.722390 -0.377768
C9    C     C_R   0.579202 0.861572 0.225328 -0.157116
C10   C     C_R   0.420798 0.361572 0.774676 -0.157117
H1    H     H_    0.538173 0.948246 0.219210 0.138221
H2    H     H_    0.461827 0.448246 0.780794 0.138221
H3    H     H_    0.670352 0.778265 0.216358 0.117727
H4    H     H_    0.329648 0.278265 0.783647 0.117727
H5    H     H_    0.629458 0.878069 0.220809 0.134086
H6    H     H_    0.370542 0.378069 0.779195 0.134086
C11   C     C_R   0.462292 0.881882 0.217457 -0.163038
C12   C     C_R   0.537708 0.381881 0.782543 -0.163038
C13   C     C_R   0.472844 0.594899 0.329319 -0.280812
C14   C     C_R   0.527156 0.094899 0.670678 -0.280811
C15   C     C_R   0.419586 0.632818 0.358226 -0.200966
C16   C     C_R   0.580414 0.132818 0.641771 -0.200966
C17   C     C_R   0.427893 0.693407 0.340400 0.707168
C18   C     C_R   0.572107 0.193407 0.659597 0.707168
C19   C     C_R   0.490176 0.717672 0.279759 -0.042995
C20   C     C_R   0.509824 0.217671 0.720241 -0.042995
C21   C     C_R   0.545754 0.678497 0.265548 -0.011356
C22   C     C_R   0.454246 0.178498 0.734453 -0.011355
C23   C     C_R   0.500575 0.779543 0.247623 -0.027065
C24   C     C_R   0.499425 0.279543 0.752377 -0.027065
C25   C     C_R   0.566640 0.800997 0.235198 0.060754
C26   C     C_R   0.433360 0.300997 0.764804 0.060755
C27   C     C_R   0.620018 0.762009 0.230069 -0.146868
C28   C     C_R   0.379982 0.262009 0.769934 -0.146869
C29   C     C_R   0.609770 0.701752 0.238281 -0.128483
C30   C     C_R   0.390230 0.201752 0.761721 -0.128486
C31   C     C_R   0.448869 0.821152 0.221979 0.634047
C32   C     C_R   0.551131 0.321152 0.778020 0.634047
C33   C     C_R   0.527373 0.901631 0.222661 -0.274387
C34   C     C_R   0.472627 0.401631 0.777342 -0.274387
C35   C     C_R   0.536331 0.616881 0.288205 -0.069887
C36   C     C_R   0.463669 0.116881 0.711795 -0.069887
H7    H     H_    0.465028 0.548139 0.349053 0.139670
H8    H     H_    0.534971 0.048139 0.650944 0.139670
H9    H     H_    0.371634 0.615133 0.403336 0.158486
H10   H     H_    0.628366 0.115133 0.596659 0.158486
H11   H     H_    0.652837 0.673503 0.229766 0.101559
H12   H     H_    0.347163 0.173503 0.770238 0.101559
C37   C     C_R   0.171159 0.882711 0.259334 -0.321028
C38   C     C_R   0.828841 0.382711 0.740666 -0.321023
C39   C     C_R   0.129836 0.872547 0.105582 0.506011
C40   C     C_R   0.870164 0.372547 0.894417 0.506006
C41   C     C_R   0.077467 0.832478 0.124898 0.493553
C42   C     C_R   0.922533 0.332477 0.875102 0.493548
C43   C     C_R   0.066216 0.799988 0.297640 0.107463
C44   C     C_R   0.933782 0.299987 0.702362 0.107472
C45   C     C_R   0.107942 0.809243 0.450873 0.431666
C46   C     C_R   0.892055 0.309240 0.549131 0.431670
C47   C     C_R   0.158969 0.851551 0.432285 -0.330979
C48   C     C_R   0.841029 0.351550 0.567717 -0.330986
C49   C     C_R   0.894832 0.695995 0.383135 0.356919
C50   C     C_R   0.105166 0.195993 0.616865 0.356920
C51   C     C_R   0.843639 0.654131 0.399115 0.466525
C52   C     C_R   0.156359 0.154130 0.600884 0.466521
C53   C     C_R   0.933242 0.701729 0.207073 0.138034
C54   C     C_R   0.066757 0.201729 0.792928 0.138039
N1    N     N_2   0.013259 0.758675 0.326842 -0.137779
N2    N     N_2   0.986739 0.258673 0.673161 -0.137772
N3    N     N_2   0.986473 0.742600 0.177465 -0.149528
N4    N     N_2   0.013526 0.242599 0.822537 -0.149524
C55   C     C_R   0.828202 0.618671 0.240421 -0.402226
C56   C     C_R   0.171798 0.118671 0.759579 -0.402225
H13   H     H_    0.189173 0.860285 0.553217 0.216169
H14   H     H_    0.810824 0.360283 0.446787 0.216161
C57   C     C_R   0.865604 0.626102 0.065035 0.588820
C58   C     C_R   0.134396 0.126102 0.934966 0.588819
C59   C     C_R   0.916801 0.667289 0.049530 -0.276239
C60   C     C_R   0.083199 0.167289 0.950472 -0.276243
H15   H     H_    0.944875 0.671828 0.913220 0.237494
H16   H     H_    0.055125 0.171828 0.086783 0.237498
O21   O     O_3   0.908030 0.729547 0.542670 -0.498842
C61   C     C_3   0.867942 0.780166 0.542452 -0.070348
H17   H     H_    0.814510 0.768643 0.556753 0.124513
H18   H     H_    0.878424 0.807054 0.410366 0.118916
H19   H     H_    0.879288 0.807612 0.668657 0.178381
O22   O     O_3   0.091967 0.229545 0.457329 -0.498843
C62   C     C_3   0.132057 0.280162 0.457534 -0.070360
H20   H     H_    0.185489 0.268637 0.443199 0.124533
H21   H     H_    0.121586 0.307049 0.589630 0.118901
H22   H     H_    0.120704 0.307611 0.331341 0.178387
O23   O     O_3   0.094075 0.779174 0.622430 -0.481029
C63   C     C_3   0.151683 0.753279 0.691264 -0.038010
H23   H     H_    0.180246 0.785812 0.772339 0.139759
H24   H     H_    0.183354 0.732808 0.573565 0.113175
H25   H     H_    0.136534 0.717869 0.794060 0.152334
O24   O     O_3   0.905921 0.279168 0.377578 -0.481035
C64   C     C_3   0.848310 0.253281 0.308733 -0.038023
H26   H     H_    0.819757 0.285817 0.227639 0.139766
H27   H     H_    0.816630 0.232818 0.426429 0.113185
H28   H     H_    0.863455 0.217866 0.205954 0.152333
F1    F     F_    0.854050 0.592619 0.908451 -0.594778
F2    F     F_    0.145951 0.092620 0.091551 -0.594776
F3    F     F_    0.036835 0.827239 0.976185 -0.580088
F4    F     F_    0.963165 0.327239 0.023815 -0.580091
F5    F     F_    0.138263 0.903086 0.938008 -0.631065
F6    F     F_    0.861739 0.403088 0.061989 -0.631064
F7    F     F_    0.386966 0.804059 0.181259 -0.647428
F8    F     F_    0.613035 0.304059 0.818739 -0.647429
F9    F     F_    0.376615 0.727089 0.407575 -0.637766
F10   F     F_    0.623385 0.227090 0.592422 -0.637768
F11   F     F_    0.808296 0.649517 0.570060 -0.610335
F12   F     F_    0.191701 0.149515 0.429937 -0.610336

loop_
_geom_bond_atom_site_label_1
_geom_bond_atom_site_label_2
_ccdc_geom_bond_type
C9    C25   A    
C52   C56   A    
C10   C26   A    
O13   V3    S    
C14   C36   A    
C62   H20   S    
C46   O24   S    
O4    C2    A    
V1    O19   S    
C57   F1    S    
O9    V1    S    
C9    H5    S    
C38   C40   A    
C5    C55   S    
C58   F2    S    
C18   F10   S    
C50   O22   S    
C40   C42   A    
O3    C1    A    
C6    C56   S    
C60   H16   S    
C42   C44   A    
C27   C29   A    
C61   H17   S    
C30   H12   S    
C28   C30   A    
O23   C63   S    
C63   H23   S    
O14   V2    S    
C21   C35   A    
C15   C17   A    
O9    C5    A    
O7    C3    A    
O22   C62   S    
C54   C60   A    
C64   H28   S    
C22   C30   A    
H4    C28   S    
C23   C31   A    
O7    V1    S    
O6    C8    A    
O8    V2    S    
C19   C21   A    
C51   C55   A    
C20   C22   A    
C54   N4    S    
O14   V4    S    
C11   C31   A    
C12   C32   A    
C43   N1    S    
C41   F3    S    
C9    C33   A    
C2    O12   A    
C23   C25   A    
C42   F4    S    
C59   H15   S    
O5    C7    A    
C17   F9    S    
C37   C39   A    
O10   V2    S    
C40   F6    S    
C49   O21   S    
O1    V3    S    
C45   C47   A    
C14   C16   A    
O11   V3    S    
C16   C18   A    
C49   C51   A    
O17   V3    S    
C24   C26   A    
C16   H10   S    
C50   C52   A    
C15   H9    S    
C4    C37   S    
C32   F8    S    
C2    C11   S    
C52   F12   S    
C44   C46   A    
C50   C54   A    
C43   C45   A    
C49   C53   A    
C1    O11   A    
C24   C32   A    
O15   V3    S    
C44   N2    S    
C8    C36   S    
C1    C12   S    
C7    C35   S    
C51   F11   S    
N1    N3    D    
C13   C15   A    
C13   C35   A    
C45   O23   S    
C10   C34   A    
C41   C43   A    
C62   H21   S    
C20   C24   A    
O3    V1    S    
C39   C41   A    
C64   H26   S    
C63   H24   S    
C57   C59   A    
C17   C19   A    
O18   V4    S    
C46   C48   A    
O15   C5    A    
O8    C4    A    
O16   C6    A    
C14   H8    S    
O1    C3    A    
C11   C33   A    
C12   C34   A    
C22   C36   A    
O24   C64   S    
C58   C60   A    
V2    O20   S    
O16   V4    S    
C53   C59   A    
C38   C48   A    
O5    V1    S    
O17   C7    A    
O6    V2    S    
O21   C61   S    
O10   C6    A    
O18   C8    A    
C63   H25   S    
O2    V4    S    
C48   H14   S    
C25   C27   A    
V3    O19   S    
V4    O20   S    
N2    N4    D    
C61   H18   S    
C19   C23   A    
C56   C58   A    
C18   C20   A    
O13   V1    S    
C26   C28   A    
C62   H22   S    
C55   C57   A    
C53   N3    S    
O2    C4    A    
C64   H27   S    
C31   F7    S    
O4    V2    S    
C21   C29   A    
C3    C38   S    
C13   H7    S    
C47   H13   S    
C10   H6    S    
H1    C33   S    
H2    C34   S    
O12   V4    S    
C37   C47   A    
H3    C27   S    
C39   F5    S    
C29   H11   S    
C61   H19   S    
