data_mof_unit_60787.cif
_audit_creation_date              2012-12-10T18:40:10-0500
_audit_creation_method            fapswitch 2.2
_symmetry_space_group_name_H-M    P1
_symmetry_Int_Tables_number       1
_space_group_crystal_system       triclinic
_cell_length_a                    15.789969
_cell_length_b                    11.574159
_cell_length_c                    10.789926
_cell_angle_alpha                 90.00025
_cell_angle_beta                  89.898635
_cell_angle_gamma                 89.999447
_cell_volume                      1971.91644146

loop_
_atom_site_label
_atom_site_type_symbol
_atom_type_description
_atom_site_fract_x
_atom_site_fract_y
_atom_site_fract_z
_atom_type_partial_charge
C1    C     C_1   0.500000 0.161056 0.500000 -0.183273
C2    C     C_1   0.500000 0.940839 0.500000 0.005100
C3    C     C_3   0.971832 0.414394 0.569747 0.127321
C4    C     C_3   0.028169 0.585597 0.430245 0.127291
C5    C     C_3   0.028160 0.400801 0.455383 0.084856
C6    C     C_3   0.971842 0.599191 0.544610 0.084863
C7    C     C_1   0.248972 0.500075 0.500588 -0.177968
C8    C     C_1   0.751028 0.499922 0.499411 -0.177962
C9    C     C_3   0.027417 0.514157 0.619593 -0.275025
C10   C     C_3   0.972584 0.485834 0.380400 -0.275026
C11   C     C_3   0.083579 0.500190 0.502293 0.118110
C12   C     C_1   0.500000 0.838944 0.500000 -0.183272
C13   C     C_3   0.916422 0.499802 0.497700 0.118126
C14   C     C_1   0.174027 0.500135 0.501402 -0.025464
C15   C     C_1   0.825974 0.499859 0.498594 -0.025415
C16   C     C_1   0.499996 0.500000 0.069791 0.040799
C17   C     C_1   0.500004 0.500000 0.930209 0.040800
C18   C     C_R   0.500000 0.281191 0.500000 0.906930
C19   C     C_R   0.500000 0.718809 0.500000 0.906933
C20   C     C_R   0.337483 0.500008 0.500109 0.906181
C21   C     C_R   0.662517 0.499992 0.499891 0.906177
C22   C     C_1   0.500000 0.059161 0.500000 0.005099
H1    H     H_    0.950183 0.474426 0.283716 0.155715
H2    H     H_    0.093962 0.735676 0.414649 0.182882
H3    H     H_    0.049817 0.525564 0.716277 0.155715
H4    H     H_    0.008613 0.241763 0.381859 0.179775
H5    H     H_    0.096233 0.308301 0.330432 0.194571
H6    H     H_    0.991397 0.758296 0.617966 0.179760
H7    H     H_    0.903868 0.691710 0.669662 0.194563
H8    H     H_    0.991354 0.273223 0.677424 0.195763
H9    H     H_    0.906040 0.264313 0.585339 0.182904
H10   H     H_    0.008648 0.726766 0.322563 0.195755
N1    N     N_1   0.499990 0.500000 0.180630 -0.078721
N2    N     N_1   0.500010 0.500000 0.819370 -0.078720
N3    N     N_3   0.060644 0.290918 0.410014 -0.458902
N4    N     N_3   0.939357 0.709074 0.589978 -0.458881
N5    N     N_3   0.939226 0.319536 0.644525 -0.449576
N6    N     N_3   0.060776 0.680453 0.355465 -0.449578
O1    O     O_R   0.499990 0.334450 0.602530 -0.608360
O2    O     O_R   0.500010 0.665550 0.397470 -0.608360
O3    O     O_R   0.500010 0.334450 0.397470 -0.609162
O4    O     O_R   0.499990 0.665550 0.602530 -0.609160
O5    O     O_R   0.376780 0.500000 0.602510 -0.611327
O6    O     O_R   0.623220 0.500000 0.397490 -0.611327
O7    O     O_R   0.376780 0.500000 0.397450 -0.608341
O8    O     O_R   0.623220 0.500000 0.602550 -0.608336
Zn1   Zn    Zn3+2 0.500000 0.500000 0.636920 0.988084
Zn2   Zn    Zn3+2 0.500000 0.500000 0.363080 0.988081

loop_
_geom_bond_atom_site_label_1
_geom_bond_atom_site_label_2
_ccdc_geom_bond_type
C2    C22   S    
H2    N6    S    
C18   O1    A    
C3    C9    S    
H10   N6    S    
C16   N1    T    
C21   O6    A    
C20   O7    A    
C3    C13   S    
C19   O4    A    
C3    C5    S    
C2    C12   T    
C6    C9    S    
C8    C21   S    
C9    H3    S    
C1    C22   T    
C4    C11   S    
C9    C11   S    
H7    N4    S    
H6    N4    S    
C1    C18   S    
C5    N3    S    
C12   C19   S    
O1    Zn1   S    
O3    Zn2   S    
C6    N4    S    
C5    C11   S    
C8    C15   T    
O4    Zn1   S    
C13   C15   S    
C10   H1    S    
C11   C14   S    
O7    Zn2   S    
C17   N2    T    
C4    C10   S    
H9    N5    S    
H4    N3    S    
C5    C10   S    
C20   O5    A    
C3    N5    S    
C4    C6    S    
C21   O8    A    
C19   O2    A    
C18   O3    A    
O2    Zn2   S    
N1    Zn2   S    
O8    Zn1   S    
N2    Zn1   S    
H5    N3    S    
O5    Zn1   S    
C7    C20   S    
C7    C14   T    
O6    Zn2   S    
H8    N5    S    
C4    N6    S    
C16   C17   S    
C6    C13   S    
C10   C13   S    
