data_mof_unit_37148.cif
_audit_creation_date              2012-12-10T20:30:07-0500
_audit_creation_method            fapswitch 2.2
_symmetry_space_group_name_H-M    P1
_symmetry_Int_Tables_number       1
_space_group_crystal_system       triclinic
_cell_length_a                    10.034862
_cell_length_b                    10.879194
_cell_length_c                    13.116806
_cell_angle_alpha                 91.803505
_cell_angle_beta                  71.396992
_cell_angle_gamma                 88.978773
_cell_volume                      1355.89995287

loop_
_atom_site_label
_atom_site_type_symbol
_atom_type_description
_atom_site_fract_x
_atom_site_fract_y
_atom_site_fract_z
_atom_type_partial_charge
C1    C     C_R   0.500410 0.739506 0.497024 0.928303
C2    C     C_R   0.440942 0.412491 0.974770 -0.118129
C3    C     C_R   0.481622 0.399869 0.862053 -0.068893
C4    C     C_R   0.544007 0.405222 0.025892 0.013458
C5    C     C_R   0.667940 0.334880 0.975687 -0.193884
C6    C     C_R   0.699887 0.299848 0.866230 -0.297694
C7    C     C_R   0.610072 0.334869 0.807855 0.581642
C8    C     C_R   0.530489 0.475938 0.120644 0.492620
C9    C     C_R   0.731472 0.360045 0.138754 0.315430
C10   C     C_R   0.382204 0.435582 0.811438 -0.327843
C11   C     C_R   0.375063 0.940040 0.515543 -0.108240
C12   C     C_R   0.424682 0.479429 0.700278 0.984458
C13   C     C_R   0.499961 0.872381 0.498855 -0.225975
C14   C     C_R   0.623327 0.936008 0.494739 0.554879
C15   C     C_R   0.615763 0.062664 0.514849 -0.287706
C16   C     C_R   0.495386 0.129832 0.516596 -0.153976
C17   C     C_R   0.375040 0.066172 0.521378 -0.151456
C18   C     C_3   0.270186 0.077262 0.462614 0.739981
C19   C     C_3   0.265837 0.935039 0.458978 0.925114
C20   C     C_R   0.906690 0.593327 0.549845 -0.002766
C21   C     C_R   0.953903 0.416749 0.438727 0.522697
C22   C     C_R   0.098457 0.420106 0.435000 0.285269
C23   C     C_R   0.498917 0.261009 0.504879 0.911152
C24   C     C_R   0.047354 0.593922 0.549435 -0.040559
C25   C     C_3   0.000827 0.643351 0.664041 0.091759
C26   C     C_3   0.847786 0.643741 0.662829 0.803380
C27   C     C_R   0.577757 0.492167 0.295698 0.918593
C28   C     C_R   0.756984 0.304926 0.036190 0.504086
C29   C     C_R   0.620834 0.449363 0.180873 -0.397608
C30   C     C_R   0.238740 0.429499 0.870924 0.345349
C31   C     C_R   0.196307 0.430149 0.982900 0.396156
C32   C     C_R   0.296443 0.409091 0.033918 0.349386
H1    H     H_    0.707790 0.108139 0.519144 0.173733
H2    H     H_    0.040820 0.735620 0.674184 0.193234
H3    H     H_    0.796531 0.249402 0.823910 0.136663
N1    N     N_R   0.856940 0.500860 0.500710 -0.163647
N2    N     N_R   0.142580 0.500820 0.500710 -0.175157
O1    O     O_R   0.385310 0.683210 0.499990 -0.572633
O2    O     O_R   0.614650 0.683240 0.500000 -0.550779
O3    O     O_R   0.328390 0.499940 0.653610 -0.555127
O4    O     O_R   0.557730 0.499980 0.653620 -0.515482
O5    O     O_R   0.385350 0.316760 0.500000 -0.664524
O6    O     O_R   0.614690 0.316790 0.500010 -0.563372
O7    O     O_R   0.442270 0.500020 0.346380 -0.654449
O8    O     O_R   0.671610 0.500060 0.346390 -0.602261
Zn1   Zn    Zn3+2 0.346870 0.499980 0.499990 0.987186
Zn2   Zn    Zn3+2 0.653130 0.500020 0.500010 1.062528
O9    O     O_3   0.815793 0.322595 0.196739 -0.660276
H4    H     H_    0.858276 0.397978 0.214850 0.407481
O10   O     O_3   0.143883 0.132115 0.530288 -0.842621
H5    H     H_    0.161216 0.219811 0.541739 0.358236
O11   O     O_3   0.314770 0.131941 0.359888 -0.626036
C33   C     C_3   0.456622 0.108695 0.294909 -0.298357
H6    H     H_    0.507802 0.025790 0.314649 0.172526
H7    H     H_    0.519761 0.190224 0.298714 0.179604
H8    H     H_    0.459711 0.095656 0.210017 0.180063
O12   O     O_3   0.147043 0.879527 0.529888 -0.658837
C34   C     C_3   0.019918 0.909157 0.511106 -0.190456
H9    H     H_    0.982711 0.824599 0.481789 0.220062
H10   H     H_    0.024726 0.981629 0.452904 0.147182
H11   H     H_    0.941519 0.941516 0.588275 0.227583
O13   O     O_3   0.322410 0.872940 0.356727 -0.647781
C35   C     C_3   0.237958 0.889114 0.289629 -0.394844
H12   H     H_    0.305488 0.873594 0.204766 0.202238
H13   H     H_    0.190109 0.982388 0.294672 0.175799
H14   H     H_    0.154846 0.819837 0.306445 0.159806
O14   O     O_3   0.911809 0.336651 0.372058 -0.556915
C36   C     C_3   0.935920 0.213624 0.393274 -0.127276
H15   H     H_    0.866213 0.155720 0.362944 0.163153
H16   H     H_    0.043801 0.181044 0.347563 0.214033
H17   H     H_    0.914262 0.198901 0.480633 0.124857
O15   O     O_3   0.191834 0.344828 0.359183 -0.711688
H18   H     H_    0.284602 0.353565 0.366885 0.413037
O16   O     O_3   0.026025 0.560333 0.735306 -0.702458
H19   H     H_    0.996122 0.477927 0.717606 0.372621
O17   O     O_3   0.759952 0.560037 0.730479 -0.758195
H20   H     H_    0.760044 0.579194 0.804895 0.330318
O18   O     O_3   0.783726 0.761265 0.665023 -0.596999
C37   C     C_3   0.739100 0.815445 0.770025 -0.346683
H21   H     H_    0.822055 0.810233 0.809421 0.144201
H22   H     H_    0.641401 0.772677 0.820225 0.203121
H23   H     H_    0.713792 0.914266 0.764811 0.188728
O19   O     O_3   0.868626 0.221277 0.999615 -0.715109
H24   H     H_    0.846885 0.159184 0.950934 0.303965
O20   O     O_3   0.473224 0.594352 0.128113 -0.627433
C38   C     C_3   0.335429 0.605116 0.200890 -0.218729
H25   H     H_    0.336949 0.664690 0.269844 0.241974
H26   H     H_    0.289169 0.518808 0.235343 0.239247
H27   H     H_    0.265684 0.648133 0.160539 0.139818
O21   O     O_3   0.139891 0.405332 0.821224 -0.529394
C39   C     C_3   0.150990 0.279380 0.789111 -0.179547
H28   H     H_    0.139867 0.219278 0.858355 0.170570
H29   H     H_    0.251946 0.257124 0.724309 0.145721
H30   H     H_    0.064659 0.258247 0.756194 0.170610
O22   O     O_3   0.253946 0.355897 0.132948 -0.561217
C40   C     C_3   0.249940 0.227321 0.115505 -0.184550
H31   H     H_    0.352406 0.188103 0.061583 0.102451
H32   H     H_    0.163730 0.203539 0.082757 0.190561
H33   H     H_    0.228861 0.182492 0.193117 0.223638
O23   O     O_3   0.055452 0.436562 0.042350 -0.528249
C41   C     C_3   0.007173 0.559733 0.044265 -0.257443
H34   H     H_    0.007105 0.586656 0.963182 0.217959
H35   H     H_    0.070374 0.624549 0.076150 0.114900
H36   H     H_    0.897256 0.569402 0.098690 0.163468
O24   O     O_3   0.637881 0.292565 0.702664 -0.765841
H37   H     H_    0.731248 0.249531 0.677304 0.311748
O25   O     O_3   0.753794 0.877430 0.463400 -0.590747
C42   C     C_3   0.802428 0.864733 0.349756 -0.372672
H38   H     H_    0.905391 0.814193 0.323908 0.171218
H39   H     H_    0.818088 0.956028 0.312434 0.155990
H40   H     H_    0.730023 0.810177 0.318346 0.176976

loop_
_geom_bond_atom_site_label_1
_geom_bond_atom_site_label_2
_ccdc_geom_bond_type
C35   H13   S    
C41   H34   S    
C27   C29   S    
O22   C40   S    
C4    C8    A    
O12   C34   S    
C18   O11   S    
C21   N1    A    
C33   H6    S    
C42   H38   S    
O3    Zn1   S    
C11   C19   S    
C26   O18   S    
C23   O5    A    
O19   H24   S    
C8    C29   A    
C8    O20   S    
C3    C7    A    
C5    C6    A    
C38   H26   S    
C19   O13   S    
C34   H10   S    
C15   C16   A    
C40   H33   S    
C23   O6    A    
C6    H3    S    
N1    Zn2   S    
C2    C32   A    
C25   O16   S    
O5    Zn1   S    
C27   O7    A    
C11   C17   A    
C20   C24   A    
C36   H15   S    
C40   H32   S    
C26   O17   S    
O25   C42   S    
C7    O24   S    
C9    C29   A    
C25   H2    S    
C27   O8    A    
C34   H11   S    
O8    Zn2   S    
C35   H14   S    
C41   H35   S    
C21   C22   A    
C21   O14   S    
C28   O19   S    
C22   O15   S    
O7    Zn1   S    
C24   N2    A    
C33   H7    S    
O16   H19   S    
O14   C36   S    
C24   C25   S    
C39   H28   S    
C37   H22   S    
O18   C37   S    
C16   C17   A    
O10   H5    S    
C34   H9    S    
O20   C38   S    
C22   N2    A    
C19   O12   S    
C37   H21   S    
C12   O3    A    
C2    C4    A    
C12   O4    A    
C39   H29   S    
C5    C28   A    
C10   C30   A    
C30   O21   S    
C40   H31   S    
O13   C35   S    
C17   C18   S    
O4    Zn2   S    
C31   O23   S    
O17   H20   S    
C10   C12   S    
C1    O1    A    
O9    H4    S    
C41   H36   S    
C1    C13   S    
O11   C33   S    
C18   O10   S    
O2    Zn2   S    
C33   H8    S    
C14   O25   S    
C38   H25   S    
C31   C32   A    
O15   H18   S    
C38   H27   S    
C37   H23   S    
C6    C7    A    
C16   C23   S    
O24   H37   S    
C42   H40   S    
C2    C3    A    
C25   C26   S    
C3    C10   A    
C39   H30   S    
C11   C13   A    
O21   C39   S    
C30   C31   A    
C20   C26   S    
C36   H17   S    
O23   C41   S    
C42   H39   S    
O1    Zn1   S    
C1    O2    A    
C35   H12   S    
C20   N1    A    
C4    C5    A    
C32   O22   S    
C9    O9    S    
C36   H16   S    
C18   C19   S    
C14   C15   A    
N2    Zn1   S    
C13   C14   A    
O6    Zn2   S    
C15   H1    S    
C9    C28   A    
