data_mof_unit_12233.cif
_audit_creation_date              2012-12-11T15:39:25-0500
_audit_creation_method            fapswitch 2.2
_symmetry_space_group_name_H-M    P1
_symmetry_Int_Tables_number       1
_space_group_crystal_system       triclinic
_cell_length_a                    6.960816
_cell_length_b                    15.15029
_cell_length_c                    16.570402
_cell_angle_alpha                 95.439555
_cell_angle_beta                  89.674121
_cell_angle_gamma                 89.887957
_cell_volume                      1739.58480803

loop_
_atom_site_label
_atom_site_type_symbol
_atom_type_description
_atom_site_fract_x
_atom_site_fract_y
_atom_site_fract_z
_atom_type_partial_charge
O1    O     O_R   0.633330 0.174290 0.828230 -0.533656
O2    O     O_R   0.366670 0.825710 0.171770 -0.539845
O3    O     O_R   0.301450 0.154140 0.662030 -0.543364
O4    O     O_R   0.698550 0.845860 0.337970 -0.542409
O5    O     O_R   0.133140 0.325730 0.671770 -0.530958
O6    O     O_R   0.866860 0.674270 0.328230 -0.529548
C1    C     C_R   0.471683 0.131528 0.633704 0.753872
C2    C     C_R   0.528324 0.868414 0.366344 0.758527
O7    O     O_R   0.303490 0.163670 0.827000 -0.537304
O8    O     O_R   0.696510 0.836330 0.173000 -0.537522
O9    O     O_R   0.135190 0.335320 0.837920 -0.541136
O10   O     O_R   0.864810 0.664680 0.162080 -0.535919
C3    C     C_R   0.472129 0.142844 0.853613 0.707307
C4    C     C_R   0.527806 0.856321 0.145697 0.702347
O11   O     O_R   0.631280 0.164690 0.662080 -0.539357
O12   O     O_R   0.368720 0.835310 0.337920 -0.537955
O13   O     O_3   0.467420 0.306310 0.753380 -0.369096
O14   O     O_3   0.532580 0.693690 0.246620 -0.368480
V1    V     V_3+5 0.191790 0.239560 0.749370 1.418916
V2    V     V_3+5 0.808210 0.760440 0.250630 1.412771
O15   O     O_R   0.805590 0.345870 0.837970 -0.541412
O16   O     O_R   0.194410 0.654130 0.162030 -0.553132
C5    C     C_R   0.974137 0.368418 0.866362 0.719991
C6    C     C_R   0.026309 0.632159 0.133177 0.687380
O17   O     O_R   0.803560 0.336340 0.672990 -0.534426
O18   O     O_R   0.196440 0.663660 0.327010 -0.532493
C7    C     C_R   0.972554 0.356880 0.646144 0.726289
C8    C     C_R   0.027446 0.643140 0.353873 0.734266
V3    V     V_3+5 0.692030 0.260450 0.750630 1.427401
V4    V     V_3+5 0.307970 0.739550 0.249370 1.406364
O19   O     O_3   0.966260 0.193700 0.746610 -0.371027
O20   O     O_3   0.033740 0.806300 0.253390 -0.370931
C9    C     C_1   0.982939 0.419123 0.583924 -0.195201
C10   C     C_1   0.017051 0.580931 0.416121 -0.198123
C11   C     C_1   0.993371 0.470227 0.531240 0.008888
C12   C     C_1   0.006615 0.529843 0.468819 0.008213
C13   C     C_3   0.827526 0.518672 0.031938 -0.233590
C14   C     C_3   0.176700 0.484123 0.965046 -0.224817
C15   C     C_3   0.884470 0.529527 0.942652 0.077535
C16   C     C_3   0.120308 0.472976 0.054835 0.065664
H1    H     H_    0.683959 0.532907 0.059692 0.146733
H2    H     H_    0.319660 0.471561 0.936234 0.145101
C17   C     C_3   0.985376 0.438667 0.936401 -0.217694
C18   C     C_3   0.018099 0.564157 0.061166 -0.229792
C19   C     C_3   0.931956 0.427949 0.025177 0.440173
C20   C     C_3   0.072604 0.574875 0.971879 0.447522
C21   C     C_3   0.676629 0.012568 0.534268 -0.372994
C22   C     C_3   0.323383 0.987307 0.465836 -0.372565
C23   C     C_3   0.562554 0.924140 0.523756 0.457315
C24   C     C_3   0.437458 0.075729 0.476348 0.457094
H3    H     H_    0.821186 0.023871 0.561020 0.123535
H4    H     H_    0.178831 0.976015 0.439077 0.123791
C25   C     C_3   0.511910 0.939017 0.436127 -0.144686
C26   C     C_3   0.488100 0.060863 0.563975 -0.143729
C27   C     C_3   0.622399 0.027666 0.445722 0.100742
C28   C     C_3   0.377607 0.972208 0.554386 0.100629
C29   C     C_1   0.481503 0.079954 0.915362 -0.209579
C30   C     C_1   0.517672 0.917920 0.082909 -0.199127
C31   C     C_1   0.492299 0.028554 0.967787 0.002365
C32   C     C_1   0.506556 0.968783 0.030059 -0.002192
C33   C     C_3   0.746789 0.558194 0.878254 -0.319273
C34   C     C_3   0.649596 0.646784 0.904007 -0.719363
H5    H     H_    0.578056 0.645465 0.963956 0.227109
H6    H     H_    0.755761 0.701311 0.906699 0.225968
H7    H     H_    0.539088 0.660206 0.858666 0.237203
H8    H     H_    0.827232 0.562851 0.820736 0.181438
H9    H     H_    0.633975 0.506830 0.867247 0.182077
C35   C     C_3   0.258118 0.443464 0.119137 -0.386798
C36   C     C_3   0.404259 0.374726 0.084203 -0.703588
H10   H     H_    0.500860 0.357100 0.133304 0.247228
H11   H     H_    0.335684 0.313412 0.057074 0.196906
H12   H     H_    0.491272 0.402242 0.036452 0.250261
H13   H     H_    0.340114 0.501699 0.145694 0.202483
H14   H     H_    0.174318 0.417078 0.168696 0.178602
O21   O     O_3   0.836523 0.355376 0.054732 -0.567880
C37   C     C_3   0.953529 0.279195 0.049624 0.084276
H15   H     H_    0.042089 0.279816 0.105102 0.142020
H16   H     H_    0.046723 0.272748 0.994579 0.108128
C38   C     C_3   0.825741 0.197934 0.046545 -0.707660
H17   H     H_    0.730303 0.197384 0.993290 0.229011
H18   H     H_    0.915005 0.136796 0.041118 0.181569
H19   H     H_    0.736437 0.199417 0.102440 0.218647
O22   O     O_3   0.153300 0.645613 0.933251 -0.558062
C39   C     C_3   0.131611 0.726931 0.981066 0.093968
H20   H     H_    0.239598 0.731529 0.030297 0.135071
H21   H     H_    0.984308 0.735578 0.007184 0.105636
C40   C     C_3   0.168108 0.802451 0.928688 -0.716615
H22   H     H_    0.065634 0.798655 0.877348 0.220559
H23   H     H_    0.148363 0.866996 0.965519 0.186576
H24   H     H_    0.317235 0.798582 0.904394 0.223197
O23   O     O_3   0.605252 0.839178 0.547210 -0.556302
C41   C     C_3   0.802717 0.831628 0.561764 0.060549
H25   H     H_    0.844170 0.877823 0.614957 0.123412
H26   H     H_    0.888266 0.845187 0.507231 0.119089
C42   C     C_3   0.845592 0.737705 0.581599 -0.686364
H27   H     H_    0.792678 0.689544 0.532141 0.231241
H28   H     H_    0.002767 0.728563 0.588410 0.179964
H29   H     H_    0.772617 0.724781 0.639081 0.220634
O24   O     O_3   0.394731 0.160677 0.452875 -0.556523
C43   C     C_3   0.197123 0.168345 0.438706 0.062311
H30   H     H_    0.112052 0.154674 0.493337 0.119060
H31   H     H_    0.155154 0.122290 0.385500 0.123091
C44   C     C_3   0.154148 0.262355 0.419161 -0.691465
H32   H     H_    0.226420 0.275379 0.361554 0.218060
H33   H     H_    0.996897 0.271607 0.412733 0.179068
H34   H     H_    0.207792 0.310371 0.468580 0.232146
C45   C     C_3   0.760010 0.062177 0.383955 -0.339885
C46   C     C_3   0.664636 0.071533 0.302396 -0.707327
H35   H     H_    0.611347 0.006645 0.275083 0.203089
H36   H     H_    0.542966 0.119094 0.309435 0.248003
H37   H     H_    0.771335 0.096789 0.260195 0.204518
H38   H     H_    0.811691 0.128236 0.408920 0.184607
H39   H     H_    0.883935 0.016114 0.374742 0.162911
C47   C     C_3   0.239971 0.937704 0.616157 -0.341789
C48   C     C_3   0.335354 0.928264 0.697702 -0.702295
H40   H     H_    0.456759 0.880559 0.690650 0.248570
H41   H     H_    0.389024 0.993100 0.724966 0.201546
H42   H     H_    0.228561 0.903148 0.739946 0.206942
H43   H     H_    0.116117 0.983804 0.625402 0.162680
H44   H     H_    0.188168 0.871675 0.591172 0.185093

loop_
_geom_bond_atom_site_label_1
_geom_bond_atom_site_label_2
_ccdc_geom_bond_type
V4    O20   S    
C40   H22   S    
O13   V3    S    
C45   H38   S    
C35   H14   S    
C42   H27   S    
C37   C38   S    
O4    C2    A    
V1    O19   S    
C47   C48   S    
C42   H29   S    
C21   C23   S    
C7    C9    S    
O9    V1    S    
C24   O24   S    
C24   C26   S    
C41   H25   S    
C39   H21   S    
C14   H2    S    
O3    C1    A    
C36   H10   S    
C29   C31   T    
C3    C29   S    
O12   V4    S    
C48   H40   S    
C5    C17   S    
C46   H35   S    
C36   H11   S    
O7    C3    A    
C45   H39   S    
C34   H6    S    
C9    C11   T    
O5    C7    A    
C33   H8    S    
O7    V1    S    
O6    C8    A    
C11   C12   S    
O8    V2    S    
C35   C36   S    
C48   H41   S    
C45   C46   S    
C39   C40   S    
O3    V1    S    
O14   V4    S    
C10   C12   T    
C47   H43   S    
C22   C24   S    
C8    C10   S    
C31   C32   S    
C2    O12   A    
C16   C19   S    
C23   O23   S    
C4    C30   S    
C43   H31   S    
C18   C20   S    
O11   V3    S    
C25   C27   S    
O15   C5    A    
O17   V3    S    
C22   C25   S    
C15   C33   S    
C26   C28   S    
C37   H15   S    
O8    C4    A    
O23   C41   S    
C38   H18   S    
C21   H3    S    
C1    O11   A    
C35   H13   S    
O15   V3    S    
C41   C42   S    
C38   H17   S    
C27   C45   S    
C36   H12   S    
O21   C37   S    
C34   H5    S    
C33   H9    S    
O22   C39   S    
C16   C18   S    
C48   H42   S    
O10   V2    S    
O1    V3    S    
C44   H33   S    
C39   H20   S    
C17   C19   S    
C15   C20   S    
O18   V4    S    
C21   C26   S    
C6    C18   S    
O16   C6    A    
O1    C3    A    
C13   C19   S    
C21   C27   S    
V2    O20   S    
C22   C28   S    
O16   V4    S    
C34   H7    S    
C37   H16   S    
C2    C25   S    
C38   H19   S    
C15   C17   S    
C42   H28   S    
O5    V1    S    
O17   C7    A    
C23   C28   S    
O6    V2    S    
O10   C6    A    
O18   C8    A    
C24   C27   S    
C46   H37   S    
O2    V4    S    
C19   O21   S    
C13   C18   S    
C40   H23   S    
C14   C17   S    
C13   C15   S    
O24   C43   S    
C14   C16   S    
C41   H26   S    
C23   C25   S    
O9    C5    A    
C43   H30   S    
O13   V1    S    
C46   H36   S    
C44   H34   S    
O14   V2    S    
C43   C44   S    
C13   H1    S    
C33   C34   S    
O2    C4    A    
C14   C20   S    
C20   O22   S    
O4    V2    S    
C22   H4    S    
V3    O19   S    
C16   C35   S    
C40   H24   S    
C44   H32   S    
C28   C47   S    
C1    C26   S    
C30   C32   T    
C47   H44   S    
