data_mof_unit_6372.cif
_audit_creation_date              2012-12-10T17:42:36-0500
_audit_creation_method            fapswitch 2.2
_symmetry_space_group_name_H-M    P1
_symmetry_Int_Tables_number       1
_space_group_crystal_system       triclinic
_cell_length_a                    9.946851
_cell_length_b                    10.62125
_cell_length_c                    13.118997
_cell_angle_alpha                 91.562435
_cell_angle_beta                  69.697348
_cell_angle_gamma                 89.816462
_cell_volume                      1299.28590771

loop_
_atom_site_label
_atom_site_type_symbol
_atom_type_description
_atom_site_fract_x
_atom_site_fract_y
_atom_site_fract_z
_atom_type_partial_charge
C1    C     C_R   0.500964 0.739205 0.497403 0.857476
C2    C     C_R   0.435847 0.487023 0.984199 0.086993
C3    C     C_R   0.458323 0.446113 0.876425 0.019470
C4    C     C_R   0.542625 0.460149 0.028974 0.107974
C5    C     C_R   0.655460 0.373628 0.975065 0.165999
C6    C     C_R   0.666836 0.322227 0.873560 -0.270737
C7    C     C_R   0.570681 0.359067 0.824139 -0.167319
C8    C     C_R   0.539483 0.516831 0.126673 -0.264909
C9    C     C_R   0.738366 0.386465 0.128232 -0.217584
C10   C     C_R   0.367246 0.492825 0.823678 -0.239197
C11   C     C_R   0.466435 0.862858 0.313048 -0.178312
C12   C     C_R   0.419658 0.495928 0.704442 0.879087
C13   C     C_R   0.449667 0.925789 0.226186 -0.144356
C14   C     C_R   0.451164 0.056821 0.225698 -0.131224
C15   C     C_R   0.469085 0.125320 0.312193 -0.186993
C16   C     C_R   0.484770 0.062891 0.401467 0.090749
C17   C     C_R   0.483687 0.930926 0.401831 0.100285
C18   C     C_R   0.504169 0.871343 0.490261 -0.089434
C19   C     C_R   0.530527 0.938111 0.573863 -0.211406
C20   C     C_R   0.531211 0.066734 0.573626 -0.205522
C21   C     C_R   0.505675 0.128109 0.489738 -0.092536
C22   C     C_R   0.798337 0.672028 0.637485 -0.138430
C23   C     C_R   0.501581 0.260666 0.497087 0.853372
C24   C     C_R   0.838821 0.757495 0.703403 -0.230375
C25   C     C_R   0.978200 0.756856 0.702828 -0.161686
C26   C     C_R   0.077735 0.670273 0.636692 -0.096732
C27   C     C_R   0.041522 0.584280 0.567269 0.126333
C28   C     C_R   0.897139 0.584599 0.567405 0.174683
C29   C     C_R   0.958532 0.419352 0.435302 -0.123123
C30   C     C_R   0.101409 0.419383 0.435324 -0.104947
C31   C     C_R   0.580121 0.497368 0.296016 0.840396
C32   C     C_R   0.753198 0.337838 0.024992 -0.240757
C33   C     C_R   0.628937 0.474244 0.179540 -0.054123
C34   C     C_R   0.235093 0.550796 0.885752 0.527805
C35   C     C_R   0.206093 0.579047 0.995947 -0.241235
C36   C     C_R   0.306035 0.550595 0.044092 -0.293177
H1    H     H_    0.806759 0.350886 0.169956 0.155475
H2    H     H_    0.467862 0.761138 0.309022 0.141578
H3    H     H_    0.436872 0.872650 0.158605 0.135925
H4    H     H_    0.439685 0.105561 0.157699 0.142479
H5    H     H_    0.472687 0.226785 0.307471 0.145999
H6    H     H_    0.548641 0.118770 0.640132 0.138310
H7    H     H_    0.929545 0.353403 0.382338 0.143650
H8    H     H_    0.688709 0.677490 0.644606 0.201366
H9    H     H_    0.760921 0.823773 0.756147 0.150069
H10   H     H_    0.008781 0.821955 0.755648 0.166492
H11   H     H_    0.180800 0.670393 0.644405 0.232125
H12   H     H_    0.751035 0.254549 0.831760 0.147491
H13   H     H_    0.179296 0.353381 0.382372 0.148915
H14   H     H_    0.837559 0.269298 0.985922 0.140189
H15   H     H_    0.462774 0.590436 0.166787 0.137818
H16   H     H_    0.275882 0.574646 0.129585 0.163556
H17   H     H_    0.107329 0.627176 0.043902 0.160946
H18   H     H_    0.582420 0.315447 0.746002 0.162574
H19   H     H_    0.547696 0.890380 0.640468 0.137163
N1    N     N_R   0.856860 0.501200 0.500990 -0.116572
N2    N     N_R   0.142450 0.501280 0.501020 -0.119382
O1    O     O_R   0.385310 0.683220 0.500000 -0.641174
O2    O     O_R   0.614640 0.683250 0.500010 -0.626248
O3    O     O_R   0.328400 0.499950 0.653610 -0.578564
O4    O     O_R   0.557730 0.499970 0.653620 -0.637618
O5    O     O_R   0.385360 0.316750 0.499990 -0.615555
O6    O     O_R   0.614690 0.316780 0.500000 -0.617296
O7    O     O_R   0.442270 0.500030 0.346380 -0.620555
O8    O     O_R   0.671600 0.500050 0.346390 -0.608259
Zn1   Zn    Zn3+2 0.346880 0.499980 0.499990 0.937561
Zn2   Zn    Zn3+2 0.653120 0.500020 0.500010 0.928422
O9    O     O_3   0.139389 0.588512 0.837030 -0.628894
C37   C     C_3   0.015983 0.513551 0.874434 -0.292365
H20   H     H_    0.951096 0.539359 0.960108 0.177332
H21   H     H_    0.043639 0.411114 0.865329 0.154373
H22   H     H_    0.947718 0.531046 0.824999 0.206164

loop_
_geom_bond_atom_site_label_1
_geom_bond_atom_site_label_2
_ccdc_geom_bond_type
C37   H22   S    
C2    C4    A    
C24   C25   A    
C31   C33   S    
C16   C21   A    
C29   C30   A    
C29   N1    A    
C11   H2    S    
N1    Zn2   S    
O4    Zn2   S    
C20   H6    S    
C19   C20   A    
C36   H16   S    
N2    Zn1   S    
C4    C8    A    
C5    C32   A    
C23   O6    A    
C2    C3    A    
C1    C18   S    
O3    Zn1   S    
C10   C34   A    
C3    C10   A    
C22   C28   A    
C13   C14   A    
C29   H7    S    
C9    C33   A    
C12   O4    A    
C11   C13   A    
C8    H15   S    
C32   H14   S    
C26   C27   A    
C6    C7    A    
C6    H12   S    
C26   H11   S    
C24   H9    S    
C10   C12   S    
C9    H1    S    
C25   C26   A    
C30   H13   S    
O1    Zn1   S    
C25   H10   S    
C17   C18   A    
C3    C7    A    
C22   C24   A    
C8    C33   A    
C1    O2    A    
C21   C23   S    
C28   N1    A    
C5    C6    A    
O6    Zn2   S    
C13   H3    S    
C35   H17   S    
O5    Zn1   S    
C14   H4    S    
C15   C16   A    
C12   O3    A    
C30   N2    A    
C4    C5    A    
C2    C36   A    
C20   C21   A    
C15   H5    S    
C31   O8    A    
C34   C35   A    
C27   N2    A    
C19   H19   S    
C27   C28   A    
C37   H21   S    
C14   C15   A    
C18   C19   A    
C22   H8    S    
C37   H20   S    
C7    H18   S    
O2    Zn2   S    
C9    C32   A    
C1    O1    A    
C34   O9    S    
C31   O7    A    
O9    C37   S    
C23   O5    A    
C11   C17   A    
C35   C36   A    
C16   C17   A    
O8    Zn2   S    
O7    Zn1   S    
