data_mof_unit_41444.cif
_audit_creation_date              2012-12-10T18:33:29-0500
_audit_creation_method            fapswitch 2.2
_symmetry_space_group_name_H-M    P1
_symmetry_Int_Tables_number       1
_space_group_crystal_system       triclinic
_cell_length_a                    8.724753
_cell_length_b                    15.1184
_cell_length_c                    13.906297
_cell_angle_alpha                 89.037933
_cell_angle_beta                  98.218432
_cell_angle_gamma                 90.751221
_cell_volume                      1815.10047846

loop_
_atom_site_label
_atom_site_type_symbol
_atom_type_description
_atom_site_fract_x
_atom_site_fract_y
_atom_site_fract_z
_atom_type_partial_charge
C1    C     C_R   0.496126 0.329674 0.500367 0.854751
C2    C     C_R   0.496797 0.670191 0.498681 0.846562
C3    C     C_R   0.620277 0.541131 0.118630 -0.263673
C4    C     C_R   0.397338 0.445989 0.883126 -0.283627
C5    C     C_R   0.616459 0.541501 0.219354 0.026579
C6    C     C_R   0.396907 0.448639 0.782143 0.026853
C7    C     C_R   0.385699 0.455998 0.200017 0.694371
C8    C     C_R   0.602289 0.553239 0.798170 0.697844
C9    C     C_R   0.380034 0.459819 0.098037 -0.361680
C10   C     C_R   0.598407 0.556861 0.899484 -0.353473
C11   C     C_R   0.499553 0.500987 0.054687 0.092614
C12   C     C_R   0.498615 0.501043 0.944958 0.106268
C13   C     C_R   0.203693 0.499935 0.475019 0.939192
C14   C     C_R   0.796317 0.500023 0.524988 0.870729
C15   C     C_2   0.037636 0.499982 0.461373 -0.294683
C16   C     C_2   0.962398 0.499866 0.538654 -0.334093
C17   C     C_R   0.435813 0.087962 0.564471 -0.203492
C18   C     C_R   0.445061 0.909091 0.414822 -0.209930
C19   C     C_R   0.419486 0.179649 0.564397 0.445800
C20   C     C_R   0.428737 0.817033 0.414307 0.435859
C21   C     C_R   0.497858 0.232523 0.501079 -0.157993
C22   C     C_R   0.498802 0.767184 0.496130 -0.161625
C23   C     C_R   0.582134 0.191184 0.435734 -0.246423
C24   C     C_R   0.576968 0.811203 0.577204 -0.230820
C25   C     C_R   0.591989 0.099517 0.434267 -0.132607
C26   C     C_R   0.587539 0.902918 0.577569 -0.140800
C27   C     C_R   0.520494 0.048043 0.499607 0.039901
C28   C     C_R   0.522735 0.951799 0.496137 0.040962
Cu1   Cu    Cu3+1 0.500000 0.499990 0.596430 1.032285
Cu2   Cu    Cu3+1 0.500000 0.500010 0.403570 1.030938
H1    H     H_    0.977125 0.500189 0.387381 0.177650
H2    H     H_    0.022937 0.499605 0.612646 0.170811
H3    H     H_    0.377900 0.046713 0.612997 0.186763
H4    H     H_    0.391718 0.948376 0.353486 0.183941
H5    H     H_    0.641682 0.230003 0.385982 0.171289
H6    H     H_    0.630912 0.774519 0.640411 0.205612
H7    H     H_    0.656118 0.068712 0.382845 0.161381
H8    H     H_    0.645893 0.935929 0.641344 0.166157
H9    H     H_    0.719001 0.572090 0.092677 0.154938
H10   H     H_    0.317573 0.400390 0.910795 0.143802
H11   H     H_    0.708302 0.574665 0.266221 0.166400
H12   H     H_    0.313323 0.409337 0.736169 0.209038
H13   H     H_    0.280496 0.430768 0.054544 0.145710
H14   H     H_    0.671415 0.604955 0.940779 0.149699
N1    N     N_R   0.500000 0.500020 0.258690 -0.214846
N2    N     N_R   0.500000 0.499980 0.741310 -0.217495
O1    O     O_R   0.500010 0.371450 0.581430 -0.524797
O2    O     O_R   0.499990 0.628550 0.418570 -0.525163
O3    O     O_R   0.500010 0.371460 0.418560 -0.592506
O4    O     O_R   0.499990 0.628540 0.581440 -0.562883
O5    O     O_R   0.274840 0.499990 0.562640 -0.594948
O6    O     O_R   0.725160 0.500010 0.437360 -0.606639
O7    O     O_R   0.274840 0.500000 0.399770 -0.517236
O8    O     O_R   0.725160 0.500000 0.600230 -0.557699
S1    S     S_3+6 0.294325 0.222427 0.641258 -0.018553
O9    O     O_2   0.210973 0.302476 0.595908 -0.325649
O10   O     O_2   0.176410 0.153131 0.659959 -0.299055
O11   O     O_3   0.401757 0.248767 0.747279 -0.543694
H15   H     H_    0.328771 0.246939 0.795708 0.361554
S2    S     S_3+6 0.310939 0.768817 0.313584 0.010926
O12   O     O_2   0.205976 0.699502 0.348682 -0.314354
O13   O     O_2   0.213782 0.838146 0.255945 -0.283347
O14   O     O_3   0.425126 0.722101 0.241394 -0.517023
H16   H     H_    0.353491 0.688455 0.193227 0.370816
O15   O     O_3   0.270531 0.412071 0.241062 -0.560453
C29   C     C_3   0.276966 0.320587 0.223570 -0.303426
H17   H     H_    0.205685 0.284951 0.272069 0.200638
H18   H     H_    0.396997 0.294648 0.240269 0.159099
H19   H     H_    0.227185 0.305424 0.147509 0.154375
O16   O     O_3   0.698906 0.609187 0.753889 -0.567317
C30   C     C_3   0.855084 0.594455 0.793051 -0.327922
H20   H     H_    0.929869 0.624120 0.742639 0.194087
H21   H     H_    0.882716 0.522655 0.800385 0.159121
H22   H     H_    0.885058 0.627750 0.863935 0.164610

loop_
_geom_bond_atom_site_label_1
_geom_bond_atom_site_label_2
_ccdc_geom_bond_type
C2    C22   S    
C30   H22   S    
C29   H18   S    
C11   C12   S    
C18   C28   A    
C1    C21   S    
O16   C30   S    
C26   H8    S    
C7    O15   S    
C18   H4    S    
Cu2   N1    S    
C8    O16   S    
Cu1   N2    S    
S1    O9    D    
C4    H10   S    
C2    O2    A    
C3    C5    A    
C13   C15   S    
C29   H17   S    
C3    H9    S    
C30   H20   S    
C5    N1    A    
C24   H6    S    
Cu2   O7    S    
S2    O13   D    
C15   H1    S    
C9    C11   A    
Cu1   Cu2   S    
C17   H3    S    
Cu1   O1    S    
S2    O14   S    
C10   C12   A    
C22   C24   A    
Cu2   O2    S    
C14   O8    A    
Cu2   O3    S    
C24   C26   A    
C13   O7    A    
Cu1   O4    S    
S1    O10   D    
C21   C23   A    
Cu1   O5    S    
C25   C27   A    
C23   H5    S    
C14   C16   S    
C20   S2    S    
C9    H13   S    
C29   H19   S    
C4    C12   A    
Cu1   O8    S    
C14   O6    A    
C10   H14   S    
O14   H16   S    
C17   C27   A    
C7    N1    A    
C30   H21   S    
C23   C25   A    
C3    C11   A    
C18   C20   A    
C4    C6    A    
O15   C29   S    
C6    H12   S    
S1    O11   S    
C19   S1    S    
C27   C28   S    
C7    C9    A    
Cu2   O6    S    
C16   H2    S    
C17   C19   A    
C5    H11   S    
C6    N2    A    
C8    N2    A    
C25   H7    S    
O11   H15   S    
C13   O5    A    
C26   C28   A    
C2    O4    A    
C8    C10   A    
C1    O1    A    
C15   C16   D    
C20   C22   A    
S2    O12   D    
C19   C21   A    
C1    O3    A    
