data_mof_unit_13778.cif
_audit_creation_date              2012-12-10T18:27:25-0500
_audit_creation_method            fapswitch 2.2
_symmetry_space_group_name_H-M    P1
_symmetry_Int_Tables_number       1
_space_group_crystal_system       triclinic
_cell_length_a                    14.870003
_cell_length_b                    14.121545
_cell_length_c                    27.380055
_cell_angle_alpha                 90.217507
_cell_angle_beta                  92.580806
_cell_angle_gamma                 89.92772
_cell_volume                      5743.59057909

loop_
_atom_site_label
_atom_site_type_symbol
_atom_type_description
_atom_site_fract_x
_atom_site_fract_y
_atom_site_fract_z
_atom_type_partial_charge
C1    C     C_R   0.326842 0.499990 0.498991 0.928191
C2    C     C_R   0.391810 0.566423 0.873875 -0.066583
C3    C     C_3   0.470458 0.337078 0.781184 0.056718
C4    C     C_3   0.493722 0.300959 0.832729 -0.319411
C5    C     C_3   0.423901 0.230154 0.849139 -0.943702
C6    C     C_3   0.218808 0.566510 0.132608 0.100304
C7    C     C_3   0.124802 0.610249 0.133519 -0.338580
C8    C     C_3   0.052151 0.534278 0.135332 -0.962734
C9    C     C_3   0.774335 0.586233 0.867115 0.097617
C10   C     C_3   0.866647 0.632690 0.863780 -0.331201
C11   C     C_3   0.941179 0.558800 0.860661 -0.967166
C12   C     C_3   0.424258 0.770134 0.732098 -0.746769
C13   C     C_R   0.518744 0.503522 0.353006 -0.183847
C14   C     C_3   0.566721 0.763628 0.265365 -0.750681
C15   C     C_3   0.165215 0.551278 0.972462 -0.809886
C16   C     C_3   0.829137 0.564194 0.026133 -0.808254
C17   C     C_R   0.479691 0.505926 0.646785 -0.193002
C18   C     C_R   0.408921 0.574785 0.976992 0.000956
C19   C     C_R   0.584521 0.577672 0.022288 0.000057
C20   C     C_R   0.572268 0.595329 0.971528 -0.012677
C21   C     C_R   0.420435 0.589638 0.028126 -0.011126
C22   C     C_R   0.485541 0.585926 0.948593 0.062456
C23   C     C_R   0.507591 0.583151 0.050873 0.062810
C24   C     C_R   0.325055 0.548905 0.953037 0.197770
C25   C     C_R   0.673171 0.499938 0.501182 0.927929
C26   C     C_R   0.669552 0.554436 0.045662 0.197791
C27   C     C_R   0.317945 0.546671 0.901929 -0.156437
C28   C     C_R   0.677156 0.550057 0.096697 -0.158485
C29   C     C_R   0.501680 0.499962 0.405607 0.901002
C30   C     C_R   0.497957 0.500450 0.594366 0.897852
C31   C     C_R   0.348524 0.615174 0.056913 -0.342203
C32   C     C_R   0.642968 0.626247 0.943391 -0.341871
C33   C     C_R   0.808546 0.522833 0.457665 -0.296017
C34   C     C_R   0.191554 0.522755 0.542797 -0.295061
C35   C     C_R   0.768969 0.501103 0.501184 -0.148904
C36   C     C_R   0.517414 0.581526 0.102376 -0.128145
C37   C     C_R   0.231078 0.501199 0.499141 -0.146768
C38   C     C_R   0.820352 0.485258 0.544493 0.389948
C39   C     C_R   0.179618 0.484878 0.455881 0.389487
C40   C     C_R   0.912055 0.509540 0.545987 -0.118701
C41   C     C_R   0.087945 0.509247 0.454450 -0.118600
C42   C     C_R   0.953278 0.521658 0.500827 -0.030033
C43   C     C_R   0.046744 0.521672 0.499647 -0.030250
C44   C     C_R   0.901279 0.524866 0.456499 0.084912
C45   C     C_R   0.098776 0.524998 0.543982 0.084257
C46   C     C_R   0.964763 0.516006 0.590401 0.448356
C47   C     C_R   0.475955 0.586869 0.897075 -0.135500
C48   C     C_R   0.035241 0.515207 0.410046 0.449120
C49   C     C_R   0.057636 0.526220 0.588769 -0.286492
C50   C     C_R   0.942387 0.525683 0.411705 -0.287029
C51   C     C_R   0.579374 0.800319 0.496933 0.454116
C52   C     C_R   0.428670 0.201730 0.518184 0.433775
C53   C     C_R   0.420547 0.800487 0.502935 0.453404
C54   C     C_R   0.571189 0.201317 0.481640 0.433258
C55   C     C_R   0.453238 0.586236 0.182022 0.590635
C56   C     C_R   0.540150 0.599338 0.817682 0.585037
C57   C     C_R   0.421564 0.900274 0.509460 -0.073893
C58   C     C_R   0.441728 0.595091 0.131065 -0.125525
C59   C     C_R   0.575647 0.101061 0.485073 -0.081066
C60   C     C_R   0.578201 0.899957 0.490186 -0.074119
C61   C     C_R   0.424008 0.101458 0.514449 -0.082542
C62   C     C_R   0.499847 0.950450 0.499772 0.001256
C63   C     C_R   0.499804 0.051105 0.499720 0.024979
C64   C     C_R   0.344725 0.951255 0.522434 -0.177519
C65   C     C_R   0.653500 0.049599 0.474193 -0.208188
C66   C     C_R   0.654966 0.950546 0.477107 -0.178591
C67   C     C_R   0.346148 0.050356 0.525298 -0.209228
C68   C     C_R   0.610245 0.555413 0.176035 0.548557
C69   C     C_R   0.551030 0.605971 0.868775 -0.128929
C70   C     C_R   0.385081 0.558777 0.822855 0.551346
C71   C     C_R   0.579294 0.599576 0.288411 0.212420
C72   C     C_R   0.416940 0.604912 0.710197 0.218447
C73   C     C_R   0.570694 0.580257 0.337752 -0.347253
C74   C     C_R   0.426569 0.583061 0.661099 -0.345129
C75   C     C_R   0.482563 0.438696 0.317573 0.068050
C76   C     C_R   0.516291 0.443485 0.682978 0.090895
C77   C     C_R   0.499170 0.453506 0.267825 0.456400
C78   C     C_R   0.500667 0.462180 0.732329 0.435876
C79   C     C_R   0.540541 0.537671 0.253505 0.149149
C80   C     C_R   0.357078 0.614680 0.107872 0.515797
C81   C     C_R   0.456836 0.545801 0.745787 0.142384
C82   C     C_3   0.331398 0.375510 0.315292 -0.724868
C83   C     C_3   0.665403 0.375149 0.685072 -0.718958
C84   C     C_3   0.814434 0.352255 0.592333 0.123987
C85   C     C_3   0.749720 0.278963 0.569491 -0.345027
C86   C     C_3   0.773350 0.178871 0.586551 -0.989244
C87   C     C_3   0.184779 0.350411 0.408593 0.128243
C88   C     C_3   0.249887 0.277190 0.431023 -0.344768
C89   C     C_3   0.226250 0.177054 0.413729 -0.992117
C90   C     C_3   0.889289 0.586791 0.651326 0.110899
C91   C     C_R   0.634679 0.628190 0.892458 0.515605
C92   C     C_3   0.859441 0.572872 0.703543 -0.345009
C93   C     C_3   0.798511 0.653130 0.719392 -0.901456
C94   C     C_3   0.109943 0.584972 0.348820 0.106208
C95   C     C_3   0.136761 0.571075 0.295980 -0.344177
C96   C     C_3   0.195919 0.651748 0.279266 -0.899201
C97   C     C_3   0.687293 0.748448 0.552600 0.139720
C98   C     C_3   0.730866 0.840248 0.572643 -0.425495
C99   C     C_3   0.770695 0.827712 0.624426 -0.963887
C100  C     C_3   0.364978 0.245985 0.589162 0.103190
C101  C     C_3   0.301287 0.319087 0.610209 -0.301775
C102  C     C_R   0.602633 0.564564 0.125140 -0.068198
C103  C     C_3   0.298338 0.311019 0.665644 -0.980290
C104  C     C_3   0.312806 0.747462 0.447327 0.139743
C105  C     C_3   0.269475 0.838950 0.426966 -0.425515
C106  C     C_3   0.229670 0.825158 0.375219 -0.965545
C107  C     C_3   0.637420 0.247140 0.411765 0.098204
C108  C     C_3   0.704836 0.318210 0.392744 -0.304015
C109  C     C_3   0.710947 0.312172 0.337421 -0.978860
C110  C     C_3   0.509884 0.306304 0.231689 0.061973
C111  C     C_3   0.598226 0.314476 0.205228 -0.368239
C112  C     C_3   0.643855 0.218253 0.200640 -0.935641
H1    H     H_    0.097997 0.528123 0.622753 0.168924
H2    H     H_    0.740978 0.529686 0.114161 0.194760
H3    H     H_    0.761578 0.538840 0.835024 0.180006
H4    H     H_    0.776200 0.541607 0.900707 0.109734
H5    H     H_    0.867030 0.678805 0.831016 0.237971
H6    H     H_    0.880328 0.677668 0.896684 0.223622
H7    H     H_    0.943494 0.513260 0.893695 0.264013
H8    H     H_    0.007156 0.594874 0.858356 0.273039
H9    H     H_    0.929605 0.513920 0.827566 0.267465
H10   H     H_    0.313796 0.701509 0.700336 0.227801
H11   H     H_    0.381828 0.830064 0.743853 0.231494
H12   H     H_    0.457095 0.790402 0.697984 0.232548
H13   H     H_    0.284725 0.636781 0.040259 0.187220
H14   H     H_    0.476582 0.756688 0.761425 0.265265
H15   H     H_    0.679843 0.699390 0.296750 0.229030
H16   H     H_    0.607042 0.824156 0.252693 0.232460
H17   H     H_    0.534450 0.784502 0.299645 0.232181
H18   H     H_    0.513882 0.747458 0.236653 0.262091
H19   H     H_    0.268587 0.478104 0.012417 0.226049
H20   H     H_    0.118071 0.517496 0.997456 0.238122
H21   H     H_    0.137618 0.541234 0.934488 0.251271
H22   H     H_    0.168836 0.628175 0.980907 0.240372
H23   H     H_    0.728232 0.489478 0.984928 0.224487
H24   H     H_    0.705707 0.649837 0.960571 0.187638
H25   H     H_    0.877192 0.534009 0.000329 0.237812
H26   H     H_    0.857442 0.552581 0.063798 0.250359
H27   H     H_    0.822695 0.641420 0.019350 0.240617
H28   H     H_    0.767188 0.532283 0.424352 0.145830
H29   H     H_    0.232993 0.531810 0.576147 0.144841
H30   H     H_    0.434667 0.333687 0.364035 0.234102
H31   H     H_    0.302668 0.433734 0.336938 0.268784
H32   H     H_    0.322444 0.393033 0.275937 0.280002
H33   H     H_    0.294765 0.308531 0.321195 0.218388
H34   H     H_    0.560045 0.334068 0.637747 0.231841
H35   H     H_    0.902010 0.527310 0.377728 0.168400
H36   H     H_    0.694252 0.432308 0.663015 0.262775
H37   H     H_    0.676274 0.393089 0.724344 0.280247
H38   H     H_    0.700603 0.307300 0.678647 0.218523
H39   H     H_    0.821788 0.341031 0.632342 0.182421
H40   H     H_    0.882884 0.339491 0.578487 0.132070
H41   H     H_    0.679567 0.295663 0.578940 0.249893
H42   H     H_    0.754643 0.282082 0.529301 0.266950
H43   H     H_    0.842444 0.159822 0.576169 0.266800
H44   H     H_    0.725140 0.127742 0.569071 0.280899
H45   H     H_    0.769116 0.173450 0.626833 0.264129
H46   H     H_    0.283338 0.914586 0.530626 0.175935
H47   H     H_    0.176149 0.338461 0.368650 0.182830
H48   H     H_    0.116762 0.338208 0.423045 0.129639
H49   H     H_    0.319854 0.293792 0.421388 0.248624
H50   H     H_    0.245555 0.280458 0.471265 0.265997
H51   H     H_    0.157345 0.158044 0.424307 0.267252
H52   H     H_    0.274767 0.125955 0.430856 0.280679
H53   H     H_    0.230003 0.171545 0.373401 0.264010
H54   H     H_    0.829428 0.604456 0.627220 0.161536
H55   H     H_    0.938161 0.646643 0.651291 0.116077
H56   H     H_    0.822352 0.504993 0.705999 0.238143
H57   H     H_    0.714379 0.085646 0.464573 0.171966
H58   H     H_    0.919747 0.569119 0.728974 0.221160
H59   H     H_    0.834210 0.722013 0.717917 0.259132
H60   H     H_    0.778938 0.640834 0.757407 0.305630
H61   H     H_    0.736224 0.655420 0.695463 0.276237
H62   H     H_    0.171091 0.602104 0.372074 0.162587
H63   H     H_    0.061420 0.645183 0.349906 0.116323
H64   H     H_    0.174183 0.503440 0.292654 0.238484
H65   H     H_    0.075087 0.566830 0.271573 0.221691
H66   H     H_    0.160009 0.720451 0.281899 0.257867
H67   H     H_    0.212810 0.639890 0.240708 0.306340
H68   H     H_    0.716374 0.913607 0.468940 0.176047
H69   H     H_    0.259716 0.654197 0.301942 0.276983
H70   H     H_    0.738057 0.690897 0.556573 0.163730
H71   H     H_    0.630035 0.727330 0.575195 0.139084
H72   H     H_    0.785236 0.862541 0.548647 0.236587
H73   H     H_    0.679640 0.897320 0.573727 0.230549
H74   H     H_    0.717978 0.803669 0.649004 0.273617
H75   H     H_    0.797873 0.896418 0.638284 0.275831
H76   H     H_    0.826579 0.775713 0.624657 0.255067
H77   H     H_    0.434476 0.260248 0.604017 0.134391
H78   H     H_    0.344685 0.174420 0.601270 0.128118
H79   H     H_    0.285264 0.086728 0.534896 0.171673
H80   H     H_    0.324166 0.391274 0.600835 0.222159
H81   H     H_    0.232274 0.308775 0.593724 0.222942
H82   H     H_    0.270603 0.241187 0.675809 0.265728
H83   H     H_    0.254669 0.367732 0.679835 0.278963
H84   H     H_    0.366849 0.318954 0.682821 0.255474
H85   H     H_    0.261937 0.690065 0.443471 0.163566
H86   H     H_    0.370095 0.725492 0.424848 0.139869
H87   H     H_    0.215125 0.862214 0.450861 0.236709
H88   H     H_    0.320841 0.895703 0.425707 0.230069
H89   H     H_    0.282278 0.799821 0.350771 0.272621
H90   H     H_    0.395697 0.629935 0.633893 0.188590
H91   H     H_    0.202889 0.893667 0.361048 0.275710
H92   H     H_    0.173502 0.773672 0.375197 0.255435
H93   H     H_    0.569020 0.265097 0.396426 0.137422
H94   H     H_    0.655407 0.175169 0.398833 0.125968
H95   H     H_    0.683614 0.390869 0.402662 0.221880
H96   H     H_    0.772542 0.304637 0.410228 0.224437
H97   H     H_    0.732331 0.240157 0.326313 0.265465
H98   H     H_    0.760959 0.364349 0.325230 0.278231
H99   H     H_    0.644809 0.328941 0.319359 0.258817
H100  H     H_    0.465910 0.254333 0.211622 0.178806
H101  H     H_    0.600941 0.629091 0.364356 0.188614
H102  H     H_    0.522473 0.276794 0.268973 0.144505
H103  H     H_    0.584360 0.344190 0.168108 0.238743
H104  H     H_    0.644900 0.362753 0.225984 0.247550
H105  H     H_    0.659098 0.187717 0.237422 0.261900
H106  H     H_    0.707922 0.226712 0.181803 0.275022
H107  H     H_    0.599692 0.168823 0.178958 0.263680
H108  H     H_    0.470683 0.276604 0.755028 0.160352
H109  H     H_    0.401264 0.368005 0.780832 0.158390
H110  H     H_    0.560967 0.266373 0.833568 0.229437
H111  H     H_    0.496614 0.361823 0.858654 0.223573
H112  H     H_    0.255212 0.523991 0.884020 0.194312
H113  H     H_    0.356585 0.264230 0.849852 0.272302
H114  H     H_    0.443147 0.204884 0.886518 0.267200
H115  H     H_    0.420284 0.168271 0.823960 0.264114
H116  H     H_    0.230375 0.520737 0.165252 0.183366
H117  H     H_    0.221046 0.520444 0.099445 0.110147
H118  H     H_    0.120476 0.657247 0.165956 0.237125
H119  H     H_    0.112395 0.653815 0.100152 0.223637
H120  H     H_    0.053557 0.487888 0.102512 0.264385
H121  H     H_    0.984947 0.568478 0.136104 0.271321
H122  H     H_    0.062601 0.490591 0.168774 0.267903
N1    N     N_R   0.535552 0.562932 0.202905 -0.317895
N2    N     N_2   0.742605 0.517781 0.019116 -0.312646
N3    N     N_R   0.459335 0.572283 0.796287 -0.320291
N4    N     N_R   0.500000 0.750030 0.500000 -0.201325
N5    N     N_R   0.500000 0.249970 0.500000 -0.179707
N6    N     N_2   0.425142 0.362618 0.329903 -0.316723
N7    N     N_2   0.570943 0.364240 0.671608 -0.302064
N8    N     N_2   0.368593 0.687258 0.723621 -0.273502
N9    N     N_2   0.624906 0.682688 0.273995 -0.270056
N10   N     N_2   0.253320 0.507806 0.978751 -0.312205
O1    O     O_R   0.367850 0.580280 0.500010 -0.587366
O2    O     O_2   0.609933 0.616985 0.789261 -0.548096
O3    O     O_2   0.305943 0.535062 0.799994 -0.587382
O4    O     O_2   0.690980 0.536711 0.198448 -0.589206
O5    O     O_3   0.780345 0.445353 0.584213 -0.658734
O6    O     O_3   0.219317 0.443495 0.416289 -0.658408
O7    O     O_3   0.929041 0.502008 0.635550 -0.632858
O8    O     O_3   0.070943 0.500343 0.364892 -0.632782
O9    O     O_3   0.661803 0.755485 0.502054 -0.620371
O10   O     O_3   0.359122 0.252206 0.537625 -0.632814
O11   O     O_3   0.338184 0.755645 0.497869 -0.620697
O12   O     O_R   0.632150 0.419720 0.499990 -0.572225
O13   O     O_3   0.641729 0.251410 0.463363 -0.632941
O14   O     O_3   0.463241 0.393750 0.231626 -0.642229
O15   O     O_3   0.536395 0.403407 0.768533 -0.640607
O16   O     O_3   0.283649 0.640069 0.134434 -0.605842
O17   O     O_3   0.707351 0.657756 0.866536 -0.602330
O18   O     O_R   0.632150 0.580280 0.499990 -0.586093
O19   O     O_R   0.367850 0.419720 0.500010 -0.571801
O20   O     O_R   0.500010 0.580260 0.428760 -0.623620
O21   O     O_R   0.499990 0.419740 0.571240 -0.633659
O22   O     O_R   0.499990 0.580260 0.571240 -0.622486
O23   O     O_R   0.500010 0.419740 0.428760 -0.636198
O24   O     O_2   0.382817 0.598533 0.210786 -0.548179
Zn1   Zn    Zn3+2 0.500000 0.607200 0.500000 0.977628
Zn2   Zn    Zn3+2 0.500000 0.392800 0.500000 0.975504

loop_
_geom_bond_atom_site_label_1
_geom_bond_atom_site_label_2
_ccdc_geom_bond_type
C50   H35   S    
C87   O6    S    
C49   H1    S    
C87   C88   S    
C93   H60   S    
O20   Zn1   S    
C90   H55   S    
C18   C21   A    
C104  H85   S    
C19   C23   A    
C16   H25   S    
C24   C27   A    
C96   H69   S    
C108  H96   S    
C101  H80   S    
C11   H7    S    
C14   H17   S    
C99   H75   S    
C97   C98   S    
C7    C8    S    
H10   N8    S    
C15   H22   S    
C7    H119  S    
C85   C86   S    
C68   O4    S    
H30   N6    S    
C87   H48   S    
C21   C31   A    
C46   C49   A    
C27   H112  S    
C104  O11   S    
C103  H83   S    
C18   C24   A    
C76   C78   A    
C13   C29   S    
C110  H102  S    
C68   C102  A    
C54   N5    A    
C110  O14   S    
C98   H73   S    
C36   C58   A    
H19   N10   S    
C14   H18   S    
O23   Zn2   S    
C67   H79   S    
C38   O5    S    
C12   H14   S    
C16   N2    S    
C33   H28   S    
C44   C50   A    
C88   H49   S    
C34   C37   A    
C29   O20   A    
C14   H16   S    
C108  C109  S    
C36   C102  A    
C34   H29   S    
C61   C63   A    
C19   C26   A    
C52   O10   S    
C110  C111  S    
C47   C69   A    
C107  H94   S    
C86   H44   S    
C52   N5    A    
C106  H91   S    
C1    O19   A    
C95   H65   S    
C105  H88   S    
C15   H20   S    
C100  H77   S    
C92   H58   S    
C3    H108  S    
C100  O10   S    
C6    H116  S    
C17   C76   A    
C112  H105  S    
C109  H99   S    
O21   Zn2   S    
C2    C27   A    
C80   O16   S    
C70   N3    A    
C100  H78   S    
C40   C42   A    
C9    C10   S    
C89   H52   S    
C30   O21   A    
C72   C81   A    
C91   O17   S    
C58   C80   A    
C94   H63   S    
C83   H38   S    
C8    H121  S    
C48   C50   A    
C22   C47   A    
C60   C66   A    
C101  C103  S    
C18   C22   A    
C90   H54   S    
C17   C30   S    
C41   C43   A    
C73   H101  S    
C75   N6    S    
C11   H9    S    
C61   C67   A    
C42   C44   A    
C108  H95   S    
C109  H97   S    
C11   H8    S    
C71   C79   A    
C99   H76   S    
C86   H45   S    
C25   O12   A    
C101  H81   S    
C97   H71   S    
C100  C101  S    
C54   C59   A    
O19   Zn2   S    
C16   H26   S    
C25   C35   S    
C9    H3    S    
C64   C67   A    
C13   C75   A    
C56   N3    A    
C97   H70   S    
C35   C38   A    
H15   N9    S    
C111  H104  S    
C82   H32   S    
C32   H24   S    
C53   C57   A    
C4    C5    S    
C74   H90   S    
C57   C62   A    
C56   O2    S    
C106  H92   S    
C5    H115  S    
C82   N6    S    
C48   O8    S    
N4    Zn1   S    
O1    Zn1   S    
C95   H64   S    
C81   N3    S    
C62   C63   A    
C10   H6    S    
C68   N1    A    
C72   N8    S    
C43   C45   A    
C92   H56   S    
C90   C92   S    
C12   H12   S    
C45   C49   A    
C78   O15   S    
C9    O17   S    
C77   C79   A    
C4    H110  S    
C34   C45   A    
C85   H41   S    
C84   C85   S    
C75   C77   A    
C89   H53   S    
C28   H2    S    
C94   H62   S    
C30   O22   A    
C84   H40   S    
C72   C74   A    
C103  H82   S    
C20   C22   A    
C56   C69   A    
C12   N8    S    
C77   O14   S    
C21   C23   A    
C41   C48   A    
C17   C74   A    
C29   O23   A    
C6    O16   S    
C59   C63   A    
C90   O7    S    
C16   H27   S    
C42   C43   A    
C40   C46   A    
C107  C108  S    
C64   H46   S    
C109  H98   S    
C51   O9    S    
C111  H103  S    
C51   N4    A    
C82   H33   S    
C57   C64   A    
C71   C73   A    
C20   C32   A    
C26   N2    S    
C86   H43   S    
C83   N7    S    
C15   N10   S    
C93   H59   S    
C111  C112  S    
C84   O5    S    
C13   C73   A    
C9    H4    S    
C104  H86   S    
C110  H100  S    
C55   O24   S    
C55   N1    A    
C82   H31   S    
O22   Zn1   S    
C94   O8    S    
C53   N4    A    
C6    C7    S    
C15   H21   S    
C23   C36   A    
C1    C37   S    
C2    C47   A    
C4    H111  S    
C105  C106  S    
C31   C80   A    
C31   H13   S    
C26   C28   A    
C107  O13   S    
C52   C61   A    
C96   H66   S    
C19   C20   A    
C76   N7    S    
C71   N9    S    
C88   H50   S    
C37   C39   A    
C10   H5    S    
C69   C91   A    
C12   H11   S    
C59   C65   A    
C60   C62   A    
C38   C40   A    
C25   O18   A    
C8    H120  S    
C78   C81   A    
C55   C58   A    
C39   O6    S    
C66   H68   S    
C87   H47   S    
C3    O15   S    
H34   N7    S    
C93   H61   S    
C92   C93   S    
C33   C35   A    
C112  H107  S    
C5    H113  S    
C5    H114  S    
C24   N10   S    
C97   O9    S    
O12   Zn2   S    
C85   H42   S    
C65   C66   A    
C96   H67   S    
C98   H72   S    
C94   C95   S    
C33   C44   A    
C46   O7    S    
C107  H93   S    
C10   C11   S    
C79   N1    S    
C83   H36   S    
C32   C91   A    
C84   H39   S    
C28   C102  A    
C105  H87   S    
C70   O3    S    
C88   C89   S    
C39   C41   A    
C3    H109  S    
C98   C99   S    
C103  H84   S    
C6    H117  S    
C65   H57   S    
C95   C96   S    
N5    Zn2   S    
C54   O13   S    
C112  H106  S    
H23   N2    S    
C1    O1    A    
C51   C60   A    
C53   O11   S    
C83   H37   S    
C2    C70   A    
C14   N9    S    
C89   H51   S    
C99   H74   S    
C3    C4    S    
C104  C105  S    
C8    H122  S    
C106  H89   S    
C7    H118  S    
O18   Zn1   S    
