data_mof_unit_24309.cif
_audit_creation_date              2012-12-11T14:52:32-0500
_audit_creation_method            fapswitch 2.2
_symmetry_space_group_name_H-M    P1
_symmetry_Int_Tables_number       1
_space_group_crystal_system       triclinic
_cell_length_a                    8.317916
_cell_length_b                    15.219452
_cell_length_c                    26.954748
_cell_angle_alpha                 97.629218
_cell_angle_beta                  92.950049
_cell_angle_gamma                 80.589926
_cell_volume                      3335.04963177

loop_
_atom_site_label
_atom_site_type_symbol
_atom_type_description
_atom_site_fract_x
_atom_site_fract_y
_atom_site_fract_z
_atom_type_partial_charge
Ba1   Ba    Ba6+2 0.860900 0.457020 0.523210 1.682613
Ba2   Ba    Ba6+2 0.328940 0.542910 0.476780 1.624367
C1    C     C_3   0.577768 0.162311 0.662907 0.585864
C2    C     C_3   0.616476 0.244441 0.640417 0.338195
C3    C     C_3   0.420097 0.743914 0.630830 0.365325
C4    C     C_3   0.304040 0.833252 0.636737 -0.309917
C5    C     C_3   0.042012 0.736603 0.343643 0.342997
C6    C     C_3   0.060973 0.762294 0.291888 -0.287528
C7    C     C_3   0.498609 0.783882 0.366594 0.333964
C8    C     C_3   0.449905 0.877190 0.350912 -0.370321
C9    C     C_R   0.032044 0.439304 0.177008 0.590164
C10   C     C_R   0.932872 0.596968 0.181939 0.567396
C11   C     C_2   0.750954 0.553076 0.269647 0.019013
C12   C     C_3   0.076570 0.240603 0.651574 0.639546
C13   C     C_3   0.722530 0.574951 0.325553 -0.036062
C14   C     C_1   0.978344 0.478016 0.341627 0.056085
C15   C     C_2   0.027460 0.484868 0.295786 -0.137381
C16   C     C_2   0.907310 0.519354 0.255673 0.221858
C17   C     C_R   0.045676 0.517051 0.103527 -0.079624
C18   C     C_R   0.076566 0.437822 0.126595 -0.037827
C19   C     C_R   0.149252 0.358435 0.098513 -0.061201
C20   C     C_R   0.974387 0.597106 0.131734 -0.028401
C21   C     C_2   0.824078 0.505926 0.354410 -0.210009
C22   C     C_2   0.353126 0.487456 0.641201 -0.192302
C23   C     C_3   0.026371 0.188598 0.691045 -0.239796
C24   C     C_R   0.202209 0.435308 0.973325 0.018662
C25   C     C_R   0.080962 0.595109 0.977503 0.019112
C26   C     C_R   0.159908 0.514861 0.949943 0.053837
C27   C     C_R   0.285266 0.358178 0.944485 -0.093241
C28   C     C_R   0.322320 0.358678 0.894617 -0.042492
C29   C     C_R   0.278381 0.435944 0.870817 -0.058525
C30   C     C_R   0.196722 0.514210 0.898398 -0.076787
C31   C     C_R   0.151675 0.591861 0.874402 -0.029317
C32   C     C_R   0.188641 0.590392 0.823513 0.576637
C33   C     C_R   0.314566 0.436456 0.819981 0.636460
C34   C     C_3   0.172719 0.263520 0.418009 0.311796
C35   C     C_2   0.463784 0.496432 0.729186 -0.040419
C36   C     C_3   0.501500 0.498005 0.674502 -0.074885
C37   C     C_1   0.209389 0.525482 0.657850 0.054824
C38   C     C_2   0.173264 0.531526 0.705784 -0.020649
C39   C     C_2   0.307259 0.513279 0.744425 0.248987
C40   C     C_R   0.160531 0.435415 0.024358 0.019438
C41   C     C_R   0.085257 0.516314 0.052204 0.050068
C42   C     C_R   0.048498 0.596566 0.029275 0.020185
C43   C     C_R   0.190454 0.357115 0.048793 -0.096856
C44   C     C_R   0.944721 0.676195 0.109185 -0.062674
C45   C     C_3   0.125905 0.170689 0.404102 -0.295118
C46   C     C_R   0.035536 0.671320 0.951881 -0.100284
C47   C     C_R   0.070223 0.669587 0.901722 -0.054282
C48   C     C_R   0.980787 0.676118 0.059342 -0.100925
C49   C     C_R   0.750150 0.763667 0.477494 -0.308212
C50   C     C_R   0.845197 0.824137 0.465553 -0.004960
C51   C     C_R   0.791030 0.916463 0.475918 -0.061301
C52   C     C_R   0.629020 0.950297 0.490975 0.053740
C53   C     C_R   0.539041 0.886575 0.505258 -0.116615
C54   C     C_R   0.605179 0.795316 0.501520 0.040686
C55   C     C_R   0.413034 0.084240 0.521475 -0.119857
C56   C     C_3   0.952068 0.730985 0.584036 0.247061
C57   C     C_R   0.352305 0.176178 0.528534 0.014915
C58   C     C_R   0.582145 0.207010 0.487495 0.055861
C59   C     C_R   0.635001 0.114002 0.474396 0.280783
C60   C     C_R   0.560210 0.050231 0.495870 0.023119
C61   C     C_R   0.444590 0.236839 0.515705 -0.324520
C62   C     C_3   0.877627 0.827258 0.603167 -0.301186
C63   C     C_3   0.556136 0.275942 0.365898 0.255646
C64   C     C_3   0.534557 0.181832 0.341084 -0.195904
H1    H     H_    0.716805 0.222656 0.613640 0.015072
H2    H     H_    0.207344 0.130800 0.375165 0.087336
H3    H     H_    0.136012 0.134478 0.437496 0.114183
H4    H     H_    0.999087 0.177009 0.388688 0.197327
H5    H     H_    0.853903 0.693735 0.568302 0.047016
H6    H     H_    0.039252 0.731709 0.554347 0.048246
H7    H     H_    0.802685 0.828283 0.636204 0.184433
H8    H     H_    0.800179 0.858741 0.573935 0.095485
H9    H     H_    0.973111 0.869254 0.614207 0.121142
H10   H     H_    0.569650 0.317256 0.335840 0.038004
H11   H     H_    0.450020 0.309874 0.386758 0.066436
H12   H     H_    0.655431 0.143286 0.329996 0.183401
H13   H     H_    0.483180 0.145982 0.368219 0.119900
H14   H     H_    0.505470 0.272669 0.619454 -0.046721
H15   H     H_    0.444205 0.164691 0.662941 0.104802
H16   H     H_    0.355483 0.688553 0.613339 0.035884
H17   H     H_    0.251151 0.848688 0.599670 0.097218
H18   H     H_    0.204781 0.830079 0.662113 0.107741
H19   H     H_    0.370467 0.888651 0.652859 0.149540
H20   H     H_    0.135872 0.153256 0.709656 0.150829
H21   H     H_    0.137479 0.678388 0.349199 0.099797
H22   H     H_    0.919716 0.716945 0.345514 -0.058442
H23   H     H_    0.159408 0.803568 0.292338 0.140660
H24   H     H_    0.094741 0.700635 0.265333 0.114309
H25   H     H_    0.945325 0.801450 0.279053 0.134533
H26   H     H_    0.634039 0.767697 0.366714 -0.039256
H27   H     H_    0.454706 0.785562 0.404977 0.073206
H28   H     H_    0.510563 0.926177 0.376419 0.104683
H29   H     H_    0.315905 0.898033 0.352982 0.146781
H30   H     H_    0.965236 0.276691 0.634625 0.061213
H31   H     H_    0.487691 0.877550 0.312028 0.126165
H32   H     H_    0.152973 0.460081 0.285901 0.126966
H33   H     H_    0.174370 0.296178 0.114919 0.121475
H34   H     H_    0.563647 0.485567 0.756376 0.093135
H35   H     H_    0.386123 0.297502 0.874598 0.143665
H36   H     H_    0.325634 0.295871 0.959446 0.074933
H37   H     H_    0.243708 0.292631 0.030323 0.072677
H38   H     H_    0.892105 0.739247 0.130090 0.121419
H39   H     H_    0.969990 0.733767 0.969213 0.073003
H40   H     H_    0.032322 0.730146 0.884293 0.129606
H41   H     H_    0.047213 0.546190 0.716927 0.110087
H42   H     H_    0.955545 0.740515 0.045801 0.070978
H43   H     H_    0.364146 0.447564 0.604615 0.070269
H44   H     H_    0.342243 0.041627 0.536674 0.105887
H45   H     H_    0.880439 0.959492 0.474381 0.159545
H46   H     H_    0.421938 0.905553 0.522023 0.089881
H47   H     H_    0.400615 0.308068 0.523806 0.073859
H48   H     H_    0.953296 0.235089 0.719785 0.166799
H49   H     H_    0.796778 0.692470 0.472932 0.065114
H50   H     H_    0.952940 0.137782 0.673108 0.145002
H51   H     H_    0.300280 0.254651 0.431276 -0.110183
H52   H     H_    0.099342 0.299428 0.449358 0.102088
N1    N     N_R   0.958917 0.518293 0.204169 -0.422969
N2    N     N_R   0.269863 0.513314 0.796823 -0.433954
O1    O     O_2   0.905540 0.548000 0.618290 -0.456604
O2    O     O_3   0.699921 0.271483 0.395495 -0.612143
O3    O     O_3   0.167734 0.179525 0.616211 -0.623495
O4    O     O_2   0.284150 0.451970 0.381680 -0.474006
O5    O     O_3   0.052160 0.451990 0.441880 -0.507087
O6    O     O_3   0.501140 0.616030 0.412450 -0.484533
O7    O     O_3   0.155893 0.307649 0.375021 -0.647228
O8    O     O_3   0.615020 0.608480 0.525380 -0.472917
O9    O     O_3   0.085020 0.662210 0.437090 -0.500176
O10   O     O_2   0.180101 0.821043 0.470687 -0.487413
O11   O     O_3   0.060810 0.810076 0.379588 -0.584391
O12   O     O_3   0.137550 0.547930 0.558110 -0.490740
O13   O     O_3   0.574690 0.391440 0.474610 -0.501396
O14   O     O_2   0.341330 0.720570 0.525000 -0.472711
O15   O     O_3   0.554123 0.752956 0.603429 -0.640350
O16   O     O_2   0.386950 0.552024 0.323805 -0.506830
O17   O     O_3   0.426689 0.721247 0.333218 -0.605449
O18   O     O_2   0.056091 0.369885 0.196300 -0.597573
O19   O     O_2   0.384609 0.368134 0.796239 -0.500520
O20   O     O_2   0.870745 0.667201 0.205697 -0.623974
O21   O     O_2   0.150002 0.658215 0.803139 -0.593882
O22   O     O_3   0.688580 0.383890 0.587540 -0.500368
O23   O     O_2   0.838162 0.433917 0.673771 -0.461922
O24   O     O_3   0.033371 0.692024 0.624303 -0.640513
O25   O     O_3   0.662414 0.309608 0.678189 -0.564996
O26   O     O_2   0.848360 0.279400 0.474970 -0.435916
O27   O     O_3   0.104690 0.337720 0.562900 -0.479798
O28   O     O_2   0.016871 0.176164 0.529455 -0.468405
P1    P     P_3+3 0.070480 0.574800 0.610950 1.001843
P2    P     P_3+3 0.668430 0.292880 0.460530 1.021968
P3    P     P_3+3 0.156310 0.219552 0.557916 0.966766
P4    P     P_3+3 0.119230 0.425130 0.389040 0.974735
P5    P     P_3+3 0.044568 0.779466 0.439180 0.967361
P6    P     P_3+3 0.672620 0.408857 0.652754 1.006178
P7    P     P_3+3 0.526560 0.721399 0.538877 0.953339
P8    P     P_3+3 0.507992 0.613866 0.347587 0.925777
Cl1   Cl    Cl    0.659732 0.060083 0.626126 -0.753871
C65   C     C_3   0.424743 0.184284 0.293930 -0.473363
H53   H     H_    0.302980 0.223660 0.302188 0.187404
H54   H     H_    0.480876 0.214508 0.265144 0.142099
H55   H     H_    0.409136 0.114773 0.278404 0.144718
C66   C     C_3   0.484013 0.720767 0.682459 -0.365707
H56   H     H_    0.583088 0.662141 0.678247 0.100502
H57   H     H_    0.535246 0.777792 0.704067 0.146286
H58   H     H_    0.384393 0.704306 0.703787 0.085673
Cl2   Cl    Cl    0.649653 0.157338 0.726284 -0.557984
C67   C     C_3   0.611866 0.571959 0.232187 -0.294820
H59   H     H_    0.512455 0.535064 0.238960 0.109281
H60   H     H_    0.564643 0.645012 0.236075 0.143949
H61   H     H_    0.647308 0.548763 0.192968 0.106620
Cl3   Cl    Cl    0.200311 0.317706 0.681646 -0.709809
C68   C     C_3   0.745150 0.461806 0.391232 -0.237100
H62   H     H_    0.816255 0.396116 0.395940 0.114286
H63   H     H_    0.739942 0.504052 0.428052 0.146579
H64   H     H_    0.621362 0.450417 0.378240 0.111194
Cl4   Cl    Cl    0.771695 0.081512 0.424729 -0.778597

loop_
_geom_bond_atom_site_label_1
_geom_bond_atom_site_label_2
_ccdc_geom_bond_type
C25   C46   A    
C48   H42   S    
C53   C54   A    
C32   O21   D    
C5    C6    S    
C53   H46   S    
C17   C18   A    
O28   P3    D    
C64   C65   S    
Ba1   O12   S    
C9    N1    Am   
Ba2   O9    S    
C33   N2    Am   
C55   C60   A    
C67   H60   S    
C51   C52   A    
C50   C51   A    
C64   H13   S    
Ba2   O14   S    
C63   H10   S    
C11   C16   D    
C58   C61   A    
O2    P2    S    
C9    O18   D    
Ba1   O5    S    
Ba1   Ba2   S    
C28   C29   A    
O16   P8    D    
C56   H5    S    
C11   C67   S    
C8    H28   S    
C31   C47   A    
C66   H58   S    
C10   C20   A    
C22   C37   D    
O15   P7    S    
C34   C45   S    
C49   C54   A    
C45   H3    S    
Ba1   O22   S    
C43   H37   S    
O8    P7    S    
C33   O19   D    
O26   P2    D    
C7    O17   S    
C25   C42   A    
C5    H21   S    
C21   C68   S    
C5    H22   S    
C68   H63   S    
C14   C15   D    
C1    H15   S    
Ba2   O12   S    
C62   H7    S    
C10   O20   D    
Ba1   P1    S    
C12   O3    S    
C34   H52   S    
C7    C8    S    
C5    O11   S    
C65   H55   S    
C68   H64   S    
C51   H45   S    
C13   C21   S    
O4    P4    D    
C39   N2    S    
C65   H54   S    
O12   P1    S    
Ba1   O26   S    
C59   Cl4   S    
C54   P7    S    
Ba1   O13   S    
C7    H26   S    
C12   H30   S    
C17   C41   A    
C31   C32   A    
C67   H61   S    
C19   C43   A    
C32   N2    Am   
C64   H12   S    
O3    P3    S    
C9    C18   A    
Ba2   O13   S    
C4    H18   S    
C22   H43   S    
C49   C50   A    
O11   P5    S    
C17   C20   A    
C63   H11   S    
C23   H50   S    
C37   C38   D    
O23   P6    D    
C52   C60   S    
C56   C62   S    
C50   P5    S    
C44   H38   S    
C49   H49   S    
O17   P8    S    
C58   C59   A    
C40   C43   A    
C35   C36   S    
C8    H31   S    
O27   P3    S    
C41   C42   A    
C45   H4    S    
C27   C28   A    
O5    P4    S    
O7    P4    S    
C10   N1    Am   
C22   C36   S    
C46   H39   S    
C26   C30   A    
Ba2   P4    S    
C15   C16   S    
Ba1   P2    S    
C14   P4    S    
C6    H25   S    
C58   P2    S    
C63   O2    S    
O22   P6    S    
C34   H51   S    
C4    H19   S    
C13   P8    S    
C38   H41   S    
O25   P6    S    
Ba2   O6    S    
Ba1   O8    S    
C38   C39   S    
C20   C44   A    
C14   C21   D    
C57   P3    S    
C11   C13   S    
C65   H53   S    
C29   C33   A    
Ba1   O27   S    
C34   O7    S    
C6    H24   S    
C40   C41   A    
C36   P6    S    
C1    C2    S    
C7    H27   S    
C45   H2    S    
C67   H59   S    
C68   H62   S    
C24   C40   A    
C66   H56   S    
C15   H32   S    
C42   C48   A    
C3    O15   S    
O14   P7    D    
C44   C48   A    
C52   C53   A    
C46   C47   A    
C4    H17   S    
O24   P1    S    
C57   C61   A    
C29   C30   A    
O13   P2    S    
C12   Cl3   S    
C2    H1    S    
C55   H44   S    
C2    H14   S    
C47   H40   S    
Ba2   O4    S    
C37   P1    S    
C24   C26   A    
C3    C66   S    
C66   H57   S    
C23   H48   S    
C30   C31   A    
O9    P5    S    
C3    H16   S    
C56   H6    S    
C3    C4    S    
C8    H29   S    
C19   H33   S    
C2    O25   S    
C28   H35   S    
C23   H20   S    
C62   H9    S    
O1    P1    D    
C27   H36   S    
O10   P5    D    
C12   C23   S    
C35   C39   D    
C59   C60   A    
Ba1   O1    S    
C55   C57   A    
C61   H47   S    
Ba2   O5    S    
C56   O24   S    
C18   C19   A    
C24   C27   A    
C63   C64   S    
C25   C26   A    
C1    Cl1   S    
C62   H8    S    
C6    H23   S    
C16   N1    S    
C35   H34   S    
C1    Cl2   S    
O6    P8    S    
Ba2   O8    S    
