data_mof_unit_47560.cif
_audit_creation_date              2012-10-26T20:34:00-0400
_audit_creation_method            fapswitch 2.2
_symmetry_space_group_name_H-M    P1
_symmetry_Int_Tables_number       1
_space_group_crystal_system       triclinic
_cell_length_a                    15.917813
_cell_length_b                    9.092702
_cell_length_c                    7.784243
_cell_angle_alpha                 89.984787
_cell_angle_beta                  90.447346
_cell_angle_gamma                 90.000037
_cell_volume                      1126.62527085

loop_
_atom_site_label
_atom_site_type_symbol
_atom_type_description
_atom_site_fract_x
_atom_site_fract_y
_atom_site_fract_z
_atom_type_partial_charge
C1    C     C_R   0.499984 0.220018 0.500013 0.549432
C2    C     C_3   0.046961 0.362137 0.414768 0.062968
C3    C     C_3   0.953265 0.490685 0.706807 0.050641
C4    C     C_3   0.948786 0.370111 0.410047 0.054344
C5    C     C_1   0.749562 0.502076 0.504093 -0.052772
C6    C     C_1   0.250441 0.500219 0.498548 -0.050363
C7    C     C_3   0.083102 0.500806 0.508670 0.056654
C8    C     C_3   0.917100 0.505374 0.517600 0.057436
C9    C     C_3   0.951321 0.649563 0.438127 -0.213319
C10   C     C_3   0.047920 0.642806 0.422619 -0.218547
C11   C     C_3   0.143685 0.228691 0.218102 -0.322719
C12   C     C_1   0.824902 0.504431 0.511366 -0.070091
C13   C     C_3   0.168338 0.597412 0.887401 -0.312193
C14   C     C_3   0.898461 0.229461 0.157920 -0.300239
C15   C     C_3   0.832720 0.601222 0.870198 -0.305308
C16   C     C_1   0.175105 0.500479 0.501540 -0.044654
C17   C     C_R   0.339828 0.500000 0.499380 0.535654
C18   C     C_R   0.660176 0.500139 0.500791 0.541400
C19   C     C_1   0.499981 0.934633 0.499981 -0.056106
C20   C     C_1   0.499978 0.065375 0.500017 -0.056154
C21   C     C_R   0.499991 0.779990 0.499987 0.549085
C22   C     C_3   0.052794 0.494275 0.700029 0.045099
Cu1   Cu    Cu3+1 0.500000 0.500010 0.669080 1.006558
Cu2   Cu    Cu3+1 0.500000 0.500010 0.330920 1.010617
H1    H     H_    0.076180 0.742671 0.481501 0.107023
H2    H     H_    0.203217 0.258115 0.284536 0.152695
H3    H     H_    0.156234 0.215804 0.078803 0.134892
H4    H     H_    0.120246 0.121895 0.267820 0.135945
H5    H     H_    0.072109 0.721332 0.768039 0.265000
H6    H     H_    0.167543 0.657424 0.011500 0.135365
H7    H     H_    0.218811 0.645177 0.807403 0.162383
H8    H     H_    0.182486 0.480019 0.914213 0.150324
H9    H     H_    0.872019 0.449352 0.202254 0.251688
H10   H     H_    0.886500 0.242266 0.018069 0.133066
H11   H     H_    0.841654 0.181676 0.218349 0.130106
H12   H     H_    0.065333 0.648152 0.285037 0.113705
H13   H     H_    0.952292 0.153172 0.176002 0.169206
H14   H     H_    0.955305 0.600915 0.942475 0.281947
H15   H     H_    0.823068 0.651485 0.998769 0.118614
H16   H     H_    0.806939 0.487671 0.873250 0.152748
H17   H     H_    0.797852 0.671326 0.777596 0.171569
H18   H     H_    0.933576 0.744640 0.520161 0.140405
H19   H     H_    0.923146 0.669961 0.309137 0.105724
H20   H     H_    0.934879 0.380247 0.755940 0.086070
H21   H     H_    0.924473 0.269547 0.475444 0.089213
H22   H     H_    0.074872 0.388536 0.757156 0.100839
H23   H     H_    0.063828 0.263938 0.493884 0.083007
H24   H     H_    0.087490 0.433946 0.165775 0.272645
N1    N     N_1   0.500000 0.499970 0.076820 -0.082587
N2    N     N_1   0.500000 0.499970 0.923180 -0.082818
N3    N     N_2   0.081413 0.342569 0.242550 -0.486881
N4    N     N_2   0.087711 0.615270 0.802302 -0.528623
N5    N     N_2   0.916773 0.371700 0.232879 -0.487493
N6    N     N_2   0.921379 0.600638 0.828950 -0.510683
O1    O     O_R   0.500000 0.288400 0.642760 -0.494514
O2    O     O_R   0.500000 0.288400 0.357240 -0.495518
O3    O     O_R   0.379440 0.500020 0.642850 -0.502541
O4    O     O_R   0.379440 0.500020 0.357150 -0.499199
O5    O     O_R   0.620560 0.500020 0.642850 -0.502422
O6    O     O_R   0.620560 0.500020 0.357150 -0.497214
O7    O     O_R   0.500000 0.711620 0.642810 -0.495986
O8    O     O_R   0.500000 0.711620 0.357190 -0.495121

loop_
_geom_bond_atom_site_label_1
_geom_bond_atom_site_label_2
_ccdc_geom_bond_type
C14   H10   S    
C7    C10   S    
C2    C4    S    
Cu1   Cu2   S    
Cu1   O1    S    
C19   C21   S    
C5    C18   S    
C4    N5    S    
Cu2   O2    S    
C13   N4    S    
C9    C10   S    
C13   H6    S    
C13   H8    S    
C21   O7    A    
C19   C20   T    
H14   N6    S    
C11   H3    S    
C17   O4    A    
C4    C8    S    
C1    O1    A    
C14   H13   S    
Cu1   O5    S    
C2    C7    S    
C15   H15   S    
C9    H18   S    
C11   H4    S    
Cu2   N1    S    
C10   H1    S    
C22   N4    S    
C7    C16   S    
C22   H22   S    
C1    O2    A    
C3    C8    S    
C4    H21   S    
H9    N5    S    
Cu2   O8    S    
C2    H23   S    
C3    N6    S    
C15   H16   S    
C9    H19   S    
C11   N3    S    
C2    N3    S    
C6    C16   T    
C7    C22   S    
C15   N6    S    
C18   O5    A    
Cu1   O7    S    
C14   N5    S    
C15   H17   S    
C5    C12   T    
Cu2   O4    S    
N1    N2    T    
C1    C20   S    
C18   O6    A    
C14   H11   S    
Cu1   O3    S    
C6    C17   S    
Cu1   N2    S    
C10   H12   S    
Cu2   O6    S    
C11   H2    S    
C21   O8    A    
C13   H7    S    
H24   N3    S    
C8    C12   S    
C17   O3    A    
C8    C9    S    
C3    C22   S    
H5    N4    S    
C3    H20   S    
