data_mof_unit_50806.cif
_audit_creation_date              2012-10-26T19:04:43-0400
_audit_creation_method            fapswitch 2.2
_symmetry_space_group_name_H-M    P1
_symmetry_Int_Tables_number       1
_space_group_crystal_system       triclinic
_cell_length_a                    9.583834
_cell_length_b                    10.826391
_cell_length_c                    13.456951
_cell_angle_alpha                 92.324648
_cell_angle_beta                  72.970764
_cell_angle_gamma                 90.013
_cell_volume                      1333.85403246

loop_
_atom_site_label
_atom_site_type_symbol
_atom_type_description
_atom_site_fract_x
_atom_site_fract_y
_atom_site_fract_z
_atom_type_partial_charge
C1    C     C_R   0.503264 0.736993 0.490775 0.592350
C2    C     C_R   0.379593 0.486093 0.812647 -0.007665
C3    C     C_R   0.270671 0.888561 0.432731 0.256285
C4    C     C_R   0.422182 0.502423 0.699948 0.537457
C5    C     C_R   0.131000 0.942551 0.464832 -0.104606
C6    C     C_R   0.104787 0.049903 0.528158 -0.179285
C7    C     C_R   0.221325 0.111405 0.549351 -0.110718
C8    C     C_R   0.364244 0.060838 0.512940 -0.006709
C9    C     C_R   0.381061 0.937745 0.473597 0.002056
C10   C     C_R   0.506237 0.871116 0.478835 0.008222
C11   C     C_R   0.627515 0.935839 0.490430 -0.161445
C12   C     C_R   0.461213 0.462703 0.967350 0.050861
C13   C     C_R   0.622795 0.063441 0.501330 -0.157408
C14   C     C_R   0.491809 0.127696 0.512544 0.004592
C15   C     C_R   0.909493 0.329514 0.367882 -0.098267
C16   C     C_R   0.496420 0.262568 0.507241 0.537240
C17   C     C_R   0.004424 0.238278 0.310815 -0.162007
C18   C     C_R   0.147022 0.235583 0.313276 -0.118985
C19   C     C_R   0.196693 0.326498 0.369802 -0.073578
C20   C     C_R   0.100931 0.415108 0.435776 0.168204
C21   C     C_R   0.951482 0.415767 0.435373 0.158177
C22   C     C_R   0.900921 0.580556 0.561305 0.005443
C23   C     C_R   0.474950 0.519967 0.871932 0.005722
C24   C     C_R   0.048902 0.580525 0.561296 0.019209
C25   C     C_R   0.578148 0.499887 0.300303 0.576846
C26   C     C_R   0.782375 0.599754 0.034124 -0.120495
C27   C     C_R   0.623497 0.510132 0.187398 0.031980
C28   C     C_R   0.260657 0.409972 0.854929 -0.172710
C29   C     C_R   0.251056 0.349495 0.945554 -0.086605
C30   C     C_R   0.356895 0.367212 0.996895 0.230490
C31   C     C_R   0.556992 0.499470 0.025968 0.059609
C32   C     C_R   0.680161 0.572625 0.980399 0.049608
C33   C     C_R   0.693939 0.625248 0.885385 -0.127846
C34   C     C_R   0.587351 0.606036 0.835643 -0.106222
C35   C     C_R   0.525842 0.476828 0.131927 -0.046450
C36   C     C_R   0.755673 0.565943 0.136687 -0.109004
Cl1   Cl    Cl    0.376903 0.245841 0.075181 -0.671744
Cu1   Cu    Cu3+1 0.359340 0.500010 0.500010 0.988169
Cu2   Cu    Cu3+1 0.640660 0.499990 0.499990 0.937786
H1    H     H_    0.832472 0.592595 0.178619 0.151756
H2    H     H_    0.311058 0.322955 0.357979 0.184902
H3    H     H_    0.782915 0.687107 0.852322 0.104181
H4    H     H_    0.083711 0.646628 0.611381 0.108349
H5    H     H_    0.879311 0.652097 0.998536 0.121173
H6    H     H_    0.420600 0.441810 0.174131 0.181983
H7    H     H_    0.185632 0.384337 0.811226 0.133946
H8    H     H_    0.169510 0.278797 0.969687 0.159995
H9    H     H_    0.595033 0.658669 0.767690 0.129975
H10   H     H_    0.726544 0.888046 0.491040 0.137768
H11   H     H_    0.537850 0.848737 0.244476 0.345619
H12   H     H_    0.044299 0.904889 0.436603 0.142674
H13   H     H_    0.996251 0.090489 0.554224 0.123438
H14   H     H_    0.197498 0.196628 0.596078 0.153195
H15   H     H_    0.721369 0.111414 0.502957 0.138342
H16   H     H_    0.825169 0.646744 0.611379 0.102277
H17   H     H_    0.804986 0.328108 0.355778 0.184562
H18   H     H_    0.967588 0.170557 0.262899 0.148032
H19   H     H_    0.220897 0.164160 0.269005 0.211541
N1    N     N_R   0.852480 0.498790 0.499000 -0.242034
N2    N     N_R   0.148360 0.498710 0.498970 -0.226994
O1    O     O_R   0.381190 0.680360 0.500010 -0.464126
O2    O     O_2   0.265637 0.862780 0.236086 -0.280986
O3    O     O_3   0.495007 0.768501 0.269797 -0.527919
O4    O     O_R   0.618760 0.680340 0.500000 -0.514968
O5    O     O_R   0.323240 0.499990 0.650990 -0.516913
O6    O     O_R   0.560820 0.499960 0.650980 -0.502175
O7    O     O_R   0.381240 0.319660 0.500000 -0.545463
O8    O     O_R   0.618810 0.319640 0.499990 -0.527124
O9    O     O_R   0.439180 0.500040 0.349020 -0.461286
O10   O     O_R   0.676760 0.500010 0.349010 -0.528452
O11   O     O_2   0.234292 0.676163 0.334530 -0.244421
S1    S     S_3+6 0.314495 0.796029 0.316129 0.020596

loop_
_geom_bond_atom_site_label_1
_geom_bond_atom_site_label_2
_ccdc_geom_bond_type
C2    C4    S    
C15   C17   A    
C6    C7    A    
C3    C9    A    
C27   C36   A    
C20   N2    A    
C2    C28   A    
Cu2   O8    S    
C13   H15   S    
C19   C20   A    
Cu1   O5    S    
C15   C21   A    
C24   N2    A    
C23   C34   A    
Cu2   N1    S    
C32   C33   A    
Cu1   O1    S    
C3    S1    S    
Cu1   O9    S    
C26   H5    S    
O11   S1    D    
C16   O7    A    
C31   C32   A    
C13   C14   A    
C15   H17   S    
C4    O6    A    
H11   O3    S    
C11   C13   A    
C12   C23   A    
C28   H7    S    
C29   C30   A    
Cu2   O4    S    
C27   C35   A    
C29   H8    S    
Cu1   N2    S    
C33   H3    S    
C25   O10   A    
C22   C24   A    
C26   C36   A    
C28   C29   A    
Cu2   O10   S    
C33   C34   A    
C21   N1    A    
C31   C35   A    
C2    C23   A    
C12   C31   A    
C16   O8    A    
C24   H4    S    
Cu2   O6    S    
C14   C16   S    
O3    S1    S    
C25   O9    A    
C10   C11   A    
C7    H14   S    
O2    S1    D    
C35   H6    S    
C1    O4    A    
C36   H1    S    
C34   H9    S    
Cu1   O7    S    
C17   C18   A    
C18   C19   A    
C9    C10   A    
C22   N1    A    
C5    C6    A    
C7    C8    A    
C4    O5    A    
C5    H12   S    
C11   H10   S    
C22   H16   S    
C8    C14   A    
C6    H13   S    
C20   C21   A    
Cu1   Cu2   S    
C12   C30   A    
C18   H19   S    
C26   C32   A    
C1    C10   S    
C19   H2    S    
C30   Cl1   S    
C17   H18   S    
C8    C9    A    
C3    C5    A    
C25   C27   S    
C1    O1    A    
