data_mof_unit_7071.cif
_audit_creation_date              2012-10-26T19:42:43-0400
_audit_creation_method            fapswitch 2.2
_symmetry_space_group_name_H-M    P1
_symmetry_Int_Tables_number       1
_space_group_crystal_system       triclinic
_cell_length_a                    19.352654
_cell_length_b                    10.836316
_cell_length_c                    9.596191
_cell_angle_alpha                 90.287116
_cell_angle_beta                  89.477375
_cell_angle_gamma                 92.424152
_cell_volume                      2010.5252245

loop_
_atom_site_label
_atom_site_type_symbol
_atom_type_description
_atom_site_fract_x
_atom_site_fract_y
_atom_site_fract_z
_atom_type_partial_charge
C1    C     C_R   0.506360 0.263262 0.499848 0.583273
C2    C     C_R   0.854318 0.523314 0.489561 0.074124
C3    C     C_R   0.558202 0.117829 0.745872 0.113590
C4    C     C_R   0.367601 0.500321 0.500497 0.551879
C5    C     C_R   0.545566 0.063288 0.876474 -0.088451
C6    C     C_R   0.505422 0.954255 0.886614 -0.135443
C7    C     C_R   0.484421 0.891724 0.766001 -0.106364
C8    C     C_R   0.500927 0.940866 0.632757 -0.002104
C9    C     C_R   0.525772 0.064603 0.625797 0.028893
C10   C     C_R   0.515060 0.129518 0.500145 0.026521
C11   C     C_R   0.501546 0.063574 0.376819 -0.153467
C12   C     C_R   0.291768 0.502859 0.500762 0.019552
C13   C     C_R   0.494915 0.936118 0.378779 -0.157531
C14   C     C_R   0.494086 0.872877 0.505790 -0.002766
C15   C     C_R   0.592605 0.662669 0.143156 -0.092834
C16   C     C_R   0.496179 0.737719 0.501373 0.529184
C17   C     C_R   0.637816 0.742274 0.070619 -0.177997
C18   C     C_R   0.637760 0.742471 0.927074 -0.168119
C19   C     C_R   0.592492 0.663071 0.855192 -0.082375
C20   C     C_R   0.545680 0.579727 0.924706 0.146452
C21   C     C_R   0.545643 0.579691 0.074293 0.152595
C22   C     C_R   0.456339 0.425017 0.075619 -0.000334
C23   C     C_R   0.930742 0.522675 0.490772 0.365907
C24   C     C_R   0.455654 0.425064 0.928087 0.166345
C25   C     C_R   0.632486 0.503660 0.499247 0.548844
C26   C     C_R   0.255627 0.538602 0.620773 -0.102609
C27   C     C_R   0.183706 0.542749 0.619562 -0.110532
C28   C     C_R   0.146751 0.511093 0.498261 0.032646
C29   C     C_R   0.183124 0.475282 0.378346 -0.112534
C30   C     C_R   0.254931 0.471534 0.379507 -0.129317
C31   C     C_2   0.614625 0.214033 0.733790 0.589214
C32   C     C_2   0.402999 0.344008 0.860839 0.599739
C33   C     C_R   0.070737 0.515387 0.496114 0.340696
C34   C     C_R   0.818055 0.529214 0.616981 -0.146600
C35   C     C_R   0.746028 0.524106 0.620416 -0.158670
C36   C     C_R   0.708556 0.512245 0.496450 -0.012803
C37   C     C_R   0.744267 0.509597 0.368725 -0.120517
C38   C     C_R   0.816588 0.515538 0.363995 0.099083
Cu1   Cu    Cu3+1 0.500000 0.499990 0.640660 1.001083
Cu2   Cu    Cu3+1 0.500000 0.500010 0.359340 0.936499
H1    H     H_    0.282940 0.565154 0.714954 0.165303
H2    H     H_    0.596134 0.672486 0.745432 0.181231
H3    H     H_    0.157182 0.570966 0.713551 0.145994
H4    H     H_    0.156244 0.450469 0.283108 0.148317
H5    H     H_    0.281565 0.443545 0.285482 0.138113
H6    H     H_    0.845359 0.535595 0.714933 0.147409
H7    H     H_    0.719749 0.527608 0.720419 0.158471
H8    H     H_    0.716241 0.502645 0.271550 0.140512
H9    H     H_    0.495656 0.110346 0.278380 0.141908
H10   H     H_    0.696231 0.280136 0.621152 0.340122
H11   H     H_    0.377087 0.175204 0.783603 0.334708
H12   H     H_    0.567881 0.103572 0.970218 0.140408
H13   H     H_    0.835449 0.434581 0.178233 0.243928
H14   H     H_    0.834462 0.590440 0.174026 0.231832
H15   H     H_    0.493797 0.914440 0.987844 0.118808
H16   H     H_    0.453355 0.807516 0.779626 0.153650
H17   H     H_    0.488574 0.887385 0.280563 0.138291
H18   H     H_    0.420549 0.364275 0.132895 0.122375
H19   H     H_    0.596736 0.670862 0.252933 0.183212
H20   H     H_    0.672985 0.804693 0.126550 0.131433
H21   H     H_    0.672723 0.805320 0.870635 0.133651
N1    N     N_R   0.035008 0.477073 0.381771 -0.224083
N2    N     N_R   0.966467 0.480374 0.379361 -0.162694
N3    N     N_R   0.966482 0.560640 0.605471 -0.235045
N4    N     N_R   0.035115 0.557229 0.608046 -0.223166
N5    N     N_R   0.500660 0.501210 0.147910 -0.260476
N6    N     N_R   0.500680 0.501290 0.852040 -0.264427
N7    N     N_3   0.851043 0.515470 0.231191 -0.589908
O1    O     O_R   0.499990 0.319640 0.618810 -0.457435
O2    O     O_R   0.654873 0.220461 0.612177 -0.710414
O3    O     O_2   0.344461 0.379764 0.846718 -0.543675
O4    O     O_R   0.417945 0.222760 0.826261 -0.700780
O5    O     O_R   0.500000 0.319660 0.381240 -0.508028
O6    O     O_R   0.400140 0.499970 0.618820 -0.476963
O7    O     O_R   0.400150 0.500000 0.381250 -0.510265
O8    O     O_R   0.500000 0.680340 0.618760 -0.547831
O9    O     O_R   0.500010 0.680360 0.381190 -0.526914
O10   O     O_R   0.599850 0.500000 0.618750 -0.499784
O11   O     O_R   0.599860 0.500030 0.381180 -0.519949
O12   O     O_2   0.628093 0.283480 0.831628 -0.522596

loop_
_geom_bond_atom_site_label_1
_geom_bond_atom_site_label_2
_ccdc_geom_bond_type
C21   N5    A    
C20   N6    A    
C35   C36   A    
C6    H15   S    
C35   H7    S    
C33   N4    A    
C7    C8    A    
C32   O4    S    
C26   C27   A    
C29   C30   A    
C3    C9    A    
C28   C29   A    
C37   C38   A    
C34   C35   A    
C5    C6    A    
C13   H17   S    
Cu2   O5    S    
C18   C19   A    
Cu1   O6    S    
H13   N7    S    
C22   N5    A    
C4    O7    A    
C30   H5    S    
C24   N6    A    
C31   O2    S    
C19   C20   A    
C33   N1    A    
C5    H12   S    
C34   H6    S    
C4    C12   S    
C9    C10   A    
C4    O6    A    
C19   H2    S    
C2    C34   A    
C23   N2    A    
Cu2   N5    S    
C13   C14   A    
Cu1   N6    S    
C7    H16   S    
C32   O3    D    
C25   O10   A    
Cu1   O10   S    
C31   O12   D    
Cu1   Cu2   S    
C8    C9    A    
C25   C36   S    
C1    O1    A    
C12   C26   A    
C24   C32   S    
N1    N2    A    
C11   H9    S    
C2    C38   A    
C17   C18   A    
Cu1   O1    S    
Cu2   O11   S    
Cu1   O8    S    
C37   H8    S    
C3    C31   S    
C23   N3    A    
C38   N7    S    
C28   C33   S    
C29   H4    S    
C14   C16   S    
H11   O4    S    
C2    C23   S    
C15   C17   A    
C36   C37   A    
C8    C14   A    
C12   C30   A    
C16   O8    A    
C15   H19   S    
C1    C10   S    
C3    C5    A    
C25   O11   A    
C22   H18   S    
C18   H21   S    
C6    C7    A    
Cu2   O7    S    
C1    O5    A    
N3    N4    A    
H10   O2    S    
C11   C13   A    
C22   C24   A    
C10   C11   A    
C17   H20   S    
C27   H3    S    
C15   C21   A    
H14   N7    S    
C20   C21   A    
C27   C28   A    
Cu2   O9    S    
C16   O9    A    
C26   H1    S    
