data_mof_unit_20327.cif
_audit_creation_date              2012-12-10T17:43:39-0500
_audit_creation_method            fapswitch 2.2
_symmetry_space_group_name_H-M    P1
_symmetry_Int_Tables_number       1
_space_group_crystal_system       triclinic
_cell_length_a                    14.989994
_cell_length_b                    10.61481
_cell_length_c                    9.921408
_cell_angle_alpha                 90.130493
_cell_angle_beta                  89.878642
_cell_angle_gamma                 91.806643
_cell_volume                      1577.86201283

loop_
_atom_site_label
_atom_site_type_symbol
_atom_type_description
_atom_site_fract_x
_atom_site_fract_y
_atom_site_fract_z
_atom_type_partial_charge
C1    C     C_R   0.502019 0.260803 0.500001 0.852848
C2    C     C_R   0.184333 0.472601 0.619600 -0.264291
C3    C     C_R   0.230863 0.500046 0.500398 -0.075786
C4    C     C_R   0.326776 0.500052 0.500156 0.874364
C5    C     C_R   0.185825 0.526429 0.380980 -0.275004
C6    C     C_R   0.657871 0.138509 0.603448 -0.173182
C7    C     C_R   0.731242 0.076067 0.653496 -0.133887
C8    C     C_R   0.731145 0.944897 0.653665 -0.135547
C9    C     C_R   0.657690 0.875747 0.603750 -0.189885
C10   C     C_R   0.582490 0.937736 0.553544 0.090700
C11   C     C_R   0.582602 0.069771 0.553354 0.098400
C12   C     C_R   0.907945 0.522419 0.378829 0.117432
C13   C     C_R   0.507506 0.128770 0.500077 -0.078252
C14   C     C_R   0.435054 0.061527 0.446088 -0.227723
C15   C     C_R   0.435114 0.932760 0.445425 -0.199810
C16   C     C_R   0.501965 0.739401 0.500088 0.871334
C17   C     C_R   0.507344 0.871966 0.500223 -0.092540
C18   C     C_R   0.382285 0.334610 0.139333 -0.179063
C19   C     C_R   0.322936 0.253981 0.068829 0.198435
C20   C     C_R   0.323307 0.256182 0.928677 -0.259757
C21   C     C_R   0.381981 0.336672 0.859573 -0.198914
C22   C     C_R   0.441748 0.419361 0.927615 0.174245
C23   C     C_R   0.952025 0.443625 0.738844 -0.229456
C24   C     C_R   0.441812 0.418956 0.072039 0.124092
C25   C     C_R   0.555714 0.577268 0.071491 -0.108194
C26   C     C_R   0.555742 0.577163 0.928423 -0.114067
C27   C     C_R   0.673238 0.499909 0.499854 0.861808
C28   C     C_R   0.815688 0.522992 0.379831 -0.252120
C29   C     C_R   0.769125 0.498055 0.499567 -0.071834
C30   C     C_R   0.814075 0.471038 0.618934 -0.281221
C31   C     C_R   0.906336 0.469954 0.619744 0.120360
C32   C     C_R   0.953544 0.496257 0.499352 0.060758
C33   C     C_3   0.261312 0.162035 0.142457 -0.428537
C34   C     C_R   0.044746 0.444098 0.739040 -0.222326
C35   C     C_3   0.195678 0.229061 0.233583 -0.861423
C36   C     C_R   0.092014 0.471083 0.620170 0.120031
C37   C     C_R   0.046372 0.497065 0.499626 0.063729
C38   C     C_R   0.093562 0.524407 0.379478 0.122844
C39   C     C_R   0.047894 0.549306 0.260028 -0.228325
C40   C     C_R   0.955197 0.548258 0.259685 -0.219603
H1    H     H_    0.780318 0.544117 0.287731 0.158906
H2    H     H_    0.378725 0.330710 0.752716 0.214620
H3    H     H_    0.777405 0.450491 0.711082 0.162337
H4    H     H_    0.601309 0.640272 0.874699 0.144401
H5    H     H_    0.916114 0.423156 0.831576 0.145524
H6    H     H_    0.079446 0.423878 0.831892 0.148329
H7    H     H_    0.219757 0.451672 0.711683 0.164068
H8    H     H_    0.222446 0.547950 0.289014 0.170956
H9    H     H_    0.083821 0.569726 0.167295 0.146729
H10   H     H_    0.920522 0.568055 0.166718 0.144234
H11   H     H_    0.377743 0.109293 0.407310 0.137978
H12   H     H_    0.661123 0.240337 0.603229 0.146623
H13   H     H_    0.231414 0.275014 0.319191 0.253790
H14   H     H_    0.159378 0.300744 0.175679 0.268030
H15   H     H_    0.146334 0.159302 0.275349 0.254033
H16   H     H_    0.222247 0.102619 0.069814 0.210293
H17   H     H_    0.301546 0.097363 0.203369 0.202976
H18   H     H_    0.788540 0.129652 0.691405 0.140089
H19   H     H_    0.788381 0.896558 0.691710 0.138827
H20   H     H_    0.660868 0.774098 0.603586 0.139986
H21   H     H_    0.378053 0.880161 0.404698 0.148345
H22   H     H_    0.601272 0.640424 0.125157 0.142764
H23   H     H_    0.380281 0.328535 0.246250 0.208776
H24   H     H_    0.278544 0.194192 0.871773 0.149607
N1    N     N_R   0.499150 0.498800 0.142780 -0.115545
N2    N     N_R   0.499120 0.498720 0.857170 -0.117020
O1    O     O_R   0.500000 0.316780 0.614690 -0.638282
O2    O     O_R   0.499990 0.316750 0.385360 -0.630205
O3    O     O_R   0.367850 0.499980 0.614680 -0.637651
O4    O     O_R   0.367840 0.499960 0.385350 -0.644077
O5    O     O_R   0.500010 0.683250 0.614640 -0.613064
O6    O     O_R   0.500000 0.683220 0.385310 -0.612312
O7    O     O_R   0.632160 0.500040 0.614650 -0.635955
O8    O     O_R   0.632150 0.500020 0.385320 -0.618556
Zn1   Zn    Zn3+2 0.500010 0.500020 0.653130 0.933027
Zn2   Zn    Zn3+2 0.499990 0.499980 0.346870 0.936786

loop_
_geom_bond_atom_site_label_1
_geom_bond_atom_site_label_2
_ccdc_geom_bond_type
C12   C40   A    
C23   H5    S    
C35   H13   S    
C19   C20   A    
C16   O6    A    
O6    Zn2   S    
C4    O4    A    
C26   H4    S    
C7    C8    A    
C29   C30   A    
N1    Zn2   S    
O8    Zn2   S    
C12   C28   A    
C18   C24   A    
C28   C29   A    
C8    H19   S    
C38   C39   A    
C18   H23   S    
C27   C29   S    
C10   C17   A    
C28   H1    S    
C1    O2    A    
C18   C19   A    
C22   N2    A    
C1    O1    A    
C14   H11   S    
C8    C9    A    
C34   H6    S    
C13   C14   A    
C27   O8    A    
C9    C10   A    
C7    H18   S    
C33   H16   S    
C21   C22   A    
C12   C32   A    
C35   H14   S    
O7    Zn1   S    
C16   O5    A    
C4    O3    A    
C5    H8    S    
C35   H15   S    
C26   N2    A    
C25   N1    A    
C19   C33   S    
C39   C40   A    
C16   C17   S    
C25   C26   A    
C23   C31   A    
C20   H24   S    
C37   C38   A    
C31   C32   A    
C23   C34   A    
C15   H21   S    
C32   C37   A    
C24   N1    A    
C39   H9    S    
O4    Zn2   S    
C22   C24   A    
C30   H3    S    
C1    C13   S    
C3    C4    S    
C6    C11   A    
C2    C36   A    
C15   C17   A    
C36   C37   A    
C33   H17   S    
C3    C5    A    
C6    C7    A    
C2    H7    S    
O2    Zn2   S    
C9    H20   S    
C2    C3    A    
C27   O7    A    
O5    Zn1   S    
C11   C13   A    
C30   C31   A    
C40   H10   S    
N2    Zn1   S    
C33   C35   S    
O3    Zn1   S    
C34   C36   A    
C25   H22   S    
C10   C11   A    
C21   H2    S    
O1    Zn1   S    
C20   C21   A    
C14   C15   A    
C6    H12   S    
C5    C38   A    
