data_mof_unit_14645.cif
_audit_creation_date              2012-12-10T18:57:10-0500
_audit_creation_method            fapswitch 2.2
_symmetry_space_group_name_H-M    P1
_symmetry_Int_Tables_number       1
_space_group_crystal_system       triclinic
_cell_length_a                    10.742508
_cell_length_b                    9.863367
_cell_length_c                    10.6468
_cell_angle_alpha                 89.753764
_cell_angle_beta                  91.30029
_cell_angle_gamma                 89.409221
_cell_volume                      1127.74413698

loop_
_atom_site_label
_atom_site_type_symbol
_atom_type_description
_atom_site_fract_x
_atom_site_fract_y
_atom_site_fract_z
_atom_type_partial_charge
C1    C     C_R   0.259863 0.501624 0.502575 0.895735
C2    C     C_R   0.403269 0.562435 0.932869 -0.027165
C3    C     C_R   0.496185 0.497078 0.128613 -0.075266
C4    C     C_R   0.498773 0.496696 0.871214 -0.057635
C5    C     C_R   0.582037 0.413527 0.067881 -0.209931
C6    C     C_R   0.583136 0.413103 0.937911 -0.233390
C7    C     C_3   0.346184 0.701028 0.922235 -0.001478
C8    C     C_3   0.342242 0.699455 0.066193 -0.013022
C9    C     C_R   0.064946 0.392920 0.546300 -0.261195
C10   C     C_R   0.937701 0.391008 0.541342 -0.249906
C11   C     C_R   0.871954 0.501481 0.490661 -0.098186
C12   C     C_R   0.739646 0.499825 0.494968 0.898578
C13   C     C_R   0.126904 0.507495 0.504884 -0.099794
C14   C     C_R   0.932803 0.616659 0.444554 0.144538
C15   C     C_R   0.061112 0.624503 0.461856 0.170987
C16   C     C_3   0.377720 0.937048 0.864701 -0.792817
C17   C     C_3   0.148054 0.823701 0.097341 -0.835289
C18   C     C_3   0.835052 0.842674 0.431154 -0.725998
C19   C     C_3   0.138072 0.831639 0.553699 -0.749305
C20   C     C_3   0.768180 0.092145 0.703733 -0.880997
C21   C     C_3   0.225724 0.139071 0.338604 -0.783853
C22   C     C_R   0.570765 0.070706 0.586635 0.229223
C23   C     C_R   0.430852 0.072798 0.412428 0.225602
C24   C     C_R   0.567699 0.926346 0.587858 -0.122877
C25   C     C_R   0.432850 0.928777 0.411650 -0.164343
C26   C     C_R   0.498328 0.500057 0.260364 0.886270
C27   C     C_R   0.501189 0.499661 0.739610 0.871754
C28   C     C_R   0.399806 0.560378 0.060855 -0.014390
H1    H     H_    0.114765 0.306029 0.585523 0.165136
H2    H     H_    0.058376 0.817655 0.146325 0.225832
H3    H     H_    0.127338 0.844893 0.996464 0.243458
H4    H     H_    0.203047 0.908244 0.137540 0.244695
H5    H     H_    0.254562 0.699287 0.871309 0.145777
H6    H     H_    0.402527 0.774554 0.115360 0.156941
H7    H     H_    0.898605 0.727941 0.280816 0.201813
H8    H     H_    0.905867 0.920646 0.411627 0.208920
H9    H     H_    0.826962 0.829164 0.534313 0.243484
H10   H     H_    0.744414 0.880184 0.392214 0.247800
H11   H     H_    0.091377 0.805291 0.364925 0.229178
H12   H     H_    0.890732 0.303311 0.577520 0.189164
H13   H     H_    0.046568 0.867298 0.587453 0.218619
H14   H     H_    0.195667 0.921236 0.532942 0.233633
H15   H     H_    0.185415 0.772736 0.630376 0.251974
H16   H     H_    0.594831 0.161533 0.758445 0.226102
H17   H     H_    0.766652 0.997184 0.760015 0.227547
H18   H     H_    0.820205 0.168946 0.759173 0.242653
H19   H     H_    0.817592 0.074242 0.614714 0.249989
H20   H     H_    0.381667 0.119466 0.230164 0.204066
H21   H     H_    0.190684 0.035945 0.318427 0.209389
H22   H     H_    0.177612 0.212599 0.274397 0.242363
H23   H     H_    0.651422 0.354812 0.120592 0.149636
H24   H     H_    0.203084 0.164799 0.436677 0.254546
H25   H     H_    0.619566 0.869066 0.658571 0.157831
H26   H     H_    0.378951 0.874478 0.341448 0.163540
H27   H     H_    0.653449 0.354449 0.890261 0.150962
H28   H     H_    0.519156 0.799671 0.914817 0.229098
H29   H     H_    0.445190 0.005554 0.820808 0.229287
H30   H     H_    0.356264 0.976814 0.959329 0.234342
H31   H     H_    0.291590 0.936395 0.804930 0.242889
H32   H     H_    0.164331 0.613993 0.084607 0.231474
N1    N     N_R   0.500000 0.857200 0.500000 -0.095862
N2    N     N_R   0.500000 0.142810 0.500000 -0.114040
N3    N     N_2   0.430719 0.802031 0.874741 -0.268385
N4    N     N_2   0.215919 0.696965 0.112031 -0.291007
N5    N     N_2   0.866500 0.716054 0.370632 -0.298834
N6    N     N_2   0.122803 0.749914 0.441471 -0.270975
N7    N     N_2   0.642936 0.141905 0.677891 -0.254611
N8    N     N_2   0.358608 0.144854 0.320663 -0.250907
O1    O     O_R   0.316770 0.614620 0.499990 -0.583296
O2    O     O_R   0.683230 0.614620 0.500010 -0.596307
O3    O     O_R   0.316800 0.385290 0.500000 -0.611460
O4    O     O_R   0.683200 0.385290 0.500000 -0.611126
O5    O     O_R   0.500000 0.614690 0.316780 -0.624263
O6    O     O_R   0.500000 0.614690 0.683220 -0.606240
O7    O     O_R   0.500020 0.385360 0.316780 -0.603552
O8    O     O_R   0.499980 0.385360 0.683220 -0.626793
Zn1   Zn    Zn3+2 0.500000 0.653120 0.500000 0.961946
Zn2   Zn    Zn3+2 0.500000 0.346880 0.500000 0.967727

loop_
_geom_bond_atom_site_label_1
_geom_bond_atom_site_label_2
_ccdc_geom_bond_type
C24   N1    A    
C20   N7    S    
O1    Zn1   S    
C2    C7    S    
C6    H27   S    
C21   H21   S    
C7    C8    S    
C18   N5    S    
C1    O3    A    
C3    C28   A    
C18   H9    S    
O8    Zn2   S    
C17   N4    S    
C5    C6    A    
C11   C14   A    
H7    N5    S    
C26   O5    A    
C19   N6    S    
C10   H12   S    
C9    C13   A    
O4    Zn2   S    
C8    H6    S    
C23   N2    A    
N1    Zn1   S    
O6    Zn1   S    
C16   N3    S    
C27   O6    A    
C9    C10   A    
C20   H17   S    
C19   H14   S    
C9    H1    S    
C12   O4    A    
O2    Zn1   S    
C17   H2    S    
C7    H5    S    
C21   H22   S    
C19   H15   S    
C21   H24   S    
C25   H26   S    
C4    C6    A    
C16   H30   S    
C24   H25   S    
C15   N6    S    
C1    O1    A    
C16   H31   S    
C23   N8    S    
C2    C4    A    
C22   N2    A    
C26   O7    A    
H28   N3    S    
C25   N1    A    
H20   N8    S    
C7    N3    S    
C8    N4    S    
C13   C15   A    
C21   N8    S    
C17   H3    S    
H11   N6    S    
C22   C24   A    
C1    C13   S    
C27   O8    A    
C4    C27   S    
C12   O2    A    
N2    Zn2   S    
C3    C26   S    
C3    C5    A    
C11   C12   S    
H32   N4    S    
C18   H10   S    
C8    C28   S    
C14   N5    S    
C16   H29   S    
C23   C25   A    
O7    Zn2   S    
C22   N7    S    
C20   H19   S    
C10   C11   A    
C17   H4    S    
O5    Zn1   S    
C14   C15   A    
C5    H23   S    
H16   N7    S    
C2    C28   A    
C18   H8    S    
O3    Zn2   S    
C20   H18   S    
C19   H13   S    
