data_mof_unit_29535.cif
_audit_creation_date              2012-12-10T21:00:50-0500
_audit_creation_method            fapswitch 2.2
_symmetry_space_group_name_H-M    P1
_symmetry_Int_Tables_number       1
_space_group_crystal_system       triclinic
_cell_length_a                    18.139092
_cell_length_b                    18.18526
_cell_length_c                    18.319744
_cell_angle_alpha                 119.972358
_cell_angle_beta                  89.911349
_cell_angle_gamma                 119.972948
_cell_volume                      4279.88081178

loop_
_atom_site_label
_atom_site_type_symbol
_atom_type_description
_atom_site_fract_x
_atom_site_fract_y
_atom_site_fract_z
_atom_type_partial_charge
C1    C     C_R   0.109590 0.220085 0.609811 0.514909
C2    C     C_3   0.449784 0.897082 0.947084 0.041524
C3    C     C_1   0.265499 0.120068 0.092248 0.187577
C4    C     C_1   0.983226 0.706287 0.817581 0.167487
C5    C     C_1   0.020106 0.297060 0.184119 0.176251
C6    C     C_1   0.441254 0.066095 0.145861 0.193934
C7    C     C_1   0.558826 0.934027 0.854032 0.193853
C8    C     C_3   0.472018 0.031106 0.069127 -0.004915
C9    C     C_3   0.527948 0.968909 0.930695 -0.004763
C10   C     C_3   0.413045 0.430910 0.447958 -0.103590
C11   C     C_3   0.586978 0.569171 0.552051 -0.105052
C12   C     C_3   0.482197 0.404812 0.447759 -0.118192
C13   C     C_3   0.517824 0.595269 0.552252 -0.120135
C14   C     C_3   0.550936 0.500274 0.449518 0.060812
C15   C     C_3   0.449083 0.499802 0.550491 0.061140
C16   C     C_3   0.482732 0.526448 0.448919 -0.126686
C17   C     C_R   0.890314 0.779930 0.390176 0.505635
C18   C     C_3   0.517292 0.473636 0.551091 -0.125015
C19   C     C_R   0.057796 0.144925 0.833448 -0.097630
C20   C     C_R   0.928998 0.850552 0.165876 -0.098597
C21   C     C_R   0.392722 0.781013 0.888099 0.501984
C22   C     C_R   0.607273 0.218990 0.111840 0.503240
C23   C     C_R   0.059864 0.103053 0.745497 0.298673
C24   C     C_R   0.928490 0.889461 0.254180 0.296897
C25   C     C_R   0.007380 0.098416 0.684503 0.058452
C26   C     C_R   0.988938 0.901505 0.314396 0.059845
C27   C     C_R   0.950647 0.131869 0.711340 -0.012539
C28   C     C_3   0.921211 0.406246 0.450824 -0.124337
C29   C     C_R   0.047293 0.871454 0.284802 -0.011323
C30   C     C_R   0.947347 0.170032 0.798295 -0.120971
C31   C     C_R   0.046276 0.832152 0.196507 -0.119026
C32   C     C_R   0.000789 0.176583 0.859034 -0.156491
C33   C     C_R   0.987583 0.822076 0.137440 -0.152117
C34   C     C_R   0.955753 0.943631 0.535107 -0.132659
C35   C     C_R   0.044378 0.056413 0.464880 -0.109735
C36   C     C_R   0.947618 0.892241 0.444822 0.024016
C37   C     C_R   0.052305 0.107790 0.555118 0.033412
C38   C     C_R   0.992551 0.949276 0.409053 0.012122
C39   C     C_3   0.079121 0.594286 0.549387 -0.129943
C40   C     C_R   0.007022 0.050788 0.590808 0.013321
C41   C     C_R   0.688804 0.713728 0.883280 -0.113330
C42   C     C_R   0.310618 0.282830 0.113024 -0.113308
C43   C     C_R   0.642821 0.640108 0.902140 -0.104145
C44   C     C_R   0.356653 0.356623 0.094376 -0.106592
C45   C     C_R   0.111811 0.501723 0.890621 0.505499
C46   C     C_R   0.888247 0.498354 0.109440 0.508660
C47   C     C_R   0.596044 0.654502 0.963254 0.050499
C48   C     C_R   0.404298 0.342946 0.034033 0.056017
C49   C     C_R   0.597563 0.744679 0.006990 -0.081412
C50   C     C_3   0.413129 0.964078 0.970871 -0.132972
C51   C     C_R   0.403702 0.253381 0.990897 -0.075971
C52   C     C_R   0.643462 0.818234 0.987907 -0.096159
C53   C     C_R   0.358028 0.179849 0.010044 -0.106073
C54   C     C_R   0.688825 0.802615 0.925700 0.024922
C55   C     C_R   0.311596 0.194626 0.071322 0.022018
C56   C     C_R   0.593684 0.568536 0.032037 -0.164394
C57   C     C_R   0.406550 0.428479 0.964829 -0.151984
C58   C     C_R   0.550179 0.495495 0.051904 0.022195
C59   C     C_R   0.449983 0.502605 0.946116 0.023755
C60   C     C_R   0.455428 0.423424 0.017090 -0.032638
C61   C     C_3   0.586832 0.035935 0.028946 -0.132046
C62   C     C_R   0.544815 0.574104 0.980304 -0.034767
C63   C     C_R   0.182795 0.823501 0.999603 -0.091916
C64   C     C_R   0.819571 0.176990 0.001472 -0.095723
C65   C     C_R   0.150728 0.746503 0.014710 -0.077552
C66   C     C_R   0.850667 0.253723 0.986118 -0.077468
C67   C     C_R   0.063146 0.655340 0.964416 0.035952
C68   C     C_R   0.937852 0.345622 0.036506 0.035974
C69   C     C_R   0.392318 0.499985 0.607691 0.508865
C70   C     C_R   0.607687 0.500043 0.392309 0.508043
C71   C     C_R   0.007509 0.642533 0.899738 -0.094012
C72   C     C_3   0.492531 0.036796 0.954095 -0.147505
C73   C     C_R   0.994040 0.359488 0.101556 -0.096278
C74   C     C_R   0.039959 0.719817 0.884500 0.010391
C75   C     C_R   0.962617 0.282478 0.116994 0.007363
C76   C     C_R   0.127790 0.810212 0.934442 -0.089200
C77   C     C_R   0.875187 0.191292 0.066955 -0.089887
C78   C     C_R   0.972865 0.566699 0.029347 -0.158542
C79   C     C_R   0.027490 0.433785 0.971033 -0.159793
C80   C     C_R   0.943532 0.495883 0.051734 0.022406
C81   C     C_R   0.056662 0.504403 0.948474 0.022239
C82   C     C_R   0.970164 0.427298 0.020960 -0.031459
C83   C     C_3   0.507441 0.963228 0.045734 -0.146846
C84   C     C_R   0.030157 0.573122 0.979363 -0.030808
C85   C     C_R   0.394021 0.500992 0.889534 0.507356
C86   C     C_R   0.606009 0.498596 0.110044 0.498483
C87   C     C_R   0.108938 0.500168 0.607672 0.511087
C88   C     C_R   0.891172 0.499973 0.392355 0.510528
C89   C     C_3   0.014923 0.428136 0.448099 -0.098911
C90   C     C_3   0.985402 0.572400 0.552088 -0.104690
C91   C     C_3   0.041964 0.522204 0.446034 -0.116232
C92   C     C_3   0.958365 0.478336 0.554164 -0.112868
C93   C     C_3   0.949042 0.500214 0.449473 0.056107
C94   C     C_3   0.550185 0.102928 0.052745 0.041308
C95   C     C_3   0.051267 0.500266 0.550692 0.057615
C96   C     C_3   0.095554 0.990052 0.725136 0.002919
C97   C     C_3   0.177481 0.021198 0.787164 -0.260318
C98   C     C_3   0.157437 0.932354 0.792734 -0.475524
C99   C     C_3   0.781954 0.837238 0.238068 0.001393
C100  C     C_3   0.724987 0.863200 0.293706 -0.248450
C101  C     C_3   0.625593 0.772157 0.249052 -0.484319
C102  C     C_1   0.894587 0.126302 0.650248 0.184842
C103  C     C_1   0.109157 0.881415 0.344296 0.189277
C104  C     C_1   0.734890 0.877112 0.904676 0.188545
H1    H     H_    0.075350 0.539935 0.400667 0.127736
H2    H     H_    0.079628 0.099728 0.437325 0.151671
H3    H     H_    0.723799 0.700993 0.835187 0.121841
H4    H     H_    0.274849 0.294941 0.160448 0.123814
H5    H     H_    0.642548 0.571170 0.868245 0.111263
H6    H     H_    0.356236 0.425103 0.127788 0.107131
H7    H     H_    0.561762 0.756831 0.054308 0.092507
H8    H     H_    0.439863 0.241636 0.943852 0.101029
H9    H     H_    0.027609 0.368659 0.406058 0.161868
H10   H     H_    0.972819 0.631976 0.594156 0.152181
H11   H     H_    0.643013 0.886710 0.021047 0.100948
H12   H     H_    0.924980 0.460612 0.599534 0.129150
H13   H     H_    0.359327 0.111970 0.977550 0.097600
H14   H     H_    0.666471 0.623316 0.057966 0.130528
H15   H     H_    0.333785 0.372930 0.938087 0.153956
H16   H     H_    0.153634 0.870426 0.923236 0.112041
H17   H     H_    0.850158 0.131283 0.078388 0.120933
H18   H     H_    0.250378 0.893493 0.038489 0.139554
H19   H     H_    0.752297 0.106394 0.962499 0.139828
H20   H     H_    0.194128 0.757438 0.065078 0.106913
H21   H     H_    0.806871 0.241951 0.935423 0.107059
H22   H     H_    0.939707 0.572273 0.860971 0.108432
H23   H     H_    0.998477 0.206896 0.926358 0.134672
H24   H     H_    0.061562 0.430273 0.140328 0.107703
H25   H     H_    0.952236 0.618827 0.051946 0.143881
H26   H     H_    0.048436 0.381988 0.948737 0.145303
H27   H     H_    0.855618 0.329005 0.409450 0.120451
H28   H     H_    0.144673 0.671576 0.590821 0.114525
H29   H     H_    0.487066 0.067577 0.916658 0.104606
H30   H     H_    0.512892 0.932437 0.083166 0.104997
H31   H     H_    0.341724 0.934594 0.946730 0.113646
H32   H     H_    0.658263 0.065463 0.053009 0.116473
H33   H     H_    0.468602 0.326763 0.403822 0.142238
H34   H     H_    0.987739 0.792442 0.069482 0.132976
H35   H     H_    0.531421 0.673319 0.596190 0.140689
H36   H     H_    0.340803 0.374105 0.405966 0.143610
H37   H     H_    0.659221 0.625978 0.594043 0.140422
H38   H     H_    0.469576 0.547976 0.405928 0.116679
H39   H     H_    0.530465 0.452121 0.594087 0.119581
H40   H     H_    0.078106 0.923273 0.657015 0.163041
H41   H     H_    0.036027 0.961890 0.747411 0.122075
H42   H     H_    0.235228 0.043446 0.761966 0.181182
H43   H     H_    0.197051 0.089432 0.855175 0.166497
H44   H     H_    0.102257 0.911784 0.821225 0.168969
H45   H     H_    0.100008 0.152319 0.881859 0.113204
H46   H     H_    0.218629 0.956551 0.836571 0.135291
H47   H     H_    0.137477 0.862937 0.725423 0.154290
H48   H     H_    0.770208 0.765289 0.226319 0.168943
H49   H     H_    0.759777 0.822742 0.172895 0.127662
H50   H     H_    0.749619 0.882676 0.360600 0.187663
H51   H     H_    0.732148 0.931923 0.302837 0.181539
H52   H     H_    0.599100 0.751903 0.182450 0.147746
H53   H     H_    0.586179 0.793768 0.290948 0.153820
H54   H     H_    0.616686 0.703309 0.241292 0.153263
H55   H     H_    0.884847 0.843621 0.119563 0.113020
H56   H     H_    0.903540 0.195135 0.819246 0.125690
H57   H     H_    0.091355 0.809739 0.173451 0.126331
H58   H     H_    0.920278 0.900287 0.562583 0.135878
N1    N     N_1   0.849739 0.121827 0.601190 -0.305670
N2    N     N_1   0.158665 0.889366 0.392052 -0.296909
N3    N     N_1   0.771958 0.936618 0.887370 -0.306227
N4    N     N_1   0.228392 0.060592 0.109571 -0.301420
N5    N     N_1   0.937582 0.695430 0.763828 -0.336910
N6    N     N_1   0.066397 0.308799 0.238038 -0.319599
N7    N     N_1   0.417019 0.093808 0.206404 -0.293440
N8    N     N_1   0.583161 0.906407 0.793550 -0.296002
O1    O     O_3   0.251620 0.500000 0.748430 -0.447508
O2    O     O_R   0.570330 0.268390 0.136490 -0.532174
O3    O     O_R   0.134680 0.268390 0.572240 -0.546402
O4    O     O_R   0.865320 0.731610 0.427760 -0.550104
O5    O     O_R   0.306670 0.731630 0.863510 -0.547257
O6    O     O_R   0.693330 0.268370 0.136490 -0.546105
O7    O     O_R   0.135450 0.439270 0.865360 -0.551529
O8    O     O_R   0.864550 0.560730 0.134640 -0.550209
O9    O     O_R   0.429670 0.560710 0.692610 -0.534351
O10   O     O_R   0.570330 0.439290 0.307390 -0.534212
O11   O     O_R   0.308540 0.439240 0.865360 -0.551528
O12   O     O_3   0.748380 0.500000 0.251570 -0.441014
O13   O     O_R   0.691460 0.560760 0.134640 -0.575534
O14   O     O_R   0.133580 0.439310 0.571150 -0.538583
O15   O     O_R   0.866420 0.560690 0.428850 -0.543236
O16   O     O_R   0.430770 0.560690 0.864590 -0.535233
O17   O     O_R   0.569230 0.439310 0.135410 -0.532984
O18   O     O_R   0.133580 0.560760 0.692610 -0.540759
O19   O     O_R   0.866420 0.439240 0.307390 -0.538908
O20   O     O_3   0.117842 0.073612 0.719998 -0.564236
O21   O     O_3   0.873532 0.922274 0.284586 -0.568162
O22   O     O_R   0.134680 0.560740 0.864590 -0.533020
O23   O     O_R   0.865320 0.439260 0.135410 -0.531761
O24   O     O_R   0.306670 0.439270 0.571150 -0.545304
O25   O     O_R   0.693330 0.560730 0.428850 -0.547029
O26   O     O_R   0.135450 0.268370 0.694460 -0.528497
O27   O     O_R   0.864550 0.731630 0.305540 -0.553998
O28   O     O_R   0.429670 0.731610 0.863510 -0.533915
Zn1   Zn    Zn3+2 0.207400 0.586780 0.791530 0.938936
Zn2   Zn    Zn3+2 0.792600 0.413220 0.208470 0.942935
Zn3   Zn    Zn3+2 0.208510 0.413230 0.792630 0.945924
Zn4   Zn    Zn3+2 0.791490 0.586770 0.207370 0.913679
Zn5   Zn    Zn3+2 0.383150 0.586740 0.791530 0.948199
Zn6   Zn    Zn3+2 0.616850 0.413260 0.208470 0.946739
Zn7   Zn    Zn3+2 0.207400 0.413250 0.618010 0.950067
Zn8   Zn    Zn3+2 0.792600 0.586750 0.381990 0.935174

loop_
_geom_bond_atom_site_label_1
_geom_bond_atom_site_label_2
_ccdc_geom_bond_type
C15   C18   S    
C66   C68   A    
C63   C65   A    
C11   C18   S    
C5    C75   S    
C51   H8    S    
C89   C95   S    
C8    C83   S    
C73   C75   A    
C64   C77   A    
C46   O8    A    
C19   C23   A    
C9    C72   S    
C21   O28   A    
C63   H18   S    
C47   C62   S    
C31   H57   S    
C97   C98   S    
C47   C49   A    
C30   H56   S    
C96   H41   S    
C1    O3    A    
C103  N2    T    
C76   H16   S    
C74   C76   A    
C90   C93   S    
O12   Zn6   S    
C13   H35   S    
C32   H23   S    
C54   C104  S    
C18   H39   S    
C35   C37   A    
C78   H25   S    
C24   C26   A    
C37   C40   A    
C50   H31   S    
C25   C40   S    
C34   H58   S    
C11   C14   S    
C78   C80   A    
C57   C59   A    
C67   C71   A    
C91   C93   S    
C39   H28   S    
C58   C60   A    
C29   C103  S    
C97   H42   S    
C65   H20   S    
C96   O20   S    
O2    Zn6   S    
C50   C72   S    
C100  C101  S    
C83   H30   S    
O1    Zn1   S    
C2    C50   S    
C71   C74   A    
C104  N3    T    
C3    C55   S    
C48   C51   A    
C20   C24   A    
C70   O25   A    
C65   C67   A    
C20   H55   S    
C87   C95   S    
C31   C33   A    
C71   H22   S    
C17   O27   A    
C28   C89   S    
C17   C36   S    
O1    Zn7   S    
C41   C43   A    
C39   C90   S    
C4    C74   S    
C45   O7    A    
C57   H15   S    
C72   C94   S    
C90   H10   S    
C101  H53   S    
C86   O17   A    
C27   C30   A    
C22   C94   S    
C2    C83   S    
C14   C70   S    
C42   C44   A    
O6    Zn2   S    
C73   H24   S    
C19   C32   A    
C58   C86   S    
C39   C91   S    
C52   C54   A    
C48   C60   S    
C98   H47   S    
C53   C55   A    
C88   O19   A    
C15   C69   S    
C89   H9    S    
C91   H1    S    
C42   H4    S    
C45   C81   S    
C30   C32   A    
C35   C38   A    
O12   Zn2   S    
C80   C82   A    
C61   C83   S    
C87   O14   A    
C79   C81   A    
C61   C94   S    
C102  N1    T    
C57   C60   A    
C6    C8    S    
O18   Zn1   S    
C21   O5    A    
C68   C73   A    
C79   H26   S    
O17   Zn6   S    
C92   C95   S    
O14   Zn7   S    
C28   C93   S    
O12   Zn8   S    
C64   C66   A    
O1    Zn3   S    
C16   H38   S    
C59   C85   S    
C9    C61   S    
C42   C55   A    
C96   H40   S    
C92   H12   S    
C45   O22   A    
C90   C92   S    
C99   C100  S    
C13   C15   S    
C33   H34   S    
C49   C52   A    
O5    Zn1   S    
C96   C97   S    
C1    O26   A    
C2    C21   S    
C8    C94   S    
O27   Zn4   S    
C28   C92   S    
C75   C77   A    
C39   C95   S    
C97   H43   S    
C10   C12   S    
C20   C33   A    
O19   Zn2   S    
C88   O15   A    
O9    Zn5   S    
C101  H54   S    
C10   H36   S    
C86   O13   A    
C56   C62   A    
C13   C16   S    
C89   C91   S    
C64   H19   S    
C8    C50   S    
C81   C84   A    
C17   O4    A    
C100  H51   S    
C46   O23   A    
C98   H46   S    
C52   H11   S    
C100  H50   S    
C85   O16   A    
C7    C9    S    
O24   Zn7   S    
C88   C93   S    
C59   C62   A    
C85   O11   A    
C41   H3    S    
C14   C16   S    
O12   Zn4   S    
O13   Zn4   S    
C56   H14   S    
O15   Zn8   S    
O22   Zn1   S    
O11   Zn3   S    
C12   C14   S    
O10   Zn6   S    
C79   C82   A    
C22   O6    A    
C66   H21   S    
C87   O18   A    
C1    C37   S    
C25   C27   A    
C11   H37   S    
C43   H5    S    
C99   H48   S    
C27   C102  S    
C101  H52   S    
C4    N5    T    
C49   H7    S    
C10   C15   S    
C28   H27   S    
C26   C38   S    
O8    Zn4   S    
C68   C82   S    
C29   C31   A    
C35   H2    S    
C10   C16   S    
C69   O9    A    
C99   O21   S    
C5    N6    T    
C11   C13   S    
C70   O10   A    
C72   H29   S    
O25   Zn8   S    
C98   H44   S    
C53   H13   S    
C99   H49   S    
C36   C38   A    
C69   O24   A    
C19   H45   S    
C34   C36   A    
C56   C58   A    
O16   Zn5   S    
C24   O21   S    
O7    Zn3   S    
C23   C25   A    
O1    Zn5   S    
C41   C54   A    
C77   H17   S    
O23   Zn2   S    
C78   C84   A    
C67   C84   S    
C3    N4    T    
C26   C29   A    
C63   C76   A    
C7    N8    T    
C12   C18   S    
O28   Zn5   S    
O4    Zn8   S    
C12   H33   S    
C34   C40   A    
O3    Zn7   S    
C46   C80   S    
C51   C53   A    
O26   Zn3   S    
C2    C9    S    
C43   C47   A    
C23   O20   S    
C22   O2    A    
C44   C48   A    
C61   H32   S    
C6    N7    T    
C44   H6    S    
