data_mof_unit_26892.cif
_audit_creation_date              2012-12-11T15:55:01-0500
_audit_creation_method            fapswitch 2.2
_symmetry_space_group_name_H-M    P1
_symmetry_Int_Tables_number       1
_space_group_crystal_system       triclinic
_cell_length_a                    17.608545
_cell_length_b                    24.443085
_cell_length_c                    15.117944
_cell_angle_alpha                 89.950519
_cell_angle_beta                  126.464394
_cell_angle_gamma                 90.030029
_cell_volume                      5232.99548453

loop_
_atom_site_label
_atom_site_type_symbol
_atom_type_description
_atom_site_fract_x
_atom_site_fract_y
_atom_site_fract_z
_atom_type_partial_charge
C1    C     C_R   0.903397 0.873737 0.090743 -0.173772
C2    C     C_R   0.144657 0.846920 0.092342 0.076697
C3    C     C_R   0.314393 0.641856 0.995896 -0.075642
C4    C     C_R   0.696971 0.999793 0.632016 0.000415
C5    C     C_R   0.196971 0.499793 0.632016 0.000413
C6    C     C_R   0.075088 0.998924 0.372518 -0.077127
C7    C     C_R   0.575058 0.498921 0.372503 -0.077160
C8    C     C_R   0.266744 0.954497 0.241125 -0.135172
C9    C     C_R   0.266580 0.045860 0.241315 -0.131425
C10   C     C_R   0.766744 0.454497 0.241125 -0.135154
C11   C     C_R   0.766580 0.545861 0.241315 -0.131428
C12   C     C_R   0.012769 0.045771 0.743933 -0.142228
C13   C     C_R   0.643435 0.653121 0.092703 0.070825
C14   C     C_R   0.012788 0.953385 0.745449 -0.141005
C15   C     C_R   0.512781 0.545771 0.743947 -0.142220
C16   C     C_R   0.512794 0.453386 0.745457 -0.141012
C17   C     C_1   0.759343 0.156888 0.799944 -0.055512
C18   C     C_1   0.760117 0.842195 0.800572 -0.057638
C19   C     C_1   0.259345 0.656889 0.799944 -0.055510
C20   C     C_1   0.260116 0.342195 0.800571 -0.057644
C21   C     C_3   0.538552 0.944040 0.630093 -1.026349
C22   C     C_3   0.547408 0.045542 0.648389 -1.034998
C23   C     C_3   0.038551 0.444038 0.630089 -1.026346
C24   C     C_R   0.644658 0.346920 0.092344 0.076693
C25   C     C_3   0.047409 0.545540 0.648390 -1.034996
C26   C     C_3   0.097213 0.100783 0.350730 -1.064512
C27   C     C_3   0.108633 0.900171 0.347695 -1.046105
C28   C     C_3   0.597209 0.600779 0.350741 -1.064461
C29   C     C_3   0.608608 0.400164 0.347686 -1.046091
C30   C     C_1   0.177646 0.171865 0.200887 -0.048023
C31   C     C_1   0.183817 0.827850 0.201870 -0.062689
C32   C     C_1   0.677648 0.671864 0.200888 -0.048037
C33   C     C_1   0.683822 0.327853 0.201875 -0.062673
C34   C     C_R   0.322686 0.000267 0.265803 -0.004619
C35   C     C_R   0.822686 0.500268 0.265803 -0.004631
C36   C     C_R   0.035892 0.999178 0.711828 -0.009343
C37   C     C_R   0.535899 0.499178 0.711837 -0.009345
C38   C     C_R   0.113330 0.814508 0.001948 -0.057596
C39   C     C_R   0.111946 0.185720 0.002476 -0.059754
C40   C     C_R   0.613331 0.314507 0.001950 -0.057605
C41   C     C_R   0.900992 0.124424 0.089362 -0.182394
C42   C     C_R   0.611945 0.685720 0.002476 -0.059749
C43   C     C_3   0.973992 0.022822 0.428105 -0.412514
C44   C     C_3   0.076759 0.939536 0.510148 -0.383803
C45   C     C_3   0.473984 0.522844 0.428111 -0.412536
C46   C     C_3   0.576674 0.439530 0.510087 -0.383845
C47   C     C_3   0.963468 0.023795 0.521144 -0.391305
C48   C     C_3   0.064597 0.939384 0.601559 -0.432463
C49   C     C_3   0.463505 0.523859 0.521184 -0.391290
C50   C     C_3   0.564473 0.439378 0.601466 -0.432431
C51   C     C_3   0.151752 0.032396 0.568280 -0.390160
C52   C     C_R   0.403396 0.373737 0.090743 -0.173824
C53   C     C_3   0.651756 0.532370 0.568279 -0.390148
C54   C     C_3   0.071284 0.998590 0.468660 0.406724
C55   C     C_3   0.571255 0.498587 0.468643 0.406757
C56   C     C_3   0.051923 0.998602 0.626907 0.409618
C57   C     C_3   0.551918 0.498603 0.626907 0.409628
C58   C     C_R   0.813637 0.129863 0.905269 0.102148
C59   C     C_R   0.814889 0.868859 0.906184 0.099161
C60   C     C_R   0.313638 0.629865 0.905270 0.102145
C61   C     C_R   0.314889 0.368859 0.906184 0.099163
C62   C     C_3   0.140657 0.031918 0.662366 -0.411072
C63   C     C_R   0.400995 0.624427 0.089363 -0.182385
C64   C     C_3   0.640713 0.531863 0.662406 -0.411103
C65   C     C_3   0.649242 0.178707 0.902768 -0.396577
C66   C     C_3   0.651528 0.821285 0.906592 -0.397591
C67   C     C_3   0.149244 0.678708 0.902768 -0.396575
C68   C     C_3   0.151528 0.321286 0.906594 -0.397591
C69   C     C_3   0.093214 0.725502 0.907575 -0.403342
C70   C     C_3   0.094421 0.274696 0.909924 -0.402827
C71   C     C_3   0.593213 0.225502 0.907577 -0.403338
C72   C     C_3   0.594421 0.774697 0.909925 -0.402834
C73   C     C_3   0.295207 0.740249 0.991556 -0.394061
C74   C     C_R   0.054889 0.846884 0.909913 -0.177001
C75   C     C_3   0.294487 0.257743 0.989881 -0.395911
C76   C     C_3   0.795206 0.240247 0.991557 -0.394059
C77   C     C_3   0.794489 0.757743 0.989885 -0.395909
C78   C     C_3   0.765113 0.182933 0.106744 -0.429262
C79   C     C_3   0.770046 0.814470 0.110229 -0.426648
C80   C     C_3   0.265115 0.682934 0.106744 -0.429268
C81   C     C_3   0.270050 0.314468 0.110231 -0.426645
C82   C     C_3   0.756513 0.184582 0.998451 0.417498
C83   C     C_3   0.758868 0.813646 0.000325 0.418010
C84   C     C_3   0.256515 0.684584 0.998451 0.417502
C85   C     C_R   0.054253 0.153333 0.910173 -0.175070
C86   C     C_3   0.258868 0.313645 0.000325 0.418007
C87   C     C_3   0.162249 0.765449 0.001933 0.397850
C88   C     C_3   0.162449 0.234022 0.003193 0.398251
C89   C     C_3   0.662248 0.265448 0.001935 0.397852
C90   C     C_3   0.662449 0.734022 0.003193 0.398252
C91   C     C_3   0.235253 0.786995 0.984731 -0.407818
C92   C     C_3   0.234377 0.211602 0.984888 -0.404484
C93   C     C_3   0.735253 0.286994 0.984733 -0.407814
C94   C     C_3   0.734377 0.711603 0.984888 -0.404487
C95   C     C_3   0.215272 0.732742 0.111701 -0.386487
C96   C     C_R   0.554889 0.346884 0.909914 -0.176999
C97   C     C_3   0.217039 0.265960 0.113778 -0.387773
C98   C     C_3   0.715270 0.232741 0.111702 -0.386491
C99   C     C_3   0.717038 0.765961 0.113778 -0.387770
C100  C     C_3   0.474413 0.947914 0.360543 -0.414210
C101  C     C_3   0.476144 0.050716 0.356753 -0.408885
C102  C     C_3   0.974413 0.447915 0.360543 -0.414210
C103  C     C_3   0.976144 0.550717 0.356753 -0.408882
C104  C     C_R   0.745539 0.954708 0.694013 -0.141394
C105  C     C_R   0.745450 0.045074 0.693628 -0.135654
C106  C     C_R   0.245539 0.454708 0.694012 -0.141394
C107  C     C_R   0.554253 0.653333 0.910173 -0.175075
C108  C     C_R   0.245450 0.545074 0.693628 -0.135656
C109  C     C_3   0.579326 0.949936 0.458150 -0.458632
C110  C     C_3   0.578219 0.051465 0.461596 -0.467060
C111  C     C_3   0.079327 0.449937 0.458148 -0.458634
C112  C     C_3   0.078219 0.551466 0.461597 -0.467062
C113  C     C_3   0.427399 0.002598 0.464030 -0.439165
C114  C     C_3   0.927399 0.502598 0.464030 -0.439167
C115  C     C_3   0.423655 0.000307 0.358751 0.334820
C116  C     C_3   0.923655 0.500308 0.358750 0.334823
C117  C     C_3   0.598223 0.999720 0.533370 0.341423
C118  C     C_R   0.143435 0.153121 0.092703 0.070822
C119  C     C_3   0.098223 0.499720 0.533370 0.341423
C120  C     C_3   0.529633 0.998006 0.569570 0.606119
C121  C     C_3   0.029633 0.498006 0.569569 0.606120
C122  C     C_R   0.057287 0.044839 0.308277 0.256070
C123  C     C_R   0.057204 0.953709 0.306975 0.234501
C124  C     C_R   0.557276 0.544837 0.308274 0.256057
C125  C     C_R   0.557191 0.453707 0.306968 0.234533
C126  C     C_R   0.817128 0.855925 0.997608 -0.077983
C127  C     C_R   0.814390 0.141854 0.995895 -0.075641
C128  C     C_R   0.317128 0.355925 0.997608 -0.077960
H1    H     H_    0.931651 0.868725 0.175782 0.128606
H2    H     H_    0.001226 0.914230 0.573525 0.153461
H3    H     H_    0.788203 0.588017 0.255671 0.105506
H4    H     H_    0.018364 0.088014 0.727279 0.090284
H5    H     H_    0.018951 0.910692 0.732653 0.093843
H6    H     H_    0.518384 0.588015 0.727302 0.090285
H7    H     H_    0.518953 0.410693 0.732654 0.093847
H8    H     H_    0.013495 0.834209 0.824895 0.101322
H9    H     H_    0.013625 0.165932 0.825089 0.101695
H10   H     H_    0.513495 0.334208 0.824896 0.101323
H11   H     H_    0.513624 0.665933 0.825089 0.101696
H12   H     H_    0.965220 0.065172 0.396733 0.160165
H13   H     H_    0.398961 0.500716 0.495901 0.154731
H14   H     H_    0.146119 0.920667 0.542462 0.172802
H15   H     H_    0.465209 0.565185 0.396697 0.160152
H16   H     H_    0.646028 0.420647 0.542414 0.172845
H17   H     H_    0.523381 0.907288 0.579176 0.240997
H18   H     H_    0.609164 0.939680 0.709713 0.260785
H19   H     H_    0.486867 0.943901 0.649691 0.247845
H20   H     H_    0.616783 0.041452 0.729862 0.264995
H21   H     H_    0.543433 0.086246 0.613602 0.238544
H22   H     H_    0.493068 0.044983 0.663865 0.249163
H23   H     H_    0.023379 0.407287 0.579171 0.240997
H24   H     H_    0.501034 0.414273 0.573367 0.153487
H25   H     H_    0.109163 0.439677 0.709709 0.260785
H26   H     H_    0.986866 0.443899 0.649688 0.247844
H27   H     H_    0.116784 0.541449 0.729864 0.264995
H28   H     H_    0.043435 0.586244 0.613606 0.238542
H29   H     H_    0.993068 0.544981 0.663866 0.249163
H30   H     H_    0.061110 0.121624 0.381307 0.236371
H31   H     H_    0.174319 0.098030 0.416513 0.257556
H32   H     H_    0.087321 0.126012 0.284071 0.271016
H33   H     H_    0.182443 0.906257 0.421472 0.253135
H34   H     H_    0.071352 0.870007 0.363894 0.235552
H35   H     H_    0.953243 0.066898 0.535742 0.149510
H36   H     H_    0.111282 0.882385 0.282898 0.274328
H37   H     H_    0.561085 0.621627 0.381289 0.236362
H38   H     H_    0.674311 0.598022 0.416556 0.257537
H39   H     H_    0.587347 0.626005 0.284093 0.271017
H40   H     H_    0.682437 0.406252 0.421429 0.253161
H41   H     H_    0.571351 0.370013 0.363947 0.235534
H42   H     H_    0.611196 0.382354 0.282858 0.274306
H43   H     H_    0.127054 0.919862 0.676610 0.155394
H44   H     H_    0.453414 0.566981 0.535840 0.149515
H45   H     H_    0.626878 0.419803 0.676493 0.155355
H46   H     H_    0.150470 0.075576 0.545963 0.175115
H47   H     H_    0.221621 0.015162 0.597822 0.151542
H48   H     H_    0.650465 0.575557 0.545986 0.175126
H49   H     H_    0.926965 0.128212 0.173710 0.132138
H50   H     H_    0.721612 0.515137 0.597766 0.151531
H51   H     H_    0.134653 0.074666 0.682860 0.148973
H52   H     H_    0.204577 0.013584 0.737532 0.156612
H53   H     H_    0.634823 0.574608 0.683027 0.148963
H54   H     H_    0.704608 0.513466 0.737506 0.156635
H55   H     H_    0.634493 0.180197 0.820936 0.174915
H56   H     H_    0.635440 0.821173 0.824006 0.174870
H57   H     H_    0.134495 0.680198 0.820935 0.174914
H58   H     H_    0.135438 0.321177 0.824008 0.174868
H59   H     H_    0.622649 0.138582 0.908684 0.153467
H60   H     H_    0.431648 0.368725 0.175781 0.128621
H61   H     H_    0.627121 0.861383 0.915960 0.153003
H62   H     H_    0.122652 0.638582 0.908684 0.153468
H63   H     H_    0.127122 0.361384 0.915967 0.153003
H64   H     H_    0.542395 0.208526 0.921401 0.157807
H65   H     H_    0.543820 0.791771 0.923961 0.156797
H66   H     H_    0.042396 0.708526 0.921400 0.157808
H67   H     H_    0.043818 0.291769 0.923960 0.156794
H68   H     H_    0.051414 0.746586 0.826643 0.150134
H69   H     H_    0.052353 0.254126 0.828494 0.151006
H70   H     H_    0.551413 0.246586 0.826645 0.150134
H71   H     H_    0.426974 0.628218 0.173713 0.132138
H72   H     H_    0.552351 0.754127 0.828494 0.151006
H73   H     H_    0.296406 0.742716 0.919127 0.165084
H74   H     H_    0.292656 0.255499 0.915369 0.166078
H75   H     H_    0.796404 0.242714 0.919128 0.165083
H76   H     H_    0.792663 0.755498 0.915377 0.166076
H77   H     H_    0.198609 0.807140 0.902824 0.161373
H78   H     H_    0.196917 0.191135 0.903256 0.160479
H79   H     H_    0.698610 0.307139 0.902827 0.161370
H80   H     H_    0.696916 0.691137 0.903254 0.160480
H81   H     H_    0.839610 0.184633 0.180762 0.150921
H82   H     H_    0.915985 0.997914 0.358735 0.149003
H83   H     H_    0.845032 0.810510 0.182498 0.149694
H84   H     H_    0.339612 0.684635 0.180761 0.150920
H85   H     H_    0.345036 0.310505 0.182498 0.149698
H86   H     H_    0.733698 0.144528 0.111492 0.160489
H87   H     H_    0.742659 0.853586 0.118835 0.158702
H88   H     H_    0.233701 0.644529 0.111492 0.160490
H89   H     H_    0.242666 0.353585 0.118842 0.158700
H90   H     H_    0.665768 0.219546 0.130487 0.160863
H91   H     H_    0.667925 0.780527 0.132171 0.160401
H92   H     H_    0.165770 0.719547 0.130486 0.160866
H93   H     H_    0.018661 0.914259 0.442185 0.163046
H94   H     H_    0.167925 0.280527 0.132170 0.160402
H95   H     H_    0.271973 0.758411 0.180012 0.169646
H96   H     H_    0.271655 0.239277 0.181879 0.166231
H97   H     H_    0.771971 0.258410 0.180014 0.169645
H98   H     H_    0.771656 0.739278 0.181879 0.166233
H99   H     H_    0.369448 0.745712 0.065680 0.159214
H100  H     H_    0.369388 0.251414 0.061836 0.158189
H101  H     H_    0.869447 0.245709 0.065681 0.159215
H102  H     H_    0.869389 0.751414 0.061845 0.158191
H103  H     H_    0.282185 0.818190 0.048124 0.153031
H104  H     H_    0.415957 0.497931 0.358774 0.149026
H105  H     H_    0.281234 0.180467 0.048564 0.153124
H106  H     H_    0.782186 0.318188 0.048127 0.153030
H107  H     H_    0.781232 0.680466 0.048561 0.153124
H108  H     H_    0.443590 0.910697 0.369948 0.158647
H109  H     H_    0.442217 0.089705 0.353269 0.153813
H110  H     H_    0.943591 0.410697 0.369948 0.158646
H111  H     H_    0.942216 0.589706 0.353268 0.153813
H112  H     H_    0.466738 0.944035 0.282252 0.161808
H113  H     H_    0.475593 0.049094 0.282812 0.165180
H114  H     H_    0.966738 0.444036 0.282251 0.161808
H115  H     H_    0.518566 0.414268 0.442100 0.163011
H116  H     H_    0.975594 0.549094 0.282813 0.165180
H117  H     H_    0.622798 0.953667 0.427162 0.170146
H118  H     H_    0.627625 0.052717 0.438532 0.167892
H119  H     H_    0.122797 0.453668 0.427160 0.170146
H120  H     H_    0.127625 0.552719 0.438533 0.167890
H121  H     H_    0.736450 0.913780 0.663787 0.121550
H122  H     H_    0.736139 0.085887 0.662555 0.120760
H123  H     H_    0.236450 0.413780 0.663786 0.121550
H124  H     H_    0.236138 0.585887 0.662556 0.120761
H125  H     H_    0.598936 0.910244 0.502048 0.165359
H126  H     H_    0.898983 0.000584 0.495858 0.154748
H127  H     H_    0.589557 0.090008 0.506507 0.166421
H128  H     H_    0.098937 0.410245 0.502046 0.165360
H129  H     H_    0.089556 0.590008 0.506509 0.166421
H130  H     H_    0.382101 0.969738 0.461270 0.163398
H131  H     H_    0.394221 0.041585 0.463357 0.161211
H132  H     H_    0.882100 0.469739 0.461269 0.163395
H133  H     H_    0.894223 0.541586 0.463358 0.161213
H134  H     H_    0.288749 0.912466 0.254656 0.109738
H135  H     H_    0.288203 0.088016 0.255670 0.105503
H136  H     H_    0.788750 0.412467 0.254655 0.109739
N1    N     N_R   0.950530 0.896220 0.057200 -0.043796
N2    N     N_R   0.818150 0.028600 0.792440 -0.042630
N3    N     N_R   0.318150 0.471400 0.792440 -0.042208
N4    N     N_R   0.318150 0.528600 0.792440 -0.042630
N5    N     N_R   0.025710 0.028600 0.207560 -0.066252
N6    N     N_R   0.025710 0.971400 0.207560 -0.067158
N7    N     N_R   0.525710 0.528600 0.207560 -0.066256
N8    N     N_R   0.525710 0.471400 0.207560 -0.067154
N9    N     N_R   0.181850 0.971400 0.207560 -0.034512
N10   N     N_R   0.181850 0.028600 0.207560 -0.032635
N11   N     N_R   0.681850 0.471400 0.207560 -0.034503
N12   N     N_R   0.950530 0.103780 0.057200 -0.043650
N13   N     N_R   0.681850 0.528600 0.207560 -0.032640
N14   N     N_R   0.974290 0.028600 0.792440 -0.034100
N15   N     N_R   0.974290 0.971400 0.792440 -0.034581
N16   N     N_R   0.474290 0.528600 0.792440 -0.034102
N17   N     N_R   0.474290 0.471400 0.792440 -0.034582
N18   N     N_R   0.049470 0.896220 0.942800 -0.042989
N19   N     N_R   0.049470 0.103780 0.942800 -0.043041
N20   N     N_R   0.549470 0.396220 0.942800 -0.042989
N21   N     N_R   0.549470 0.603780 0.942800 -0.043041
N22   N     N_R   0.106670 0.103780 0.057200 -0.054195
N23   N     N_R   0.450530 0.396220 0.057200 -0.043802
N24   N     N_R   0.106670 0.896220 0.057200 -0.055684
N25   N     N_R   0.606670 0.603780 0.057200 -0.054197
N26   N     N_R   0.606670 0.396220 0.057200 -0.055681
N27   N     N_1   0.716125 0.179523 0.716247 -0.112019
N28   N     N_1   0.716434 0.819847 0.716634 -0.109409
N29   N     N_1   0.216128 0.679524 0.716247 -0.112018
N30   N     N_1   0.216432 0.319847 0.716632 -0.109408
N31   N     N_1   0.206141 0.187331 0.287852 -0.100015
N32   N     N_1   0.216443 0.811850 0.289772 -0.098122
N33   N     N_1   0.706145 0.687331 0.287854 -0.100016
N34   N     N_R   0.450530 0.603780 0.057200 -0.043651
N35   N     N_1   0.716452 0.311858 0.289780 -0.098123
N36   N     N_R   0.893330 0.103780 0.942800 -0.055425
N37   N     N_R   0.893330 0.896220 0.942800 -0.055156
N38   N     N_R   0.393330 0.603780 0.942800 -0.055425
N39   N     N_R   0.393330 0.396220 0.942800 -0.055154
N40   N     N_R   0.818150 0.971400 0.792440 -0.042208
Ni1   Ni    Ni4+2 0.065600 0.934400 0.131190 0.212158
Ni2   Ni    Ni4+2 0.065600 0.065600 0.131190 0.216283
Ni3   Ni    Ni4+2 0.565600 0.434400 0.131190 0.212162
Ni4   Ni    Ni4+2 0.565600 0.565600 0.131190 0.216282
Ni5   Ni    Ni4+2 0.934400 0.065600 0.868810 0.209590
Ni6   Ni    Ni4+2 0.934400 0.934400 0.868810 0.208973
Ni7   Ni    Ni4+2 0.434400 0.565600 0.868810 0.209590
Ni8   Ni    Ni4+2 0.434400 0.434400 0.868810 0.208973

loop_
_geom_bond_atom_site_label_1
_geom_bond_atom_site_label_2
_ccdc_geom_bond_type
C22   H22   S    
C124  N7    A    
N1    N37   A    
C87   C91   S    
C7    C55   S    
C10   N11   A    
C78   H86   S    
C52   N23   A    
C65   H59   S    
C80   H88   S    
C59   C126  A    
C22   C120  S    
C106  N3    A    
C96   N20   A    
C5    C119  S    
C79   C99   S    
C15   N16   A    
C1    H1    S    
C27   H34   S    
C53   C64   S    
N6    Ni1   S    
N7    N8    A    
C66   H61   S    
N34   N38   A    
N2    Ni5   S    
N12   Ni2   S    
C66   C72   S    
C70   H67   S    
C74   H8    S    
C46   C55   S    
C26   H32   S    
C71   H64   S    
C81   C86   S    
C28   H38   S    
N20   N26   A    
C100  C109  S    
C104  N40   A    
C102  C111  S    
C100  C115  S    
C46   H115  S    
C6    C54   S    
C13   C42   A    
C75   H74   S    
C30   N31   T    
N14   Ni5   S    
C67   H62   S    
C86   C128  S    
C94   H80   S    
C73   H99   S    
C17   N27   T    
C101  C110  S    
C18   N28   T    
C103  C112  S    
N40   Ni6   S    
C113  C120  S    
C78   C82   S    
C43   C54   S    
C1    C126  A    
C123  N6    A    
C22   H20   S    
C67   H57   S    
C98   H90   S    
N2    N40   A    
C9    C34   A    
C101  C115  S    
C56   C62   S    
C100  H108  S    
C113  H130  S    
C39   C85   A    
C83   C126  S    
C77   H76   S    
C31   N32   T    
N10   Ni2   S    
N15   Ni6   S    
C63   N34   A    
C12   H4    S    
C50   C57   S    
C58   N36   A    
C93   H106  S    
C39   C118  A    
C60   N38   A    
C61   N39   A    
C21   H18   S    
C11   C35   A    
C103  C116  S    
C65   C82   S    
C4    C104  A    
C26   H30   S    
C99   H98   S    
C33   N35   T    
C85   N19   A    
C29   H41   S    
C25   C121  S    
N13   Ni4   S    
C37   C57   S    
C44   C48   S    
C113  C115  S    
C29   C125  S    
C41   C127  A    
C13   C32   S    
N17   Ni8   S    
N16   Ni7   S    
C108  H124  S    
C29   H40   S    
C41   H49   S    
C105  H122  S    
C96   H10   S    
C27   H36   S    
N21   N25   A    
C77   C94   S    
C49   C57   S    
C111  C119  S    
C20   C61   S    
C108  N4    A    
C15   C37   A    
C14   C36   A    
C122  N5    A    
C81   H85   S    
C87   C95   S    
N38   Ni7   S    
C10   C35   A    
C102  H114  S    
C40   C89   S    
C17   C58   S    
C80   H84   S    
C64   H54   S    
C109  H117  S    
N19   N22   A    
C51   C62   S    
C6    C123  A    
C119  C121  S    
C101  H109  S    
N16   N17   A    
C47   H126  S    
C76   C82   S    
C62   H51   S    
C46   H16   S    
N21   Ni7   S    
C68   H63   S    
C34   C115  S    
C95   H95   S    
C91   H103  S    
C42   C90   S    
C51   H46   S    
C48   H43   S    
C72   C90   S    
C2    C38   A    
C81   H89   S    
C103  H116  S    
C43   H12   S    
C8    C34   A    
C80   C95   S    
C103  H111  S    
N37   Ni6   S    
C4    C117  S    
C90   C99   S    
C76   H101  S    
C71   H70   S    
C38   C74   A    
C19   N29   T    
C88   C97   S    
C49   H44   S    
C114  C116  S    
N3    N4    A    
C28   C124  S    
C14   H5    S    
C113  H131  S    
C89   C98   S    
C27   H33   S    
C43   C47   S    
C100  H112  S    
C89   C93   S    
N11   Ni3   S    
C18   C59   S    
C45   C55   S    
C111  H119  S    
N14   N15   A    
C52   H60   S    
C79   H83   S    
C24   N26   A    
C47   C56   S    
C59   N37   A    
C14   N15   A    
C20   N30   T    
C80   C84   S    
C52   C128  A    
C76   H75   S    
C109  C117  S    
C23   C121  S    
C15   H6    S    
C13   N25   A    
C50   H45   S    
C107  N21   A    
C94   H107  S    
C92   H105  S    
C97   H94   S    
C112  H120  S    
C16   N17   A    
C66   H56   S    
C91   H77   S    
C66   C83   S    
C114  C121  S    
N36   Ni5   S    
C49   H13   S    
C45   H104  S    
C42   C107  A    
C8    N9    A    
C69   C87   S    
C16   C37   A    
C98   H97   S    
C47   H35   S    
C3    C60   A    
C22   H21   S    
N5    N6    A    
C48   H2    S    
C39   C88   S    
C40   C96   A    
C110  C117  S    
N12   N36   A    
C90   C94   S    
C5    C106  A    
C125  N8    A    
C117  C120  S    
C72   H65   S    
C21   H17   S    
C106  H123  S    
C36   C56   S    
C76   C93   S    
C45   C49   S    
C110  H127  S    
C95   H92   S    
N26   Ni3   S    
C35   C116  S    
C7    C125  A    
C51   H47   S    
C28   H37   S    
C99   H91   S    
C85   H9    S    
C2    N24   A    
C111  H128  S    
C104  H121  S    
N23   Ni3   S    
C112  C119  S    
N19   Ni5   S    
C3    C63   A    
C24   C33   S    
C97   H96   S    
C38   C87   S    
C79   C83   S    
C73   H73   S    
C109  H125  S    
C69   H66   S    
C61   C128  A    
N24   Ni1   S    
C118  N22   A    
N4    Ni7   S    
C92   H78   S    
N5    Ni2   S    
C50   H24   S    
C74   N18   A    
C44   H14   S    
C23   H26   S    
C30   C118  S    
C3    C84   S    
C45   H15   S    
C26   C122  S    
C114  H132  S    
C11   N13   A    
N3    Ni8   S    
N34   Ni4   S    
N39   Ni8   S    
C5    C108  A    
N18   N24   A    
C25   H27   S    
C68   C86   S    
N8    Ni3   S    
C7    C124  A    
C70   C88   S    
C53   H50   S    
N20   Ni8   S    
N25   Ni4   S    
C77   H102  S    
C21   H19   S    
C75   H100  S    
N11   N13   A    
C114  H133  S    
C21   C120  S    
C62   H52   S    
C77   C83   S    
C43   H82   S    
C75   C86   S    
C28   H39   S    
C88   C92   S    
C63   H71   S    
C78   C98   S    
C29   H42   S    
C12   C36   A    
C101  H113  S    
C73   C84   S    
C110  H118  S    
C79   H87   S    
N22   Ni2   S    
C67   C84   S    
N23   N39   A    
C107  H11   S    
N18   Ni6   S    
C53   C55   S    
C102  H110  S    
C9    N10   A    
C26   H31   S    
N1    Ni1   S    
C73   C91   S    
N9    Ni1   S    
C27   C123  S    
C105  N2    A    
C65   C71   S    
C69   H68   S    
C2    C31   S    
C67   C69   S    
C44   C54   S    
C112  H129  S    
C72   H72   S    
C71   C89   S    
N9    N10   A    
N7    Ni4   S    
C78   H81   S    
C41   N12   A    
C75   C92   S    
C64   H53   S    
C70   H69   S    
C25   H29   S    
C6    C122  A    
C8    H134  S    
C93   H79   S    
C12   N14   A    
C57   C64   S    
C65   H55   S    
C48   C56   S    
C23   H23   S    
C11   H3    S    
C32   N33   T    
C19   C60   S    
C4    C105  A    
C46   C50   S    
C51   C54   S    
C23   H25   S    
C81   C97   S    
C9    H135  S    
C24   C40   A    
C10   H136  S    
C82   C127  S    
C102  C116  S    
C68   H58   S    
C58   C127  A    
C1    N1    A    
C68   C70   S    
C44   H93   S    
C16   H7    S    
C53   H48   S    
C25   H28   S    
