data_mof_unit_61387.cif
_audit_creation_date              2012-12-10T21:02:27-0500
_audit_creation_method            fapswitch 2.2
_symmetry_space_group_name_H-M    P1
_symmetry_Int_Tables_number       1
_space_group_crystal_system       triclinic
_cell_length_a                    15.085158
_cell_length_b                    15.842514
_cell_length_c                    16.908355
_cell_angle_alpha                 89.812633
_cell_angle_beta                  83.051877
_cell_angle_gamma                 90.041648
_cell_volume                      4011.17427276

loop_
_atom_site_label
_atom_site_type_symbol
_atom_type_description
_atom_site_fract_x
_atom_site_fract_y
_atom_site_fract_z
_atom_type_partial_charge
C1    C     C_R   0.500045 0.661121 0.500021 0.876768
C2    C     C_1   0.500198 0.824409 0.500067 -0.054343
C3    C     C_1   0.500112 0.749544 0.500091 -0.150891
C4    C     C_1   0.500142 0.250549 0.498834 -0.075555
C5    C     C_R   0.039418 0.504777 0.570150 -0.200818
C6    C     C_R   0.960519 0.494406 0.429756 -0.200918
C7    C     C_R   0.095332 0.499883 0.497438 -0.045310
C8    C     C_R   0.904633 0.499403 0.502464 -0.050938
C9    C     C_R   0.055046 0.494588 0.425702 -0.012431
C10   C     C_R   0.944901 0.504533 0.574203 -0.011174
C11   C     C_1   0.193081 0.499954 0.499008 0.180052
C12   C     C_R   0.500068 0.338920 0.499230 1.017018
C13   C     C_1   0.806913 0.499732 0.500922 0.190555
C14   C     C_R   0.486035 0.498643 0.652896 0.947219
C15   C     C_R   0.514112 0.499272 0.346793 0.928072
C16   C     C_R   0.472835 0.494942 0.738349 -0.136676
C17   C     C_R   0.527629 0.506125 0.261026 -0.160130
C18   C     C_R   0.467105 0.571152 0.779941 -0.235326
C19   C     C_R   0.478580 0.567689 0.225773 -0.212274
C20   C     C_R   0.457348 0.570311 0.862385 -0.087473
C21   C     C_R   0.489208 0.577448 0.143916 -0.106889
C22   C     C_R   0.454063 0.493054 0.902798 0.087684
C23   C     C_R   0.472432 0.043889 0.570028 -0.146632
C24   C     C_R   0.547752 0.524447 0.097023 0.089108
C25   C     C_R   0.454033 0.416839 0.861662 -0.130639
C26   C     C_R   0.600901 0.466286 0.131731 -0.132552
C27   C     C_R   0.463660 0.416899 0.778833 0.445654
C28   C     C_R   0.591181 0.455887 0.214120 0.443354
C29   C     C_2   0.464047 0.490926 0.987174 -0.156995
C30   C     C_2   0.541617 0.518594 0.012037 -0.153384
C31   C     C_2   0.623490 0.540871 0.956999 0.938083
C32   C     C_2   0.387920 0.454551 0.041518 0.943989
C33   C     C_2   0.891473 0.509656 0.654458 0.918790
C34   C     C_R   0.528268 0.956334 0.429054 -0.166018
C35   C     C_2   0.108436 0.489200 0.345452 0.913703
C36   C     C_R   0.500312 0.086962 0.499207 0.144013
C37   C     C_R   0.500328 0.913224 0.499846 0.156924
C38   C     C_R   0.528264 0.043852 0.428732 -0.145856
C39   C     C_R   0.472432 0.956356 0.570347 -0.162146
C40   C     C_1   0.500232 0.175724 0.498879 -0.033415
H1    H     H_    0.472515 0.631006 0.748477 0.150304
H2    H     H_    0.549833 0.922402 0.374558 0.155773
H3    H     H_    0.070512 0.508486 0.624555 0.198546
H4    H     H_    0.929385 0.490638 0.375369 0.207824
H5    H     H_    0.757646 0.374546 0.332981 0.380790
H6    H     H_    0.379782 0.256871 0.653917 0.370709
H7    H     H_    0.699145 0.522916 0.851456 0.365222
H8    H     H_    0.345668 0.389420 0.141889 0.363715
H9    H     H_    0.891739 0.524482 0.773058 0.363249
H10   H     H_    0.107996 0.475161 0.226780 0.369396
H11   H     H_    0.431297 0.607567 0.261685 0.175415
H12   H     H_    0.451379 0.357793 0.894352 0.184043
H13   H     H_    0.645366 0.425553 0.093987 0.184232
H14   H     H_    0.448009 0.622451 0.116693 0.147671
H15   H     H_    0.457246 0.629303 0.894636 0.144970
H16   H     H_    0.450840 0.922438 0.625077 0.153883
H17   H     H_    0.549840 0.077780 0.373999 0.174258
H18   H     H_    0.450863 0.077868 0.624509 0.171408
N1    N     N_1   0.729450 0.499980 0.500020 -0.058368
N2    N     N_1   0.270550 0.500020 0.499980 -0.066131
O1    O     O_R   0.426350 0.621980 0.500000 -0.619871
O2    O     O_2   0.696917 0.318619 0.190946 -0.261624
O3    O     O_3   0.733870 0.420784 0.302096 -0.535401
O4    O     O_2   0.553824 0.312176 0.674625 -0.297890
O5    O     O_2   0.458391 0.246910 0.785802 -0.289350
O6    O     O_3   0.381778 0.316108 0.672179 -0.565108
O7    O     O_2   0.677223 0.591045 0.978689 -0.595074
O8    O     O_R   0.641240 0.502554 0.882344 -0.770020
O9    O     O_2   0.311946 0.460262 0.023675 -0.592520
O10   O     O_R   0.402890 0.411088 0.110808 -0.776323
O11   O     O_2   0.810169 0.502607 0.662166 -0.606573
O12   O     O_R   0.573650 0.378020 0.500000 -0.577709
O13   O     O_R   0.934760 0.522241 0.722151 -0.786742
O14   O     O_2   0.189853 0.494910 0.337826 -0.619089
O15   O     O_R   0.064991 0.477782 0.277675 -0.778030
O16   O     O_R   0.573690 0.621980 0.499960 -0.616429
O17   O     O_R   0.426310 0.378020 0.500040 -0.605244
O18   O     O_R   0.417630 0.500010 0.615820 -0.598804
O19   O     O_R   0.582370 0.499990 0.384180 -0.572354
O20   O     O_R   0.564960 0.500010 0.615780 -0.573764
O21   O     O_R   0.435040 0.499990 0.384220 -0.599769
O22   O     O_2   0.593216 0.324262 0.314037 -0.340770
S1    S     S_3+6 0.653805 0.375679 0.255296 0.045612
S2    S     S_3+6 0.466865 0.319430 0.727771 0.018400
Zn1   Zn    Zn3+2 0.401630 0.500000 0.500020 1.045639
Zn2   Zn    Zn3+2 0.598370 0.500000 0.499980 1.079694

loop_
_geom_bond_atom_site_label_1
_geom_bond_atom_site_label_2
_ccdc_geom_bond_type
C23   H18   S    
O2    S1    D    
C35   O14   D    
C8    C13   S    
C22   C29   S    
C34   C37   A    
C34   H2    S    
C6    C9    A    
C15   O21   A    
C7    C11   S    
C35   O15   S    
C6    C8    A    
C27   S2    S    
C19   C21   A    
C24   C26   A    
H6    O6    S    
C29   C32   S    
C21   H14   S    
C7    C9    A    
O4    S2    D    
O20   Zn2   S    
C15   O19   A    
C4    C40   T    
C22   C25   A    
C14   C16   S    
C14   O20   A    
C4    C12   S    
C16   C27   A    
C5    H3    S    
O17   Zn1   S    
C6    H4    S    
C28   S1    S    
C17   C28   A    
C20   H15   S    
C31   O8    S    
C36   C40   S    
C18   H1    S    
C5    C7    A    
O5    S2    D    
C32   O10   S    
H5    O3    S    
O3    S1    S    
C1    C3    S    
C31   O7    D    
C29   C30   D    
C38   H17   S    
C39   H16   S    
C12   O17   A    
O1    Zn1   S    
O18   Zn1   S    
C33   O13   S    
C20   C22   A    
C23   C36   A    
H9    O13   S    
C11   N2    T    
C26   H13   S    
O16   Zn2   S    
H7    O8    S    
C15   C17   S    
C34   C38   A    
C1    O16   A    
C8    C10   A    
H8    O10   S    
C1    O1    A    
O12   Zn2   S    
N2    Zn1   S    
C32   O9    D    
C13   N1    T    
C25   C27   A    
C26   C28   A    
C36   C38   A    
C2    C3    T    
N1    Zn2   S    
C5    C10   A    
C37   C39   A    
H10   O15   S    
C2    C37   S    
C30   C31   S    
C23   C39   A    
C17   C19   A    
C10   C33   S    
C18   C20   A    
C14   O18   A    
C12   O12   A    
C24   C30   S    
C25   H12   S    
C33   O11   D    
O6    S2    S    
C19   H11   S    
C16   C18   A    
O22   S1    D    
C21   C24   A    
C9    C35   S    
O19   Zn2   S    
O21   Zn1   S    
