data_mof_unit_33144.cif
_audit_creation_date              2012-12-10T16:59:23-0500
_audit_creation_method            fapswitch 2.2
_symmetry_space_group_name_H-M    P1
_symmetry_Int_Tables_number       1
_space_group_crystal_system       triclinic
_cell_length_a                    7.733671
_cell_length_b                    8.546
_cell_length_c                    27.72563
_cell_angle_alpha                 90.830472
_cell_angle_beta                  86.146557
_cell_angle_gamma                 93.798287
_cell_volume                      1824.18950565

loop_
_atom_site_label
_atom_site_type_symbol
_atom_type_description
_atom_site_fract_x
_atom_site_fract_y
_atom_site_fract_z
_atom_type_partial_charge
C1    C     C_R   0.546002 0.794884 0.498727 0.976264
C2    C     C_R   0.568290 0.644084 0.126330 -0.136448
C3    C     C_R   0.508949 0.493252 0.646391 -0.040668
C4    C     C_R   0.491041 0.506791 0.353611 -0.040668
C5    C     C_R   0.586468 0.628780 0.023748 -0.023037
C6    C     C_R   0.413235 0.371535 0.976259 -0.022963
C7    C     C_R   0.404532 0.379980 0.027516 0.098396
C8    C     C_R   0.595176 0.620331 0.972491 0.098344
C9    C     C_R   0.490183 0.509400 0.050961 0.072416
C10   C     C_R   0.509548 0.490898 0.949046 0.072412
C11   C     C_R   0.673385 0.752233 0.048871 -0.328913
C12   C     C_R   0.453997 0.205116 0.501272 0.976270
C13   C     C_R   0.326307 0.248089 0.951136 -0.329080
C14   C     C_R   0.660998 0.763594 0.099110 0.508477
C15   C     C_R   0.338773 0.236674 0.900898 0.508558
C16   C     C_R   0.502749 0.499006 0.593925 0.873981
C17   C     C_R   0.497251 0.501000 0.406076 0.873989
C18   C     C_R   0.684778 0.738787 0.943570 -0.236806
C19   C     C_R   0.314942 0.261516 0.056436 -0.236815
C20   C     C_2   0.570299 0.958432 0.497995 -0.373672
C21   C     C_2   0.429700 0.041568 0.502004 -0.373675
C22   C     C_R   0.612212 0.596757 0.820118 0.496487
C23   C     C_R   0.517703 0.482577 0.897775 -0.117668
C24   C     C_R   0.387680 0.403439 0.179886 0.496445
C25   C     C_R   0.438719 0.355213 0.822822 0.535639
C26   C     C_R   0.561207 0.644965 0.177184 0.535498
C27   C     C_R   0.364026 0.505430 0.726230 -0.106123
C28   C     C_R   0.635940 0.494679 0.273764 -0.106051
C29   C     C_R   0.358154 0.512673 0.676387 -0.205815
C30   C     C_R   0.641823 0.487391 0.323606 -0.205838
C31   C     C_R   0.665366 0.466042 0.666908 -0.216427
C32   C     C_R   0.334618 0.534041 0.333103 -0.216418
C33   C     C_R   0.670649 0.458323 0.716780 -0.087842
C34   C     C_R   0.482087 0.517683 0.102232 -0.117568
C35   C     C_R   0.329325 0.541807 0.283233 -0.087893
C36   C     C_R   0.520068 0.478122 0.746400 0.308879
C37   C     C_R   0.479894 0.522021 0.253604 0.308910
C38   C     C_3   0.672283 0.024325 0.118249 0.125892
C39   C     C_3   0.778353 0.155696 0.142481 -0.716621
C40   C     C_3   0.327300 0.975850 0.881868 0.125775
C41   C     C_3   0.221706 0.844625 0.857423 -0.716160
C42   C     C_R   0.609827 0.602688 0.870462 0.007876
C43   C     C_R   0.389996 0.397552 0.129544 0.007874
C44   C     C_R   0.692449 0.729301 0.893700 -0.185496
C45   C     C_R   0.307330 0.270964 0.106306 -0.185565
C46   C     C_R   0.431541 0.356152 0.873678 -0.136380
H1    H     H_    0.783325 0.450328 0.644524 0.163075
H2    H     H_    0.236076 0.533842 0.661442 0.163698
H3    H     H_    0.752110 0.478100 0.250693 0.144477
H4    H     H_    0.247847 0.522020 0.749296 0.144463
H5    H     H_    0.756706 0.842070 0.030945 0.155729
H6    H     H_    0.242912 0.158307 0.969063 0.155650
H7    H     H_    0.748878 0.843053 0.957888 0.145251
H8    H     H_    0.250819 0.157262 0.042117 0.145239
H9    H     H_    0.702955 0.009828 0.494175 0.180492
H10   H     H_    0.297045 0.990171 0.505825 0.180492
H11   H     H_    0.540457 0.012876 0.137221 0.168613
H12   H     H_    0.216667 0.549745 0.355492 0.163088
H13   H     H_    0.660678 0.057850 0.079985 0.118366
H14   H     H_    0.910927 0.168885 0.124419 0.241954
H15   H     H_    0.715904 0.268038 0.139698 0.192979
H16   H     H_    0.787760 0.128980 0.181264 0.278543
H17   H     H_    0.338005 0.942211 0.920162 0.118425
H18   H     H_    0.459492 0.987242 0.863113 0.168197
H19   H     H_    0.213344 0.871397 0.818602 0.278528
H20   H     H_    0.283859 0.732188 0.860341 0.192851
H21   H     H_    0.088729 0.831581 0.875231 0.242068
H22   H     H_    0.014153 0.383248 0.463467 0.192300
H23   H     H_    0.985847 0.616752 0.536532 0.192299
H24   H     H_    0.791479 0.437587 0.732487 0.145880
H25   H     H_    0.208490 0.562570 0.267532 0.145876
H26   H     H_    0.761361 0.824069 0.873343 0.191849
H27   H     H_    0.238431 0.176186 0.126662 0.191907
H28   H     H_    0.763904 0.466198 0.338546 0.163694
N1    N     N_R   0.526084 0.475265 0.797618 -0.361960
N2    N     N_R   0.473851 0.524905 0.202386 -0.361924
N3    N     N_2   0.950320 0.457960 0.486880 -0.176115
N4    N     N_2   0.049680 0.542040 0.513120 -0.176115
O1    O     O_R   0.389250 0.738570 0.503220 -0.611836
O2    O     O_2   0.303129 0.286997 0.206287 -0.559801
O3    O     O_2   0.640747 0.763838 0.201575 -0.501957
O4    O     O_2   0.359262 0.236293 0.798432 -0.501845
O5    O     O_3   0.756812 0.883516 0.121230 -0.568482
O6    O     O_3   0.242998 0.116739 0.878769 -0.568442
O7    O     O_R   0.610750 0.261430 0.496780 -0.611833
O8    O     O_R   0.678390 0.711630 0.494810 -0.628885
O9    O     O_R   0.321610 0.288370 0.505190 -0.628882
O10   O     O_R   0.355440 0.513440 0.575450 -0.621071
O11   O     O_R   0.644560 0.486560 0.424550 -0.621069
O12   O     O_R   0.644590 0.486500 0.567040 -0.630815
O13   O     O_R   0.355410 0.513500 0.432960 -0.630825
O14   O     O_2   0.696789 0.713182 0.793716 -0.559735
Zn1   Zn    Zn3+2 0.306940 0.517990 0.505620 0.948919
Zn2   Zn    Zn3+2 0.693060 0.482010 0.494380 0.948923

loop_
_geom_bond_atom_site_label_1
_geom_bond_atom_site_label_2
_ccdc_geom_bond_type
C16   O12   A    
C38   O5    S    
C27   C29   A    
C40   O6    S    
C17   O13   A    
C32   H12   S    
C41   H21   S    
N3    N4    D    
C23   C42   A    
C12   O7    A    
C22   N1    A    
C35   C37   A    
O1    Zn1   S    
C15   O6    S    
C40   H17   S    
C38   C39   S    
C30   H28   S    
C11   C14   A    
O13   Zn1   S    
N4    Zn1   S    
C13   H6    S    
N3    Zn2   S    
C1    O8    A    
C33   C36   A    
C45   H27   S    
C28   H3    S    
O11   Zn2   S    
C3    C29   A    
O8    Zn2   S    
C18   H7    S    
C24   O2    S    
C26   N2    A    
C31   C33   A    
C27   H4    S    
C2    C34   A    
C35   H25   S    
C23   C46   A    
C31   H1    S    
H23   N4    S    
C42   C44   A    
C14   O5    S    
C20   H9    S    
O12   Zn2   S    
C39   H15   S    
C29   H2    S    
C32   C35   A    
C17   O11   A    
C24   N2    A    
C41   H19   S    
C12   C21   S    
C8    C18   A    
C25   N1    A    
C5    C9    A    
C36   N1    S    
C18   C44   A    
C5    C8    A    
C38   H11   S    
O7    Zn2   S    
C2    C26   A    
C4    C32   A    
C3    C31   A    
C43   C45   A    
C6    C7    A    
C33   H24   S    
C4    C17   S    
C19   H8    S    
C40   C41   S    
C37   N2    S    
C26   O3    S    
C7    C19   A    
C13   C15   A    
C25   O4    S    
C1    O1    A    
H22   N3    S    
C7    C9    A    
C39   H16   S    
O10   Zn1   S    
C1    C20   S    
C12   O9    A    
C34   C43   A    
C6    C10   A    
C21   H10   S    
C19   C45   A    
C5    C11   A    
C41   H20   S    
C10   C23   A    
C40   H18   S    
C27   C36   A    
C28   C30   A    
C6    C13   A    
C22   C42   A    
C28   C37   A    
C39   H14   S    
O9    Zn1   S    
C9    C34   A    
C44   H26   S    
C2    C14   A    
C11   H5    S    
C38   H13   S    
C20   C21   D    
C8    C10   A    
C16   O10   A    
C24   C43   A    
C22   O14   S    
C15   C46   A    
C25   C46   A    
C4    C30   A    
C3    C16   S    
