data_mof_unit_29583.cif
_audit_creation_date              2012-12-10T17:49:34-0500
_audit_creation_method            fapswitch 2.2
_symmetry_space_group_name_H-M    P1
_symmetry_Int_Tables_number       1
_space_group_crystal_system       triclinic
_cell_length_a                    10.557788
_cell_length_b                    10.333449
_cell_length_c                    9.991599
_cell_angle_alpha                 89.552062
_cell_angle_beta                  90.600879
_cell_angle_gamma                 94.371233
_cell_volume                      1086.80955776

loop_
_atom_site_label
_atom_site_type_symbol
_atom_type_description
_atom_site_fract_x
_atom_site_fract_y
_atom_site_fract_z
_atom_type_partial_charge
C1    C     C_R   0.530665 0.267148 0.500385 0.923132
C2    C     C_3   0.973428 0.631478 0.461522 -0.060106
C3    C     C_3   0.041843 0.538085 0.373047 -0.136716
C4    C     C_3   0.122787 0.503935 0.495320 -0.121403
C5    C     C_R   0.672391 0.146576 0.729712 -0.075947
C6    C     C_R   0.720595 0.080220 0.838740 -0.100523
C7    C     C_R   0.718562 0.945458 0.837245 -0.156155
C8    C     C_R   0.669112 0.876664 0.726446 -0.093204
C9    C     C_R   0.618931 0.941885 0.615407 0.114796
C10   C     C_R   0.622245 0.078372 0.616885 0.103528
C11   C     C_R   0.586770 0.142220 0.498879 -0.139177
C12   C     C_R   0.257737 0.501015 0.498803 0.878915
C13   C     C_R   0.606705 0.081107 0.376347 0.106221
C14   C     C_R   0.591292 0.945848 0.373740 -0.021791
C15   C     C_R   0.575502 0.877024 0.496843 -0.247807
C16   C     C_R   0.290693 0.371828 0.132116 0.053333
C17   C     C_R   0.179177 0.356518 0.053314 -0.046316
C18   C     C_R   0.196468 0.311035 0.922759 -0.023325
C19   C     C_R   0.319711 0.332278 0.866384 0.008851
C20   C     C_R   0.404111 0.429059 0.927474 0.043498
C21   C     C_R   0.398767 0.437260 0.070579 0.142824
C22   C     C_R   0.597474 0.557363 0.071740 -0.083795
C23   C     C_R   0.523962 0.740614 0.499418 0.895561
C24   C     C_R   0.595324 0.561227 0.929534 -0.113243
C25   C     C_R   0.742381 0.511759 0.500848 0.844890
C26   C     C_3   0.026982 0.392545 0.536013 -0.111385
C27   C     C_3   0.944154 0.426326 0.414880 -0.185622
C28   C     C_3   0.878054 0.520277 0.503073 -0.068552
C29   C     C_3   0.960384 0.487659 0.623243 0.160446
C30   C     C_3   0.057412 0.600437 0.582796 -0.191598
H1    H     H_    0.889872 0.355305 0.349961 0.187125
H2    H     H_    0.758697 0.894262 0.920552 0.168870
H3    H     H_    0.680936 0.774138 0.724116 0.158972
H4    H     H_    0.679288 0.600968 0.124535 0.203256
H5    H     H_    0.674063 0.610789 0.877882 0.129544
H6    H     H_    0.106632 0.672216 0.651581 0.179475
H7    H     H_    0.078050 0.559345 0.270745 0.189913
H8    H     H_    0.681262 0.251150 0.731793 0.157569
H9    H     H_    0.761055 0.133637 0.923762 0.157063
N1    N     N_R   0.498800 0.498800 0.142780 -0.107066
N2    N     N_R   0.498760 0.498720 0.857170 -0.115922
O1    O     O_R   0.500000 0.316780 0.614690 -0.619719
O2    O     O_R   0.499990 0.316750 0.385360 -0.631879
O3    O     O_R   0.313960 0.499980 0.614650 -0.609062
O4    O     O_R   0.313940 0.499960 0.385310 -0.608948
O5    O     O_R   0.500010 0.683250 0.614640 -0.615104
O6    O     O_R   0.500000 0.683220 0.385310 -0.587155
O7    O     O_R   0.686060 0.500040 0.614690 -0.647925
O8    O     O_R   0.686040 0.500020 0.385350 -0.637354
Zn1   Zn    Zn3+2 0.500010 0.500020 0.653130 0.943452
Zn2   Zn    Zn3+2 0.499990 0.499980 0.346870 0.961593
C31   C     C_2   0.604468 0.880019 0.244371 0.961687
O9    O     O_2   0.695441 0.816225 0.226809 -0.643360
O10   O     O_R   0.515480 0.894686 0.141914 -0.793098
H10   H     H_    0.535397 0.845818 0.058073 0.330510
C32   C     C_3   0.311269 0.250631 0.211996 -0.606210
H11   H     H_    0.287007 0.263924 0.317562 0.253451
H12   H     H_    0.250945 0.164690 0.176078 0.242678
H13   H     H_    0.408137 0.220850 0.197743 0.252133
C33   C     C_2   0.053398 0.330803 0.117471 0.899096
O11   O     O_2   0.038946 0.250539 0.207569 -0.639321
O12   O     O_R   0.949685 0.393782 0.068655 -0.833776
H14   H     H_    0.867037 0.363283 0.113606 0.332276
C34   C     C_3   0.100920 0.204190 0.873428 -0.779075
H15   H     H_    0.092181 0.124442 0.948760 0.247365
H16   H     H_    0.006147 0.240715 0.858314 0.246498
H17   H     H_    0.128233 0.159842 0.779994 0.301461
C35   C     C_2   0.376972 0.209722 0.834437 0.949782
O13   O     O_2   0.345266 0.148183 0.734069 -0.607114
O14   O     O_R   0.457056 0.157090 0.929110 -0.838727
H18   H     H_    0.472969 0.063867 0.908704 0.362402
C36   C     C_2   0.037054 0.249674 0.558464 0.953358
O15   O     O_2   0.941379 0.181687 0.586771 -0.604209
O16   O     O_R   0.150075 0.190755 0.539994 -0.730736
H19   H     H_    0.226287 0.254817 0.530606 0.305290
C37   C     C_3   0.921352 0.473240 0.768398 -0.778533
H20   H     H_    0.007950 0.469029 0.831053 0.268987
H21   H     H_    0.872652 0.559445 0.798741 0.243044
H22   H     H_    0.857526 0.384524 0.782860 0.240374
C38   C     C_2   0.943131 0.765718 0.422330 0.966386
O17   O     O_2   0.969900 0.807582 0.310614 -0.568875
O18   O     O_R   0.886347 0.843137 0.514655 -0.804625
H23   H     H_    0.871711 0.932258 0.477111 0.381121
C39   C     C_3   0.662709 0.155539 0.256420 -0.836050
H24   H     H_    0.753409 0.115232 0.228935 0.249675
H25   H     H_    0.597870 0.146059 0.168725 0.273759
H26   H     H_    0.686932 0.259483 0.277320 0.246346

loop_
_geom_bond_atom_site_label_1
_geom_bond_atom_site_label_2
_ccdc_geom_bond_type
C8    C9    A    
C16   C21   A    
C26   C36   S    
C19   C20   A    
C1    C11   S    
C37   H22   S    
C18   C34   S    
C20   N2    A    
C7    C8    A    
C29   C37   S    
C25   C28   S    
C13   C39   S    
C26   C27   S    
O12   H14   S    
C28   C29   S    
C37   H21   S    
C5    C6    A    
O4    Zn2   S    
C32   H11   S    
C33   O12   S    
C18   C19   A    
C1    O2    A    
C14   C31   S    
C35   O13   D    
O8    Zn2   S    
C39   H26   S    
O14   H18   S    
C4    C12   S    
C9    C10   A    
C36   O15   D    
C15   C23   S    
C23   O5    A    
C13   C14   A    
C24   N2    A    
C31   O10   S    
C22   H4    S    
C24   H5    S    
C23   O6    A    
O16   H19   S    
C27   H1    S    
C34   H17   S    
C39   H24   S    
C36   O16   S    
C38   O17   D    
O6    Zn2   S    
C33   O11   D    
C34   H16   S    
C16   C32   S    
C29   C30   S    
C22   N1    A    
C17   C18   A    
C19   C35   S    
C37   H20   S    
C25   O7    A    
O1    Zn1   S    
C38   O18   S    
C22   C24   A    
C3    C4    S    
N2    Zn1   S    
C31   O9    D    
O3    Zn1   S    
O10   H10   S    
C7    H2    S    
C6    H9    S    
C39   H25   S    
C12   O4    A    
C4    C26   S    
C6    C7    A    
N1    Zn2   S    
O5    Zn1   S    
C32   H13   S    
C30   H6    S    
C2    C30   S    
C34   H15   S    
C3    C27   S    
C2    C3    S    
C9    C15   A    
C5    C10   A    
C12   O3    A    
C11   C13   A    
O2    Zn2   S    
C16   C17   A    
C21   N1    A    
O7    Zn1   S    
C32   H12   S    
C8    H3    S    
C25   O8    A    
C2    C38   S    
C10   C11   A    
C17   C33   S    
C1    O1    A    
C20   C21   A    
C3    H7    S    
C26   C29   S    
C35   O14   S    
O18   H23   S    
C27   C28   S    
C14   C15   A    
C2    C28   S    
C5    H8    S    
C4    C30   S    
