data_mof_unit_27514.cif
_audit_creation_date              2012-12-11T13:59:55-0500
_audit_creation_method            fapswitch 2.2
_symmetry_space_group_name_H-M    P1
_symmetry_Int_Tables_number       1
_space_group_crystal_system       triclinic
_cell_length_a                    11.195869
_cell_length_b                    11.265958
_cell_length_c                    18.721565
_cell_angle_alpha                 89.904776
_cell_angle_beta                  90.359876
_cell_angle_gamma                 120.172266
_cell_volume                      2041.42300375

loop_
_atom_site_label
_atom_site_type_symbol
_atom_type_description
_atom_site_fract_x
_atom_site_fract_y
_atom_site_fract_z
_atom_type_partial_charge
C1    C     C_R   0.541389 0.481137 0.851390 0.577715
C2    C     C_R   0.478851 0.546214 0.353407 0.563984
C3    C     C_R   0.068190 0.521763 0.353423 0.560188
C4    C     C_R   0.459363 0.939858 0.350488 0.559067
C5    C     C_2   0.018079 0.511808 0.584641 -0.098269
C6    C     C_2   0.486093 0.505416 0.584580 -0.102227
C7    C     C_2   0.506264 0.027303 0.572398 -0.091472
C8    C     C_2   0.513064 0.017979 0.415703 -0.103637
C9    C     C_2   0.492916 0.521455 0.427941 -0.101593
C10   C     C_2   0.028818 0.507698 0.427765 -0.092430
C11   C     C_2   0.087253 0.457183 0.472452 -0.151710
C12   C     C_R   0.545637 0.118982 0.862356 0.559431
C13   C     C_2   0.540724 0.629873 0.472549 -0.153538
C14   C     C_2   0.435784 0.055901 0.451947 -0.161418
C15   C     C_2   0.457284 0.086828 0.527593 -0.151860
C16   C     C_2   0.562703 0.620718 0.548231 -0.159972
C17   C     C_2   0.055348 0.434720 0.547901 -0.159757
C18   C     C_2   0.011612 0.511834 0.920488 -0.114530
C19   C     C_2   0.499511 0.511889 0.918813 -0.116498
C20   C     C_2   0.532039 0.063923 0.934383 -0.133544
C21   C     C_2   0.518812 0.030767 0.087734 -0.121056
C22   C     C_2   0.443920 0.565965 0.062111 -0.147034
C23   C     C_R   0.938424 0.459339 0.852509 0.586372
C24   C     C_2   0.999530 0.506905 0.076200 -0.130337
C25   C     C_2   0.020037 0.617977 0.037086 -0.020695
C26   C     C_2   0.355631 0.449253 0.025272 -0.022668
C27   C     C_2   0.624541 0.036743 0.049998 -0.022836
C28   C     C_2   0.639802 0.072301 0.972900 -0.028639
C29   C     C_2   0.372317 0.439461 0.946976 -0.017752
C30   C     C_2   0.999849 0.608105 0.958600 -0.023388
C31   C     C_2   0.059726 0.753633 0.070048 0.667259
C32   C     C_2   0.251217 0.322088 0.061272 0.674082
C33   C     C_2   0.727342 0.006227 0.083863 0.652686
C34   C     C_R   0.446579 0.583695 0.139792 0.574897
C35   C     C_2   0.772130 0.102267 0.939344 0.662325
C36   C     C_2   0.253888 0.338890 0.902539 0.620012
C37   C     C_2   0.969799 0.710041 0.924012 0.658585
C38   C     C_R   0.064090 0.522442 0.146460 0.572582
C39   C     C_R   0.460910 0.941959 0.149668 0.571989
C40   C     C_R   0.540507 0.480645 0.649577 0.562094
C41   C     C_R   0.520952 0.067036 0.646743 0.566402
C42   C     C_R   0.939571 0.458701 0.649602 0.565057
Cr1   Cr    Cr6+3 0.464030 0.233680 0.750360 1.067543
Cr2   Cr    Cr6+3 0.766320 0.230350 0.750360 1.071085
Cr3   Cr    Cr6+3 0.769650 0.535970 0.750360 1.065397
Cr4   Cr    Cr6+3 0.233680 0.464030 0.249640 1.060716
Cr5   Cr    Cr6+3 0.230350 0.766320 0.249640 1.057199
Cr6   Cr    Cr6+3 0.535970 0.769650 0.249640 1.062571
H1    H     H_    0.154196 0.420884 0.452343 0.155074
H2    H     H_    0.543202 0.960135 0.554089 0.089548
H3    H     H_    0.392424 0.421093 0.561607 0.096681
H4    H     H_    0.028341 0.605440 0.562123 0.110160
H5    H     H_    0.955497 0.406355 0.051692 0.163735
H6    H     H_    0.515745 0.658545 0.033919 0.127492
H7    H     H_    0.458543 0.074431 0.067218 0.145630
H8    H     H_    0.430602 0.023625 0.957677 0.146667
H9    H     H_    0.586226 0.586270 0.950455 0.154294
H10   H     H_    0.054089 0.453775 0.945117 0.157209
H11   H     H_    0.017170 0.858628 0.142965 0.331775
H12   H     H_    0.575408 0.732585 0.452250 0.152349
H13   H     H_    0.212426 0.154760 0.118498 0.342506
H14   H     H_    0.861530 0.044353 0.164917 0.335465
H15   H     H_    0.868208 0.042065 0.869623 0.330647
H16   H     H_    0.108468 0.141436 0.885077 0.333685
H17   H     H_    0.018325 0.852247 0.846961 0.330559
H18   H     H_    0.346765 0.054339 0.427411 0.156220
H19   H     H_    0.421799 0.154304 0.547642 0.150013
H20   H     H_    0.651777 0.708151 0.572594 0.156774
H21   H     H_    0.052715 0.345474 0.571818 0.157421
H22   H     H_    0.962309 0.545558 0.446151 0.097593
H23   H     H_    0.456744 0.417563 0.446479 0.086682
H24   H     H_    0.606605 0.027106 0.438832 0.104307
O1    O     O_R   0.434100 0.092480 0.829780 -0.471341
O2    O     O_R   0.362730 0.477510 0.175360 -0.468238
O3    O     O_R   0.114780 0.637270 0.175360 -0.477240
O4    O     O_R   0.522490 0.885220 0.175360 -0.497052
O5    O     O_R   0.432250 0.092620 0.670380 -0.509678
O6    O     O_R   0.907380 0.339630 0.670380 -0.510868
O7    O     O_R   0.660370 0.567750 0.670380 -0.512417
O8    O     O_R   0.092620 0.432250 0.329620 -0.513866
O9    O     O_R   0.339630 0.907380 0.329620 -0.513531
O10   O     O_R   0.567750 0.660370 0.329620 -0.507348
O11   O     O_R   0.475790 0.362860 0.676880 -0.504755
O12   O     O_R   0.907520 0.341620 0.829780 -0.476081
O13   O     O_R   0.637140 0.112930 0.676880 -0.491627
O14   O     O_R   0.887070 0.524210 0.676880 -0.496784
O15   O     O_R   0.362860 0.475790 0.323120 -0.500829
O16   O     O_R   0.112930 0.637140 0.323120 -0.490284
O17   O     O_R   0.524210 0.887070 0.323120 -0.504217
O18   O     O_3   0.666667 0.333333 0.749450 -0.296331
O19   O     O_3   0.333333 0.666667 0.250550 -0.304501
O20   O     O_2   0.156905 0.858625 0.046009 -0.500300
O21   O     O_R   0.981497 0.760988 0.126025 -0.637811
O22   O     O_2   0.128932 0.287314 0.057507 -0.452585
O23   O     O_R   0.658380 0.565900 0.829780 -0.485562
O24   O     O_R   0.292986 0.239934 0.097097 -0.655081
O25   O     O_2   0.754929 0.925077 0.055724 -0.457748
O26   O     O_R   0.793438 0.072450 0.147402 -0.658156
O27   O     O_2   0.881077 0.197430 0.961475 -0.497592
O28   O     O_R   0.772271 0.012744 0.887701 -0.629062
O29   O     O_2   0.223348 0.377219 0.847812 -0.513473
O30   O     O_R   0.181561 0.200244 0.921587 -0.621215
O31   O     O_2   0.880675 0.730465 0.948525 -0.469236
O32   O     O_R   0.047099 0.785384 0.865086 -0.653255
O33   O     O_R   0.092480 0.434100 0.170220 -0.473357
O34   O     O_R   0.341620 0.907520 0.170220 -0.486774
O35   O     O_R   0.565900 0.658380 0.170220 -0.457372
O36   O     O_R   0.477510 0.362730 0.824640 -0.489782
O37   O     O_R   0.637270 0.114780 0.824640 -0.458653
O38   O     O_R   0.885220 0.522490 0.824640 -0.480856

loop_
_geom_bond_atom_site_label_1
_geom_bond_atom_site_label_2
_ccdc_geom_bond_type
C25   C31   S    
C39   O34   A    
C32   O22   D    
C5    C42   S    
C17   H21   S    
Cr1   O11   S    
Cr6   O4    S    
C20   H8    S    
H13   O24   S    
C22   H6    S    
C13   H12   S    
C27   C33   S    
H16   O30   S    
C29   C36   S    
C34   O35   A    
Cr4   O15   S    
C41   O5    A    
Cr6   O35   S    
C5    C17   D    
Cr4   O33   S    
C42   O14   A    
C36   O30   S    
C33   O26   S    
C9    C13   D    
H14   O26   S    
Cr1   O1    S    
C18   H10   S    
C4    O9    A    
C28   C35   S    
Cr6   O19   S    
C24   C38   S    
C5    H4    S    
C16   H20   S    
C6    H3    S    
C4    C8    S    
Cr2   O37   S    
C7    C15   D    
C21   C27   D    
C12   O1    A    
C40   O11   A    
C35   O27   D    
C3    O8    A    
C12   O37   A    
C38   O3    A    
C22   C34   S    
C8    H24   S    
Cr1   O18   S    
C1    C19   S    
C23   O12   A    
C18   C23   S    
C24   C25   D    
C37   O31   D    
Cr3   O38   S    
Cr4   O19   S    
C20   C28   D    
C24   H5    S    
C31   O21   S    
C19   H9    S    
C30   C37   S    
C36   O29   D    
H15   O28   S    
C11   H1    S    
C21   C39   S    
C1    O23   A    
Cr5   O34   S    
C15   H19   S    
C12   C20   S    
C14   H18   S    
C40   O7    A    
C2    O15   A    
Cr3   O7    S    
C39   O4    A    
Cr3   O18   S    
C34   O2    A    
C18   C30   D    
C10   H22   S    
C32   O24   S    
C42   O6    A    
Cr6   O17   S    
C6    C40   S    
C2    O10   A    
Cr2   O13   S    
C19   C29   D    
Cr4   O2    S    
Cr2   O18   S    
C21   H7    S    
C4    O17   A    
C25   C30   S    
C23   O38   A    
C11   C17   S    
C8    C14   D    
C3    O16   A    
Cr5   O19   S    
C9    H23   S    
C7    H2    S    
Cr2   O12   S    
C37   O32   S    
C26   C32   S    
Cr1   O5    S    
C41   O13   A    
Cr5   O16   S    
C38   O33   A    
Cr2   O6    S    
Cr3   O14   S    
Cr5   O3    S    
C3    C10   S    
Cr4   O8    S    
Cr6   O10   S    
C33   O25   D    
Cr1   O36   S    
Cr5   O9    S    
C7    C41   S    
C10   C11   D    
C1    O36   A    
C6    C16   D    
C26   C29   S    
C31   O20   D    
C22   C26   D    
C13   C16   S    
C27   C28   S    
C14   C15   S    
H11   O21   S    
H17   O32   S    
C2    C9    S    
C35   O28   S    
Cr3   O23   S    
