data_mof_unit_67434.cif
_audit_creation_date              2013-03-05T15:40:10-0500
_audit_creation_method            fapswitch 2.2
_symmetry_space_group_name_H-M    P1
_symmetry_Int_Tables_number       1
_space_group_crystal_system       triclinic
_cell_length_a                    7.532555
_cell_length_b                    8.674696
_cell_length_c                    12.982369
_cell_angle_alpha                 86.867283
_cell_angle_beta                  78.607389
_cell_angle_gamma                 102.876398
_cell_volume                      806.343265275

loop_
_atom_site_label
_atom_site_type_symbol
_atom_site_description
_atom_site_fract_x
_atom_site_fract_y
_atom_site_fract_z
_atom_type_partial_charge
O1    O     O_R   0.621060 0.286250 0.492350 -0.572539
O2    O     O_R   0.378940 0.713750 0.507650 -0.597643
O3    O     O_R   0.306310 0.256580 0.512240 -0.619274
O4    O     O_R   0.693690 0.743420 0.487760 -0.596195
C1    C     C_R   0.452738 0.199832 0.502713 0.849613
C2    C     C_R   0.547421 0.800281 0.492577 0.837480
O5    O     O_R   0.631800 0.512400 0.642670 -0.540311
O6    O     O_R   0.368200 0.487600 0.357330 -0.563311
O7    O     O_R   0.317060 0.482730 0.662570 -0.607626
O8    O     O_R   0.682940 0.517270 0.337430 -0.562492
C3    C     C_R   0.465539 0.495092 0.701323 0.802060
C4    C     C_R   0.534347 0.506321 0.298466 0.783499
Cu1   Cu    Cu3+1 0.686350 0.517570 0.488220 1.022055
Cu2   Cu    Cu3+1 0.313650 0.482430 0.511780 0.984646
N1    N     N_2   0.033570 0.455950 0.529530 0.125028
N2    N     N_2   0.966430 0.544050 0.470470 0.141996
C5    C     C_R   0.553558 0.517463 0.184099 -0.140180
C6    C     C_R   0.445274 0.490567 0.815250 -0.147959
C7    C     C_R   0.248849 0.437694 0.991518 0.481906
C8    C     C_R   0.748029 0.582565 0.007238 0.443462
C9    C     C_R   0.268364 0.442982 0.882303 -0.250975
C10   C     C_R   0.729645 0.568267 0.116624 -0.235531
C11   C     C_R   0.603893 0.536550 0.856935 -0.241649
C12   C     C_R   0.393885 0.478464 0.142265 -0.241394
C13   C     C_R   0.587945 0.534848 0.965530 -0.008688
C14   C     C_R   0.409060 0.484194 0.033485 -0.011977
H1    H     H_    0.257805 0.439046 0.194727 0.218287
H2    H     H_    0.739997 0.575525 0.804409 0.224277
H3    H     H_    0.853408 0.595055 0.148519 0.206447
H4    H     H_    0.144801 0.412986 0.850017 0.179820
C15   C     C_2   0.425968 0.031120 0.507723 -0.383540
C16   C     C_2   0.571985 0.968684 0.479246 -0.375717
H5    H     H_    0.285876 0.957987 0.538440 0.169760
H6    H     H_    0.710178 0.041699 0.444935 0.166957
O9    O     O_3   0.072546 0.406196 0.056274 -0.604405
C17   C     C_3   0.991468 0.240750 0.072907 0.056041
H7    H     H_    0.910556 0.215794 0.155866 0.185930
H8    H     H_    0.096590 0.167235 0.066182 0.103084
C18   C     C_3   0.859428 0.191434 0.997556 -0.345256
H9    H     H_    0.808535 0.294133 0.971570 0.262497
H10   H     H_    0.936932 0.151735 0.926220 0.178772
C19   C     C_3   0.689597 0.057887 0.048237 -0.948491
H11   H     H_    0.732653 0.949372 0.071658 0.244950
H12   H     H_    0.599232 0.028280 0.990608 0.258132
H13   H     H_    0.607050 0.096024 0.118766 0.262941
O10   O     O_3   0.923774 0.622348 0.941293 -0.603350
C20   C     C_3   0.998460 0.787577 0.936186 0.034473
H14   H     H_    0.019224 0.822167 0.014902 0.144429
H15   H     H_    0.904243 0.854263 0.907696 0.151105
C21   C     C_3   0.188216 0.831882 0.859121 -0.291221
H16   H     H_    0.285711 0.771383 0.889506 0.229579
H17   H     H_    0.172837 0.791328 0.780841 0.231468
C22   C     C_3   0.272007 0.010856 0.845602 -0.973174
H18   H     H_    0.183353 0.074805 0.809622 0.245039
H19   H     H_    0.412145 0.037137 0.792581 0.264082
H20   H     H_    0.286855 0.054594 0.923022 0.257973
O11   O     O_3   0.929745 0.425812 0.629109 -0.500500
C23   C     C_3   0.944708 0.280820 0.677864 0.136784
H21   H     H_    0.897320 0.282532 0.764197 0.120738
H22   H     H_    0.086862 0.263662 0.665222 0.175099
C24   C     C_3   0.820205 0.137991 0.643991 -0.360472
H23   H     H_    0.676496 0.155074 0.655158 0.235884
H24   H     H_    0.877328 0.129055 0.559768 0.226158
C25   C     C_3   0.814782 0.983770 0.708384 -0.961497
H25   H     H_    0.956645 0.961739 0.697713 0.260632
H26   H     H_    0.722387 0.882561 0.681677 0.277780
H27   H     H_    0.758383 0.990020 0.793357 0.253600
O12   O     O_3   0.065068 0.580892 0.370223 -0.494020
C26   C     C_3   0.139904 0.747635 0.354133 0.227756
H28   H     H_    0.291223 0.769499 0.350481 0.116682
H29   H     H_    0.080432 0.814445 0.418154 0.127224
C27   C     C_3   0.124909 0.816911 0.245989 -0.409664
H30   H     H_    0.251775 0.913082 0.212586 0.176837
H31   H     H_    0.120751 0.724615 0.190050 0.239121
C28   C     C_3   0.957074 0.889668 0.253170 -0.876856
H32   H     H_    0.825889 0.801319 0.287740 0.282571
H33   H     H_    0.949249 0.932471 0.173096 0.221281
H34   H     H_    0.971245 0.991843 0.301379 0.239976

loop_
_geom_bond_atom_site_label_1
_geom_bond_atom_site_label_2
_geom_bond_distance
_ccdc_geom_bond_type
C2    C16   1.427407 S    
C3    C6    1.454030 S    
C10   H3    1.077499 S    
C24   C25   1.526505 S    
C6    C9    1.400437 A    
O9    C17   1.415192 S    
C12   H1    1.083513 S    
C28   H32   1.102227 S    
C20   H15   1.112836 S    
C22   H18   1.109904 S    
O5    C3    1.302980 A    
O1    C1    1.298305 A    
C17   H7    1.111140 S    
C7    C9    1.393423 A    
C12   C14   1.391384 A    
C26   H28   1.103955 S    
C8    C13   1.406611 A    
C23   H22   1.095414 S    
N1    N2    1.299665 D    
C24   H24   1.106784 S    
O4    Cu1   1.947252 S    
C26   H29   1.117424 S    
C7    C14   1.408088 A    
C20   H14   1.111105 S    
O12   C26   1.417976 S    
C4    C5    1.458759 S    
C21   H17   1.112375 S    
C15   H5    1.087555 S    
N2    O12   1.347088 S    
C20   C21   1.529670 S    
C23   C24   1.520727 S    
Cu1   Cu2   2.708697 S    
N1    O11   1.350465 S    
O2    C2    1.293676 A    
C19   H12   1.110547 S    
C27   C28   1.523421 S    
C18   C19   1.528116 S    
C22   H19   1.108423 S    
C5    C12   1.397422 A    
C6    C11   1.395044 A    
C21   C22   1.526197 S    
C25   H27   1.109956 S    
O4    C2    1.295953 A    
C18   H9    1.106753 S    
C13   C14   1.418148 A    
C19   H13   1.111000 S    
C25   H26   1.109801 S    
C26   C27   1.531573 S    
O7    Cu2   1.962984 S    
C28   H33   1.101717 S    
C15   C16   1.329102 D    
O6    C4    1.301792 A    
C21   H16   1.110843 S    
C11   H2    1.083743 S    
O7    C3    1.300087 A    
O3    Cu2   1.947253 S    
O8    C4    1.303554 A    
C27   H31   1.109393 S    
C8    C10   1.395214 A    
O1    Cu1   1.951740 S    
C19   H11   1.107924 S    
C22   H20   1.110796 S    
O10   C20   1.410944 S    
O6    Cu2   1.961593 S    
C17   C18   1.539374 S    
C27   H30   1.112955 S    
O3    C1    1.291871 A    
O8    Cu1   1.962981 S    
C9    H4    1.080635 S    
C5    C10   1.399685 A    
C25   H25   1.110419 S    
C17   H8    1.115859 S    
C23   H21   1.109036 S    
C7    O9    1.384609 S    
O11   C23   1.414092 S    
C11   C13   1.390065 A    
C24   H23   1.107525 S    
O2    Cu2   1.951741 S    
C28   H34   1.110656 S    
O5    Cu1   1.961594 S    
C18   H10   1.108131 S    
Cu1   N2    2.035421 S    
Cu2   N1    2.035421 S    
C8    O10   1.385952 S    
C16   H6    1.084103 S    
C1    C15   1.428178 S    
