data_mof_unit_66095.cif
_audit_creation_date              2012-12-10T17:20:35-0500
_audit_creation_method            fapswitch 2.2
_symmetry_space_group_name_H-M    P1
_symmetry_Int_Tables_number       1
_space_group_crystal_system       triclinic
_cell_length_a                    18.595058
_cell_length_b                    18.867204
_cell_length_c                    18.91273
_cell_angle_alpha                 109.593739
_cell_angle_beta                  109.517243
_cell_angle_gamma                 108.910865
_cell_volume                      5132.227893

loop_
_atom_site_label
_atom_site_type_symbol
_atom_type_description
_atom_site_fract_x
_atom_site_fract_y
_atom_site_fract_z
_atom_type_partial_charge
C1    C     C_R   0.619669 0.618566 0.500802 0.867171
C2    C     C_3   0.191837 0.418396 0.191425 -0.078759
C3    C     C_3   0.217792 0.463137 0.288084 -0.133959
C4    C     C_3   0.315266 0.501403 0.313101 -0.173927
C5    C     C_R   0.758104 0.758756 0.581127 -0.147772
C6    C     C_R   0.822433 0.822822 0.580439 -0.099085
C7    C     C_R   0.812828 0.815694 0.500457 -0.193801
C8    C     C_R   0.738464 0.745491 0.421291 -0.041054
C9    C     C_R   0.677278 0.679018 0.422166 0.184967
C10   C     C_R   0.687447 0.685599 0.501687 -0.143168
C11   C     C_R   0.677758 0.502327 0.761496 -0.134557
C12   C     C_R   0.381517 0.500669 0.380902 0.904094
C13   C     C_R   0.742621 0.502188 0.826964 0.193475
C14   C     C_R   0.815199 0.500835 0.819458 -0.063159
C15   C     C_R   0.820373 0.493926 0.745856 -0.307829
C16   C     C_R   0.754527 0.488853 0.678350 0.264800
C17   C     C_R   0.684310 0.496354 0.687151 -0.149451
C18   C     C_R   0.254227 0.331100 0.525973 -0.118000
C19   C     C_R   0.186423 0.264068 0.519389 0.170961
C20   C     C_R   0.185497 0.184853 0.500296 -0.174436
C21   C     C_R   0.248668 0.169714 0.482816 -0.094923
C22   C     C_R   0.313837 0.234894 0.484104 0.200593
C23   C     C_R   0.381268 0.381431 0.500792 0.892749
C24   C     C_R   0.315565 0.315193 0.503806 -0.168705
C25   C     C_R   0.002343 0.618568 0.121745 0.849221
C26   C     C_R   0.123741 0.499148 0.121694 0.897214
C27   C     C_R   0.003915 0.381427 0.884277 0.855886
C28   C     C_R   0.883802 0.500624 0.885224 0.811656
C29   C     C_R   0.999894 0.880226 0.382589 0.902298
C30   C     C_R   0.880826 0.881588 0.499974 0.911086
C31   C     C_R   0.000051 0.119519 0.617424 0.880277
C32   C     C_R   0.118655 0.118119 0.499876 0.829634
C33   C     C_R   0.016500 0.764856 0.191532 -0.033751
C34   C     C_R   0.618823 0.498813 0.619617 0.845357
C35   C     C_R   0.013234 0.825918 0.254678 -0.167254
C36   C     C_R   0.998553 0.811500 0.317213 -0.095916
C37   C     C_R   0.984204 0.733562 0.317298 -0.080388
C38   C     C_R   0.979371 0.667558 0.249497 -0.100949
C39   C     C_R   0.999496 0.684382 0.188200 -0.194301
C40   C     C_R   0.077486 0.333192 0.804660 0.150689
C41   C     C_R   0.077667 0.268889 0.740329 -0.113138
C42   C     C_R   0.000912 0.187739 0.683433 -0.200662
C43   C     C_R   0.923597 0.171738 0.687874 0.192645
C44   C     C_R   0.923279 0.236530 0.751879 0.161997
C45   C     C_3   0.317238 0.582403 0.309604 -0.140635
C46   C     C_R   0.001635 0.315804 0.812863 -0.145304
C47   C     C_3   0.219550 0.544747 0.285023 -0.112325
C48   C     C_3   0.193245 0.499908 0.188435 -0.208953
C49   C     C_3   0.291117 0.538149 0.213301 -0.090502
C50   C     C_3   0.289247 0.457430 0.217261 0.200394
Cu1   Cu    Cu3+1 0.500500 0.438200 0.438680 1.025518
Cu2   Cu    Cu3+1 0.499500 0.561800 0.561320 1.069726
Cu3   Cu    Cu3+1 0.942090 0.438180 0.003770 1.045641
Cu4   Cu    Cu3+1 0.065710 0.561750 0.003750 1.052665
Cu5   Cu    Cu3+1 0.062280 0.999890 0.562170 1.084185
Cu6   Cu    Cu3+1 0.937720 0.999930 0.437650 1.003061
H1    H     H_    0.874740 0.489303 0.739430 0.154388
H2    H     H_    0.023597 0.886493 0.256040 0.193185
O1    O     O_R   0.590610 0.537990 0.448230 -0.583230
O2    O     O_R   0.055400 0.642330 0.093210 -0.541018
O3    O     O_R   0.042570 0.447790 0.094640 -0.547943
O4    O     O_R   0.146970 0.552140 0.094620 -0.550825
O5    O     O_R   0.952400 0.357600 0.914310 -0.541630
O6    O     O_R   0.056800 0.461950 0.914290 -0.585176
O7    O     O_R   0.860830 0.447790 0.912900 -0.569560
O8    O     O_R   0.965230 0.552140 0.912880 -0.579554
O9    O     O_R   0.053290 0.909730 0.462990 -0.574722
O10   O     O_R   0.948100 0.909770 0.357840 -0.572750
O11   O     O_R   0.962410 0.909720 0.552480 -0.560533
O12   O     O_R   0.589770 0.642360 0.551790 -0.561031
O13   O     O_R   0.857220 0.909750 0.447330 -0.585664
O14   O     O_R   0.051900 0.090060 0.641980 -0.541669
O15   O     O_R   0.946710 0.090090 0.536830 -0.599007
O16   O     O_R   0.142780 0.090070 0.552500 -0.558906
O17   O     O_R   0.037590 0.090110 0.447350 -0.598839
O18   O     O_R   0.409550 0.447810 0.357350 -0.570175
O19   O     O_R   0.408710 0.552190 0.460910 -0.549058
O20   O     O_R   0.410230 0.357640 0.448210 -0.550373
O21   O     O_R   0.409390 0.462010 0.551770 -0.574476
O22   O     O_R   0.591290 0.447810 0.539090 -0.576005
O23   O     O_R   0.590450 0.552190 0.642650 -0.566084
O24   O     O_R   0.951000 0.537980 0.093230 -0.581288
C51   C     C_2   0.187893 0.601714 0.325579 0.960382
O25   O     O_2   0.168428 0.595226 0.379583 -0.513074
O26   O     O_R   0.184448 0.664765 0.303695 -0.717259
H3    H     H_    0.164570 0.701026 0.336781 0.346419
N1    N     N_2   0.602829 0.606299 0.343343 -0.434069
H4    H     H_    0.564802 0.621407 0.303780 0.297223
C52   C     C_3   0.619879 0.540882 0.297479 -0.574409
H5    H     H_    0.659422 0.564722 0.269407 0.237549
H6    H     H_    0.556783 0.482641 0.244115 0.219269
H7    H     H_    0.655304 0.522161 0.341533 0.241691
C53   C     C_2   0.602353 0.506227 0.770383 0.864977
O27   O     O_2   0.615344 0.563790 0.835685 -0.573758
O28   O     O_R   0.516676 0.444063 0.704294 -0.798469
H8    H     H_    0.471191 0.453714 0.717869 0.345913
N2    N     N_2   0.731914 0.496839 0.896754 -0.421810
H9    H     H_    0.668131 0.461690 0.881507 0.265523
C54   C     C_3   0.782056 0.577079 0.977983 -0.539958
H10   H     H_    0.764242 0.626010 0.970863 0.256285
H11   H     H_    0.852691 0.602106 0.000998 0.233654
H12   H     H_    0.769067 0.565739 0.027501 0.222976
N3    N     N_2   0.757879 0.472174 0.600501 -0.422268
H13   H     H_    0.784513 0.432752 0.586151 0.247493
C55   C     C_3   0.795818 0.547814 0.593489 -0.575200
H14   H     H_    0.862541 0.595328 0.650015 0.234758
H15   H     H_    0.753417 0.577628 0.588656 0.255446
H16   H     H_    0.800501 0.528772 0.533581 0.214950
C56   C     C_2   0.260076 0.417541 0.558950 0.916848
O29   O     O_2   0.264441 0.451812 0.628897 -0.548505
O30   O     O_R   0.258442 0.458710 0.509816 -0.744834
H17   H     H_    0.262349 0.516753 0.539376 0.354780
N4    N     N_2   0.119671 0.277568 0.533105 -0.385769
H18   H     H_    0.093377 0.245152 0.560206 0.254440
C57   C     C_3   0.053371 0.271829 0.460617 -0.577364
H19   H     H_    0.016877 0.205864 0.403717 0.227187
H20   H     H_    0.083322 0.319487 0.442953 0.239896
H21   H     H_    0.006466 0.286045 0.478418 0.224087
C58   C     C_2   0.244560 0.084376 0.459820 0.862981
O31   O     O_2   0.176502 0.018202 0.401821 -0.613439
O32   O     O_R   0.318283 0.079743 0.504362 -0.756244
H22   H     H_    0.307101 0.018165 0.482573 0.349902
N5    N     N_2   0.375936 0.218835 0.462700 -0.399983
H23   H     H_    0.352192 0.156707 0.415677 0.274159
C59   C     C_3   0.460921 0.253646 0.535696 -0.543658
H24   H     H_    0.454636 0.227768 0.579358 0.254574
H25   H     H_    0.493355 0.324898 0.572522 0.237763
H26   H     H_    0.503313 0.236049 0.512238 0.210889
C60   C     C_2   0.034938 0.787939 0.129218 0.881897
O33   O     O_2   0.093166 0.860002 0.155857 -0.550830
O34   O     O_R   0.984112 0.729531 0.040389 -0.780077
H27   H     H_    0.002938 0.753650 0.005209 0.348784
C61   C     C_2   0.388034 0.674733 0.373348 0.880918
O35   O     O_2   0.376935 0.733071 0.366679 -0.517263
O36   O     O_R   0.466985 0.693640 0.438163 -0.760935
H28   H     H_    0.509641 0.757939 0.475950 0.339576
C62   C     C_2   0.976227 0.720878 0.388658 0.888048
O37   O     O_2   0.929966 0.741016 0.414505 -0.577736
O38   O     O_R   0.021811 0.685206 0.425889 -0.726621
H29   H     H_    0.011080 0.679386 0.473317 0.346577
C63   C     C_2   0.947819 0.580390 0.241517 0.938234
O39   O     O_2   0.876465 0.543991 0.235264 -0.580249
O40   O     O_R   0.999457 0.540685 0.242461 -0.721126
H30   H     H_    0.970571 0.481878 0.236870 0.350992
N6    N     N_2   0.153827 0.416082 0.861863 -0.402050
H31   H     H_    0.168450 0.453521 0.834273 0.300055
C64   C     C_3   0.228498 0.421272 0.925050 -0.573671
H32   H     H_    0.246274 0.468406 0.990308 0.244032
H33   H     H_    0.285173 0.443763 0.914654 0.243466
H34   H     H_    0.214014 0.357636 0.921016 0.213622
C65   C     C_2   0.158653 0.288332 0.733584 0.809128
O41   O     O_2   0.192693 0.243116 0.737117 -0.568825
O42   O     O_R   0.198298 0.361114 0.727361 -0.734518
H35   H     H_    0.254040 0.368709 0.725482 0.358573
N7    N     N_2   0.847198 0.089017 0.628994 -0.404602
H36   H     H_    0.819109 0.058475 0.656475 0.274207
C66   C     C_3   0.784974 0.080286 0.551496 -0.601659
H37   H     H_    0.728076 0.081742 0.557672 0.208692
H38   H     H_    0.761086 0.017293 0.495455 0.248744
H39   H     H_    0.815099 0.132541 0.538677 0.224858
N8    N     N_2   0.843734 0.224175 0.752872 -0.396078
H40   H     H_    0.800041 0.162089 0.733218 0.261463
C67   C     C_3   0.802106 0.265494 0.715627 -0.634966
H41   H     H_    0.779603 0.235818 0.645374 0.213114
H42   H     H_    0.848078 0.335591 0.747477 0.204504
H43   H     H_    0.744680 0.257822 0.724844 0.233054
C68   C     C_2   0.335585 0.583094 0.175560 0.854318
O43   O     O_2   0.378182 0.558098 0.147255 -0.620792
O44   O     O_R   0.330405 0.655353 0.175708 -0.684471
H44   H     H_    0.363491 0.680567 0.149350 0.339927
N9    N     N_2   0.331628 0.412780 0.185227 -0.383781
H45   H     H_    0.397536 0.452864 0.211224 0.278535
C69   C     C_3   0.286080 0.354896 0.093035 -0.576446
H46   H     H_    0.333496 0.348138 0.071654 0.222641
H47   H     H_    0.249939 0.379523 0.057723 0.210304
H48   H     H_    0.239294 0.290101 0.076972 0.251370
C70   C     C_2   0.124240 0.325521 0.125515 0.856271
O45   O     O_2   0.126516 0.268688 0.141972 -0.537163
O46   O     O_R   0.061268 0.304025 0.044763 -0.765058
H49   H     H_    0.020602 0.239446 0.005829 0.340527
C71   C     C_2   0.175763 0.414216 0.324375 0.938901
O47   O     O_2   0.127662 0.431592 0.349025 -0.543064
O48   O     O_R   0.189611 0.346285 0.326565 -0.721402
H50   H     H_    0.155162 0.315254 0.348639 0.334383
C72   C     C_2   0.763413 0.770894 0.665201 0.920687
O49   O     O_2   0.770555 0.837420 0.715035 -0.562715
O50   O     O_R   0.760212 0.706785 0.687276 -0.786118
H51   H     H_    0.764208 0.722764 0.745788 0.348629
C73   C     C_2   0.899153 0.897920 0.663983 0.920253
O51   O     O_2   0.943574 0.885916 0.718200 -0.562018
O52   O     O_R   0.920050 0.981973 0.680492 -0.771319
H52   H     H_    0.973274 0.027390 0.739378 0.339433
C74   C     C_2   0.724299 0.739808 0.337001 0.870240
O53   O     O_2   0.777256 0.735658 0.313464 -0.562564
O54   O     O_R   0.650288 0.739563 0.284829 -0.756872
H53   H     H_    0.647686 0.735311 0.229063 0.344737

loop_
_geom_bond_atom_site_label_1
_geom_bond_atom_site_label_2
_ccdc_geom_bond_type
Cu5   Cu6   S    
C66   H37   S    
C31   C42   S    
N7    C66   S    
O28   H8    S    
N5    H23   S    
C41   C42   A    
C55   H14   S    
C67   H41   S    
C18   C56   S    
C5    C72   S    
N1    H4    S    
C49   C50   S    
C32   O17   A    
C30   O13   A    
O36   H28   S    
C68   O44   S    
Cu4   O2    S    
O26   H3    S    
C40   C46   A    
C62   O38   S    
C29   C36   S    
C33   C39   A    
C40   N6    S    
C35   H2    S    
C18   C24   A    
C36   C37   A    
C67   H42   S    
C26   O3    A    
C49   C68   S    
C63   O40   S    
C32   O16   A    
C5    C6    A    
C72   O50   S    
C19   N4    S    
O40   H30   S    
C71   O47   D    
C11   C13   A    
C60   O34   S    
C18   C19   A    
O44   H44   S    
C45   C47   S    
C73   O52   S    
Cu1   O22   S    
C61   O35   D    
C2    C50   S    
C56   O30   S    
C34   O22   A    
C29   O9    A    
Cu5   O16   S    
Cu3   O3    S    
C25   O2    A    
O42   H35   S    
C64   H32   S    
C42   C43   A    
C16   C17   A    
C70   O46   S    
C59   H26   S    
C65   O41   D    
C31   O14   A    
C50   N9    S    
C2    C70   S    
C47   C51   S    
C52   H6    S    
Cu2   O21   S    
Cu3   O7    S    
C9    C10   A    
Cu5   O14   S    
C26   C48   S    
N2    H9    S    
Cu6   O13   S    
C71   O48   S    
C66   H38   S    
Cu6   O17   S    
C37   C62   S    
C21   C22   A    
C15   H1    S    
Cu2   O23   S    
C43   N7    S    
N8    C67   S    
C44   C46   A    
N8    H40   S    
C4    C45   S    
C58   O32   S    
C55   H16   S    
N6    C64   S    
O52   H52   S    
C47   C48   S    
C7    C8    A    
C64   H34   S    
Cu2   O12   S    
Cu1   O18   S    
N2    C54   S    
C68   O43   D    
C60   O33   D    
C8    C9    A    
Cu4   O4    S    
C2    C48   S    
C69   H46   S    
C3    C4    S    
Cu1   Cu2   S    
C4    C50   S    
Cu3   O24   S    
C35   C36   A    
C28   O8    A    
O48   H50   S    
C37   C38   A    
C29   O10   A    
C55   H15   S    
C16   N3    S    
C51   O25   D    
C45   C49   S    
C23   C24   S    
C57   H21   S    
C12   O19   A    
C67   H43   S    
C74   O54   S    
C25   O24   A    
C8    C74   S    
N3    C55   S    
C53   O27   D    
C52   H7    S    
C59   H25   S    
C3    C71   S    
N9    H45   S    
O32   H22   S    
Cu5   O11   S    
C69   H47   S    
C27   O5    A    
Cu4   O8    S    
C27   C46   S    
C40   C41   A    
C51   O26   S    
C31   O15   A    
C70   O45   D    
C66   H39   S    
C12   O18   A    
C43   C44   A    
C59   H24   S    
C38   C63   S    
C22   C24   A    
C4    C12   S    
C17   C34   S    
Cu2   O19   S    
N6    H31   S    
N7    H36   S    
C30   O11   A    
O38   H29   S    
C22   N5    S    
N4    H18   S    
C20   C32   S    
C69   H48   S    
C33   C60   S    
C57   H20   S    
C11   C17   A    
Cu6   O15   S    
O30   H17   S    
C64   H33   S    
C1    C10   S    
C57   H19   S    
C13   C14   A    
O34   H27   S    
C7    C30   S    
Cu5   O9    S    
C58   O31   D    
Cu3   Cu4   S    
C6    C7    A    
C41   C65   S    
O46   H49   S    
N9    C69   S    
C62   O37   D    
C45   C61   S    
C1    O12   A    
C54   H10   S    
C14   C28   S    
C19   C20   A    
C1    O1    A    
C28   O7    A    
C26   O4    A    
Cu1   O20   S    
C5    C10   A    
C21   C58   S    
Cu6   O10   S    
C63   O39   D    
C9    N1    S    
Cu3   O5    S    
C11   C53   S    
C72   O49   D    
C38   C39   A    
Cu4   O6    S    
C48   C49   S    
C6    C73   S    
C3    C47   S    
C33   C35   A    
C2    C3    S    
C65   O42   S    
C23   O20   A    
C13   N2    S    
C73   O51   D    
N5    C59   S    
C27   O6    A    
O54   H53   S    
O50   H51   S    
C54   H12   S    
Cu1   O1    S    
C20   C21   A    
C53   O28   S    
C74   O53   D    
C44   N8    S    
N3    H13   S    
C61   O36   S    
N1    C52   S    
C14   C15   A    
C23   O21   A    
C52   H5    S    
C56   O29   D    
C54   H11   S    
C34   O23   A    
C25   C39   S    
C15   C16   A    
N4    C57   S    
