data_mof_unit_68542.cif
_audit_creation_date              2012-12-11T14:34:37-0500
_audit_creation_method            fapswitch 2.2
_symmetry_space_group_name_H-M    P1
_symmetry_Int_Tables_number       1
_space_group_crystal_system       triclinic
_cell_length_a                    8.49936
_cell_length_b                    15.467252
_cell_length_c                    16.649885
_cell_angle_alpha                 111.225276
_cell_angle_beta                  98.876299
_cell_angle_gamma                 78.744901
_cell_volume                      1992.71026114

loop_
_atom_site_label
_atom_site_type_symbol
_atom_type_description
_atom_site_fract_x
_atom_site_fract_y
_atom_site_fract_z
_atom_type_partial_charge
Ba1   Ba    Ba6+2 0.364960 0.465930 0.541880 1.999600
Ba2   Ba    Ba6+2 0.824870 0.533990 0.458110 1.975260
C1    C     C_3   0.358034 0.198071 0.772181 -0.195111
C2    C     C_3   0.280729 0.281384 0.741635 0.351091
C3    C     C_3   0.938612 0.836093 0.733396 0.084688
C4    C     C_3   0.918707 0.933261 0.725173 -0.315696
C5    C     C_3   0.439880 0.697977 0.238989 0.695114
C6    C     C_3   0.374359 0.724386 0.158325 0.455195
C7    C     C_3   0.918481 0.741599 0.283255 0.764981
C8    C     C_3   0.835936 0.829909 0.264675 1.231138
C9    C     C_2   0.301883 0.488094 0.249991 -0.200447
C10   C     C_R   0.911442 0.570452 0.765615 0.414227
C11   C     C_2   0.499548 0.419493 0.143757 -0.084688
C12   C     C_3   0.748660 0.319963 0.794191 0.628034
C13   C     C_2   0.461050 0.433004 0.223260 -0.007882
C14   C     C_2   0.179591 0.502846 0.191479 0.069556
C15   C     C_3   0.207208 0.461091 0.095844 -0.096157
C16   C     C_3   0.383891 0.459277 0.082906 0.290435
C17   C     C_2   0.080787 0.496712 0.034766 0.033462
C18   C     C_2   0.115487 0.512941 0.965275 0.099061
C19   C     C_R   0.830030 0.571769 0.921666 0.195670
C20   C     C_R   0.990193 0.539621 0.901237 -0.106640
C21   C     C_R   0.710089 0.595547 0.862335 -0.095900
C22   C     C_R   0.749243 0.592865 0.782682 -0.031057
C23   C     C_3   0.674257 0.353437 0.881179 0.577307
C24   C     C_R   0.028490 0.533632 0.819199 -0.029639
C25   C     C_R   0.266877 0.764812 0.490732 0.269033
C26   C     C_R   0.349552 0.817126 0.464098 -0.019884
C27   C     C_R   0.293120 0.912311 0.478720 0.430100
C28   C     C_R   0.132105 0.951503 0.498877 -0.068391
C29   C     C_R   0.041560 0.891213 0.514592 0.489114
C30   C     C_R   0.116177 0.802875 0.521013 -0.163109
C31   C     C_R   0.946912 0.106765 0.566848 0.654333
C32   C     C_R   0.879000 0.198356 0.573236 -0.157088
C33   C     C_R   0.076099 0.202898 0.479876 -0.142042
C34   C     C_3   0.592361 0.192205 0.241985 -0.020040
C35   C     C_R   0.116773 0.102848 0.459821 -0.096437
C36   C     C_R   0.064628 0.054920 0.508596 0.054168
C37   C     C_R   0.949002 0.246661 0.533451 -0.424116
C38   C     C_3   0.442184 0.205473 0.179070 -0.352643
C39   C     C_3   0.441038 0.787789 0.777856 0.101245
C40   C     C_3   0.372169 0.883410 0.769161 0.517256
C41   C     C_3   0.056934 0.233679 0.259894 0.110191
C42   C     C_3   0.052910 0.148840 0.172031 -0.292687
H1    H     H_    0.348807 0.278218 0.688655 0.079069
H2    H     H_    0.362364 0.159098 0.180709 0.148919
H3    H     H_    0.372555 0.276290 0.201660 -0.026435
H4    H     H_    0.334927 0.753254 0.771275 0.073475
H5    H     H_    0.281836 0.872051 0.712396 -0.081251
H6    H     H_    0.950438 0.241872 0.292185 0.041368
H7    H     H_    0.116482 0.159355 0.123756 0.092802
H8    H     H_    0.926245 0.148940 0.143537 0.070279
H9    H     H_    0.154309 0.273738 0.714555 -0.088674
H10   H     H_    0.825379 0.805376 0.709684 0.077277
H11   H     H_    0.876896 0.928681 0.658456 0.194244
H12   H     H_    0.828005 0.983660 0.766915 0.161938
H13   H     H_    0.033348 0.962002 0.744132 0.218806
H14   H     H_    0.489667 0.194932 0.781995 0.040118
H15   H     H_    0.630716 0.295299 0.890964 -0.001729
H16   H     H_    0.338991 0.679483 0.261493 0.039146
H17   H     H_    0.300895 0.794915 0.178615 0.019920
H18   H     H_    0.859350 0.736849 0.335894 -0.030951
H19   H     H_    0.708013 0.824625 0.242262 -0.083020
H20   H     H_    0.617934 0.385173 0.124054 0.112789
H21   H     H_    0.587085 0.615127 0.878692 0.164384
H22   H     H_    0.283777 0.514144 0.318263 0.118257
H23   H     H_    0.955534 0.500976 0.043850 0.098206
H24   H     H_    0.240468 0.505481 0.954263 0.161993
H25   H     H_    0.764515 0.380062 0.936563 -0.014724
O1    O     O_2   0.426270 0.593440 0.713420 -0.471413
O2    O     O_3   0.191304 0.220887 0.316697 -0.610193
O3    O     O_3   0.655766 0.258576 0.728115 -0.651052
O4    O     O_2   0.763420 0.406520 0.286530 -0.432674
O5    O     O_3   0.541980 0.429670 0.395140 -0.399003
O6    O     O_3   0.985790 0.582400 0.342040 -0.450803
O7    O     O_3   0.687716 0.263289 0.266166 -0.689256
O8    O     O_3   0.119470 0.618230 0.545790 -0.338203
O9    O     O_3   0.574000 0.638040 0.386500 -0.415783
O10   O     O_2   0.673466 0.805527 0.449970 -0.348379
O11   O     O_3   0.503126 0.774260 0.303114 -0.675886
O12   O     O_3   0.647730 0.570260 0.604850 -0.343735
O13   O     O_3   0.070240 0.381690 0.454200 -0.431457
O14   O     O_2   0.845720 0.730180 0.545110 -0.430050
O15   O     O_3   0.067410 0.776158 0.688150 -0.673406
O16   O     O_2   0.847218 0.496440 0.188509 -0.387450
O17   O     O_3   0.903184 0.663022 0.207826 -0.617636
O18   O     O_3   0.203920 0.417520 0.657950 -0.475722
O19   O     O_2   0.352805 0.520457 0.804991 -0.386089
O20   O     O_3   0.542448 0.736450 0.710796 -0.672058
O21   O     O_3   0.286202 0.367282 0.809973 -0.530478
O22   O     O_2   0.343970 0.269780 0.454840 -0.406287
O23   O     O_3   0.615710 0.361880 0.613490 -0.403790
O24   O     O_2   0.549715 0.192930 0.566450 -0.393596
P1    P     P_3+3 0.589930 0.617420 0.700180 1.145103
P2    P     P_3+3 0.161520 0.277720 0.428790 1.094500
P3    P     P_3+3 0.681610 0.251288 0.622459 1.124840
P4    P     P_3+3 0.599780 0.382500 0.299810 1.069470
P5    P     P_3+3 0.525568 0.758274 0.403472 1.200932
P6    P     P_3+3 0.215245 0.461094 0.771760 1.131240
P7    P     P_3+3 0.030369 0.737541 0.574635 1.130364
P8    P     P_3+3 0.978714 0.559856 0.231147 1.145988
C43   C     C_2   0.470873 0.178958 0.084967 0.958832
O25   O     O_2   0.380400 0.131834 0.029445 -0.452202
O26   O     O_R   0.600469 0.202647 0.059161 -0.706495
H26   H     H_    0.677552 0.233510 0.109132 0.251988
C44   C     C_2   0.527246 0.800831 0.866537 0.846171
O27   O     O_2   0.460906 0.789327 0.921215 -0.544259
O28   O     O_R   0.679519 0.828099 0.886846 -0.745420
H27   H     H_    0.724032 0.834636 0.948513 0.362270
F1    F     F_    0.295681 0.942246 0.841662 -0.621534
C45   C     C_2   0.496936 0.929128 0.752132 0.856316
O29   O     O_2   0.555508 0.992099 0.810396 -0.532702
O30   O     O_R   0.538281 0.901731 0.667443 -0.789659
H28   H     H_    0.606270 0.944454 0.659834 0.349234
C46   C     C_2   0.063159 0.321604 0.241507 0.854231
O31   O     O_2   0.113893 0.387187 0.299542 -0.589747
O32   O     O_R   0.015584 0.330642 0.160183 -0.766535
H29   H     H_    0.938456 0.287266 0.121754 0.276402
C47   C     C_2   0.326725 0.108863 0.700793 0.787200
O33   O     O_2   0.402581 0.081215 0.637396 -0.523090
O34   O     O_R   0.210979 0.058828 0.705712 -0.673476
H30   H     H_    0.215833 0.995059 0.659330 0.276516
C48   C     C_2   0.121642 0.050956 0.171217 1.026504
O35   O     O_2   0.039065 0.988234 0.138899 -0.454456
O36   O     O_R   0.284429 0.028431 0.195366 -0.687029
H31   H     H_    0.319495 0.958801 0.183179 0.346992
C49   C     C_2   0.312305 0.206194 0.859397 1.068784
O37   O     O_2   0.254505 0.144311 0.868607 -0.421845
O38   O     O_R   0.342301 0.284522 0.931301 -0.720214
H32   H     H_    0.300679 0.284039 0.984870 0.306580
C50   C     C_2   0.977659 0.845046 0.828256 1.036063
O39   O     O_2   0.941281 0.919897 0.885383 -0.459097
O40   O     O_R   0.055463 0.768851 0.852838 -0.698812
H33   H     H_    0.089664 0.710910 0.802500 0.287681
F2    F     F_    0.558822 0.620496 0.218251 -0.707893
C51   C     C_2   0.506406 0.725262 0.108239 0.920649
O41   O     O_2   0.592175 0.652153 0.071883 -0.542259
O42   O     O_R   0.529772 0.809856 0.102889 -0.718688
H34   H     H_    0.627317 0.802384 0.071459 0.356449
F3    F     F_    0.274222 0.662338 0.104945 -0.722375
F4    F     F_    0.078860 0.749193 0.309948 -0.797895
F5    F     F_    0.842564 0.907515 0.339143 -0.628788
F6    F     F_    0.758968 0.397965 0.774733 -0.754323
F7    F     F_    0.909138 0.841206 0.201215 -0.618218
F8    F     F_    0.954200 0.578351 0.693480 -0.702578
F9    F     F_    0.894779 0.069499 0.617971 -0.667893
F10   F     F_    0.400301 0.965550 0.476825 -0.598357
C52   C     C_2   0.185195 0.043824 0.379191 0.952262
O43   O     O_2   0.320055 0.048908 0.368576 -0.444049
O44   O     O_R   0.105321 0.971919 0.321381 -0.654640
H35   H     H_    0.174095 0.926601 0.274863 0.337906
C53   C     C_2   0.912971 0.270070 0.809722 0.693337
O45   O     O_2   0.017963 0.317244 0.848169 -0.616865
O46   O     O_R   0.942658 0.173481 0.793456 -0.645210
H36   H     H_    0.841676 0.143118 0.775470 0.321435
F11   F     F_    0.880568 0.914788 0.517232 -0.595541
C54   C     C_2   0.880925 0.344057 0.546203 0.958220
O47   O     O_2   0.800950 0.365518 0.487291 -0.507557
O48   O     O_R   0.891545 0.410765 0.627715 -0.678963
H37   H     H_    0.941887 0.381644 0.672841 0.232592
F12   F     F_    0.334307 0.676691 0.487532 -0.701861
F13   F     F_    0.551093 0.426902 0.887027 -0.637071
C55   C     C_2   0.700785 0.098082 0.204522 0.940033
O49   O     O_2   0.668765 0.042697 0.132518 -0.473999
O50   O     O_R   0.832005 0.069521 0.255920 -0.641119
H38   H     H_    0.855069 0.118960 0.314017 0.243893
C56   C     C_2   0.552571 0.186119 0.322719 0.906560
O51   O     O_2   0.489116 0.121101 0.318960 -0.482780
O52   O     O_R   0.623582 0.239377 0.401133 -0.720217
H39   H     H_    0.639218 0.206288 0.444327 0.305760

loop_
_geom_bond_atom_site_label_1
_geom_bond_atom_site_label_2
_ccdc_geom_bond_type
Ba1   O18   S    
C38   H3    S    
C39   O20   S    
O50   H38   S    
C2    H9    S    
C6    C51   S    
Ba1   O8    S    
C39   C40   S    
O21   P6    S    
O10   P5    D    
C55   O49   D    
C4    H11   S    
C40   C45   S    
C8    H19   S    
C29   F11   S    
C48   O35   D    
C56   O52   S    
O4    P4    D    
C54   O47   D    
C11   C16   S    
Ba1   O5    S    
C26   C27   A    
C55   O50   S    
C35   C36   A    
C32   P3    S    
O38   H32   S    
C8    F5    S    
C28   C29   A    
C1    C49   S    
C48   O36   S    
O2    P2    S    
C44   O27   D    
Ba1   O12   S    
C46   O31   D    
O23   P3    S    
O28   H27   S    
C28   C36   S    
O8    P7    S    
Ba1   Ba2   S    
O52   H39   S    
O20   P1    S    
Ba1   O23   S    
C34   O7    S    
C41   C46   S    
C9    C13   S    
C17   C18   D    
Ba2   P4    S    
C14   C15   S    
C46   O32   S    
O9    P5    S    
C34   C55   S    
C21   C22   A    
C17   H23   S    
C7    C8    S    
C2    O21   S    
Ba2   O5    S    
C9    H22   S    
C24   P6    S    
C42   H8    S    
O36   H31   S    
C35   C52   S    
C19   C20   A    
C37   C54   S    
C4    H13   S    
Ba2   O14   S    
C13   P4    S    
O26   H26   S    
C31   C32   A    
O5    P4    S    
O18   P6    S    
C2    H1    S    
C47   O34   S    
C39   C44   S    
C7    H18   S    
O15   P7    S    
C3    H10   S    
C5    C6    S    
C52   O43   D    
C51   O42   S    
C31   F9    S    
C4    H12   S    
C56   O51   D    
C3    O15   S    
C7    F4    S    
Ba1   P1    S    
O7    P4    S    
O22   P2    D    
C34   C56   S    
C32   C37   A    
C10   C24   A    
C10   F8    S    
C33   C37   A    
C41   C42   S    
C49   O38   S    
C5    F2    S    
C27   C28   A    
Ba2   O9    S    
C22   P1    S    
C7    O17   S    
C9    C14   D    
O48   H37   S    
C34   C38   S    
C23   F13   S    
Ba1   P2    S    
C15   C16   S    
O46   H36   S    
C45   O30   S    
C8    F7    S    
C43   O26   S    
O34   H30   S    
Ba2   O4    S    
C1    C47   S    
C42   H7    S    
C18   C20   S    
O24   P3    D    
O14   P7    D    
C11   C13   D    
O40   H33   S    
Ba2   O13   S    
C23   H25   S    
C38   H2    S    
C1    C2    S    
C5    H16   S    
O16   P8    D    
C33   C35   A    
O30   H28   S    
C53   O46   S    
C26   P5    S    
C12   F6    S    
C41   O2    S    
O13   P2    S    
C45   O29   D    
O11   P5    S    
C25   C30   A    
C12   O3    S    
C18   H24   S    
C29   C30   A    
C31   C36   A    
C52   O44   S    
C51   O41   D    
C50   O40   S    
C27   F10   S    
C47   O33   D    
C41   H6    S    
C49   O37   D    
C33   P2    S    
O1    P1    D    
C10   C22   A    
C42   C48   S    
Ba1   O1    S    
C6    F3    S    
C21   H21   S    
C19   C21   A    
C40   F1    S    
Ba2   O8    S    
O32   H29   S    
C25   F12   S    
O12   P1    S    
Ba1   O13   S    
C3    C4    S    
C11   H20   S    
C44   O28   S    
Ba1   O22   S    
C15   C17   S    
C39   H4    S    
C12   C23   S    
C43   O25   D    
C6    H17   S    
O19   P6    D    
O42   H34   S    
C40   H5    S    
C38   C43   S    
O3    P3    S    
C1    H14   S    
C30   P7    S    
C14   P8    S    
C3    C50   S    
C53   O45   D    
C54   O48   S    
C20   C24   A    
C12   C53   S    
C25   C26   A    
O6    P8    S    
O44   H35   S    
Ba2   O12   S    
C23   H15   S    
O17   P8    S    
Ba2   O6    S    
C50   O39   D    
C5    O11   S    
