data_mof_unit_51671.cif
_audit_creation_date              2012-12-10T19:46:27-0500
_audit_creation_method            fapswitch 2.2
_symmetry_space_group_name_H-M    P1
_symmetry_Int_Tables_number       1
_space_group_crystal_system       triclinic
_cell_length_a                    10.876868
_cell_length_b                    10.862853
_cell_length_c                    10.422582
_cell_angle_alpha                 90.359655
_cell_angle_beta                  90.295229
_cell_angle_gamma                 90.0007
_cell_volume                      1231.42724818

loop_
_atom_site_label
_atom_site_type_symbol
_atom_type_description
_atom_site_fract_x
_atom_site_fract_y
_atom_site_fract_z
_atom_type_partial_charge
C1    C     C_R   0.495435 0.261515 0.499241 0.791512
C2    C     C_R   0.504580 0.738484 0.500758 0.791553
C3    C     C_R   0.871963 0.496648 0.501410 -0.292841
C4    C     C_R   0.128035 0.503349 0.498587 -0.292865
C5    C     C_R   0.938944 0.450785 0.607470 -0.200565
C6    C     C_R   0.061052 0.549205 0.392521 -0.200542
C7    C     C_R   0.269298 0.222216 0.139289 -0.118968
C8    C     C_R   0.730780 0.778072 0.860866 -0.119084
C9    C     C_R   0.310221 0.172216 0.255188 -0.114974
C10   C     C_R   0.689887 0.828039 0.744940 -0.115356
C11   C     C_R   0.426315 0.115979 0.262794 0.126258
C12   C     C_R   0.573694 0.884019 0.737204 0.126297
C13   C     C_R   0.500374 0.109796 0.152911 -0.155968
C14   C     C_R   0.499492 0.889958 0.846971 -0.155671
C15   C     C_R   0.459255 0.160526 0.037386 -0.159778
C16   C     C_R   0.540577 0.839254 0.962521 -0.159809
C17   C     C_R   0.343775 0.216562 0.030532 -0.111558
C18   C     C_R   0.656164 0.783490 0.969513 -0.111608
C19   C     C_R   0.477986 0.932666 0.387968 -0.245450
C20   C     C_R   0.522084 0.067335 0.612021 -0.245434
C21   C     C_R   0.507200 0.872112 0.502177 -0.073733
C22   C     C_R   0.492840 0.127889 0.497818 -0.073748
C23   C     C_R   0.261530 0.502172 0.499491 0.873321
C24   C     C_R   0.738469 0.497826 0.500509 0.873407
C25   C     C_R   0.531755 0.940270 0.615471 -0.002436
C26   C     C_R   0.468293 0.059731 0.384521 -0.002371
C27   C     C_1   0.500016 0.500011 0.071930 0.098779
C28   C     C_1   0.499981 0.499989 0.928069 0.098927
C29   C     C_R   0.230121 0.771317 0.176655 -0.141856
C30   C     C_R   0.769854 0.228662 0.823317 -0.141817
C31   C     C_R   0.178924 0.718702 0.286350 -0.104074
C32   C     C_R   0.821179 0.281219 0.713654 -0.104259
C33   C     C_R   0.120113 0.603769 0.278179 0.236738
C34   C     C_R   0.879863 0.396225 0.721800 0.236862
C35   C     C_R   0.113116 0.542591 0.159194 -0.079050
C36   C     C_R   0.886611 0.457536 0.840727 -0.079013
C37   C     C_R   0.166156 0.594574 0.050327 -0.165936
C38   C     C_R   0.833453 0.405610 0.949564 -0.165968
C39   C     C_R   0.224448 0.708967 0.059007 -0.123619
C40   C     C_R   0.775281 0.291144 0.940909 -0.123542
C41   C     C_R   0.933522 0.545343 0.395089 0.551485
C42   C     C_R   0.066472 0.454655 0.604911 0.551482
Cu1   Cu    Cu3+1 0.500000 0.500000 0.625300 1.006279
Cu2   Cu    Cu3+1 0.500000 0.500000 0.374700 1.006216
H1    H     H_    0.264414 0.749651 0.974369 0.136164
H2    H     H_    0.735205 0.250513 0.025520 0.136223
H3    H     H_    0.516628 0.155956 0.953001 0.133498
H4    H     H_    0.483099 0.843641 0.046821 0.133481
H5    H     H_    0.459077 0.880630 0.301108 0.153778
H6    H     H_    0.541014 0.119370 0.698878 0.153773
H7    H     H_    0.273244 0.860906 0.182407 0.126606
H8    H     H_    0.726806 0.139028 0.817578 0.126595
H9    H     H_    0.066241 0.454983 0.150955 0.116993
H10   H     H_    0.933361 0.545216 0.848936 0.116821
H11   H     H_    0.161246 0.546626 0.959075 0.174954
H12   H     H_    0.838160 0.453667 0.040769 0.174940
H13   H     H_    0.179544 0.264635 0.133591 0.126462
H14   H     H_    0.820618 0.735866 0.866672 0.126504
N1    N     N_1   0.500010 0.499990 0.186410 -0.132415
N2    N     N_1   0.499990 0.500010 0.813590 -0.132380
O1    O     O_R   0.499990 0.319650 0.605810 -0.581274
O2    O     O_R   0.500010 0.680350 0.394190 -0.581305
O3    O     O_R   0.499990 0.319640 0.394190 -0.577280
O4    O     O_R   0.500010 0.680360 0.605810 -0.577259
O5    O     O_R   0.319640 0.500010 0.605810 -0.519067
O6    O     O_R   0.680360 0.499990 0.394190 -0.519084
O7    O     O_R   0.319650 0.500010 0.394190 -0.591283
O8    O     O_R   0.680350 0.499990 0.605810 -0.591245
H15   H     H_    0.589771 0.066000 0.156896 0.132355
H16   H     H_    0.410014 0.933552 0.842879 0.132245
H17   H     H_    0.183838 0.767805 0.377007 0.105081
H18   H     H_    0.816440 0.232024 0.623035 0.105135
F1    F     F_    0.869555 0.594308 0.295021 -0.676341
F2    F     F_    0.130434 0.405707 0.704993 -0.676330
H19   H     H_    0.311979 0.255488 0.940949 0.164634
H20   H     H_    0.687937 0.744590 0.059117 0.164607
H21   H     H_    0.251508 0.176741 0.338726 0.113545
H22   H     H_    0.748708 0.823706 0.661490 0.113645

loop_
_geom_bond_atom_site_label_1
_geom_bond_atom_site_label_2
_ccdc_geom_bond_type
C30   C32   A    
C5    C42   A    
C35   H9    S    
Cu2   O6    S    
C15   H3    S    
C16   H4    S    
C10   H22   S    
C32   H18   S    
C40   H2    S    
C4    C42   A    
C19   C21   A    
C20   C25   A    
Cu2   N1    S    
C15   C17   A    
C23   O7    A    
C19   C26   A    
C20   H6    S    
C8    H14   S    
Cu1   O8    S    
C7    C17   A    
C6    C41   A    
C31   C33   A    
C24   O6    A    
C39   H1    S    
C31   H17   S    
C1    C22   S    
C29   C31   A    
C14   H16   S    
C3    C24   S    
C1    O3    A    
C2    O4    A    
Cu1   O4    S    
C28   N2    T    
Cu2   O3    S    
C42   F2    S    
C4    C6    A    
C4    C23   S    
C11   C26   S    
Cu2   O2    S    
C8    C18   A    
C32   C34   A    
Cu1   Cu2   S    
C19   H5    S    
Cu1   O5    S    
C5    C34   S    
C29   C39   A    
C2    C21   S    
C30   C40   A    
C9    H21   S    
C9    C11   A    
C10   C12   A    
Cu1   N2    S    
C8    C10   A    
C20   C22   A    
C13   C15   A    
C14   C16   A    
Cu1   O1    S    
C29   H7    S    
C7    C9    A    
C21   C25   A    
C3    C41   A    
C18   H20   S    
C35   C37   A    
C12   C14   A    
C3    C5    A    
C1    O1    A    
C6    C33   S    
C12   C25   S    
C23   O5    A    
C36   C38   A    
C37   C39   A    
C27   N1    T    
C38   C40   A    
C11   C13   A    
C13   H15   S    
C33   C35   A    
C34   C36   A    
C36   H10   S    
C24   O8    A    
C41   F1    S    
C37   H11   S    
C38   H12   S    
C16   C18   A    
C22   C26   A    
C27   C28   S    
C17   H19   S    
Cu2   O7    S    
C7    H13   S    
C2    O2    A    
C30   H8    S    
