data_mof_unit_33097.cif
_audit_creation_date              2012-12-10T19:08:04-0500
_audit_creation_method            fapswitch 2.2
_symmetry_space_group_name_H-M    P1
_symmetry_Int_Tables_number       1
_space_group_crystal_system       triclinic
_cell_length_a                    9.065347
_cell_length_b                    10.825205
_cell_length_c                    9.584864
_cell_angle_alpha                 90.320699
_cell_angle_beta                  90.021223
_cell_angle_gamma                 89.462154
_cell_volume                      940.547117649

loop_
_atom_site_label
_atom_site_type_symbol
_atom_type_description
_atom_site_fract_x
_atom_site_fract_y
_atom_site_fract_z
_atom_type_partial_charge
C1    C     C_R   0.504842 0.262455 0.499607 0.828268
C2    C     C_R   0.589463 0.932098 0.388692 0.340863
C3    C     C_R   0.522779 0.870185 0.501532 -0.144270
C4    C     C_R   0.480708 0.937406 0.619284 -0.002986
C5    C     C_3   0.345498 0.929638 0.707906 -0.418487
C6    C     C_3   0.342049 0.070428 0.706600 -0.012783
C7    C     C_R   0.625122 0.528169 0.073715 0.233296
C8    C     C_R   0.373274 0.484166 0.073880 -0.065179
C9    C     C_R   0.373140 0.484882 0.925782 -0.065967
C10   C     C_R   0.625989 0.523940 0.926824 0.166921
C11   C     C_3   0.768897 0.452512 0.923899 -0.147693
C12   C     C_R   0.220817 0.499819 0.499965 0.820744
C13   C     C_3   0.771553 0.464184 0.082610 0.187705
C14   C     C_R   0.504761 0.737365 0.500272 0.847803
C15   C     C_R   0.779181 0.499696 0.500034 0.846799
C16   C     C_1   0.065588 0.499564 0.499975 -0.200985
C17   C     C_1   0.934385 0.499520 0.500038 -0.193910
C18   C     C_R   0.478653 0.063939 0.617964 0.031280
C19   C     C_R   0.521018 0.128969 0.499879 -0.145495
C20   C     C_R   0.588310 0.063577 0.388004 0.018821
Cu1   Cu    Cu3+1 0.499990 0.499980 0.640670 0.937946
Cu2   Cu    Cu3+1 0.500010 0.500020 0.359330 1.009607
H1    H     H_    0.860390 0.501551 0.871001 0.114191
H2    H     H_    0.859476 0.525716 0.123839 0.063632
H3    H     H_    0.251850 0.885140 0.652595 0.194622
H4    H     H_    0.370416 0.891054 0.812619 0.182942
H5    H     H_    0.360442 0.113478 0.810756 0.170764
H6    H     H_    0.270927 0.467166 0.127730 0.133458
H7    H     H_    0.270576 0.468799 0.871648 0.137531
N1    N     N_R   0.500920 0.500930 0.147930 -0.151548
N2    N     N_R   0.500930 0.500890 0.852020 -0.166210
O1    O     O_R   0.500000 0.319640 0.618810 -0.596528
O2    O     O_R   0.500020 0.319680 0.381230 -0.516988
O3    O     O_R   0.288380 0.499980 0.618770 -0.596042
O4    O     O_R   0.288400 0.500020 0.381190 -0.598476
O5    O     O_R   0.499980 0.680320 0.618770 -0.589930
O6    O     O_R   0.500000 0.680360 0.381190 -0.533092
O7    O     O_R   0.711600 0.499980 0.618810 -0.605435
O8    O     O_R   0.711620 0.500020 0.381230 -0.540574
N3    N     N_3   0.652389 0.130765 0.275137 -0.510056
H8    H     H_    0.764424 0.107783 0.268183 0.213891
H9    H     H_    0.598978 0.106790 0.182290 0.237046
O9    O     O_3   0.762234 0.350747 0.151545 -0.644683
H10   H     H_    0.865439 0.321543 0.164010 0.309070
O10   O     O_3   0.651391 0.862009 0.282069 -0.733051
H11   H     H_    0.694747 0.915397 0.210070 0.314085
N4    N     N_3   0.212209 0.120069 0.634003 -0.583330
H12   H     H_    0.221448 0.216166 0.630564 0.221045
H13   H     H_    0.209690 0.087926 0.530816 0.225873
N5    N     N_3   0.750583 0.324417 0.877240 -0.495597
H14   H     H_    0.848722 0.276855 0.899221 0.215700
H15   H     H_    0.741256 0.322868 0.768940 0.255392

loop_
_geom_bond_atom_site_label_1
_geom_bond_atom_site_label_2
_ccdc_geom_bond_type
C7    C10   A    
N5    H15   S    
O9    H10   S    
C15   O7    A    
Cu1   O3    S    
C11   C13   S    
C6    H5    S    
C9    H7    S    
C4    C18   A    
C19   C20   A    
N3    H9    S    
C2    C3    A    
C8    N1    A    
N4    H13   S    
Cu1   O5    S    
Cu1   Cu2   S    
C12   O4    A    
Cu2   O4    S    
Cu1   N2    S    
C15   O8    A    
C16   C17   T    
C3    C14   S    
C8    H6    S    
Cu2   O8    S    
C11   H1    S    
N3    H8    S    
Cu1   O1    S    
N5    H14   S    
C2    O10   S    
C14   O5    A    
C5    C6    S    
C20   N3    S    
C6    C18   S    
C5    H3    S    
C1    C19   S    
C10   C11   S    
C9    N2    A    
C1    O2    A    
C5    H4    S    
N4    H12   S    
C12   C16   S    
C13   O9    S    
C15   C17   S    
C18   C19   A    
C6    N4    S    
C7    N1    A    
Cu2   O2    S    
C11   N5    S    
C8    C9    A    
C7    C13   S    
Cu2   N1    S    
C12   O3    A    
O10   H11   S    
Cu2   O6    S    
C2    C20   A    
C10   N2    A    
C1    O1    A    
Cu1   O7    S    
C3    C4    A    
C13   H2    S    
C4    C5    S    
C14   O6    A    
