data_mof_unit_58179.cif
_audit_creation_date              2012-12-10T17:03:24-0500
_audit_creation_method            fapswitch 2.2
_symmetry_space_group_name_H-M    P1
_symmetry_Int_Tables_number       1
_space_group_crystal_system       triclinic
_cell_length_a                    15.015463
_cell_length_b                    11.045971
_cell_length_c                    9.969393
_cell_angle_alpha                 110.728027
_cell_angle_beta                  98.463432
_cell_angle_gamma                 92.581565
_cell_volume                      1521.19935522

loop_
_atom_site_label
_atom_site_type_symbol
_atom_type_description
_atom_site_fract_x
_atom_site_fract_y
_atom_site_fract_z
_atom_type_partial_charge
C1    C     C_R   0.491300 0.255439 0.441351 0.861915
C2    C     C_R   0.502593 0.745169 0.558114 0.799296
C3    C     C_R   0.015308 0.313356 0.267556 -0.124036
C4    C     C_R   0.982618 0.737893 0.669276 -0.131428
C5    C     C_2   0.466361 0.120027 0.411968 0.443057
C6    C     C_2   0.505606 0.884316 0.583857 0.438498
C7    C     C_2   0.518305 0.050244 0.473385 -0.186210
C8    C     C_2   0.477871 0.924754 0.472061 -0.173534
C9    C     C_2   0.516361 0.497792 0.077197 0.040058
C10   C     C_2   0.501046 0.476495 0.916901 0.039128
C11   C     C_R   0.329334 0.498445 0.500044 0.860507
C12   C     C_R   0.670999 0.503865 0.500229 0.881351
C13   C     C_R   0.828445 0.615409 0.602642 -0.096823
C14   C     C_R   0.172475 0.391185 0.404099 -0.128672
C15   C     C_R   0.768082 0.512017 0.498433 -0.278086
C16   C     C_R   0.232631 0.498746 0.498922 -0.254001
C17   C     C_R   0.799140 0.415089 0.387322 0.653150
C18   C     C_R   0.201054 0.610854 0.587630 0.690250
C19   C     C_R   0.891416 0.414951 0.381663 -0.106759
C20   C     C_R   0.108069 0.617836 0.584263 -0.108814
C21   C     C_R   0.952820 0.518260 0.483944 -0.088933
C22   C     C_R   0.046476 0.513654 0.483715 -0.087949
C23   C     C_R   0.920753 0.625459 0.586885 0.051361
C24   C     C_R   0.078525 0.404322 0.383916 0.061508
C25   C     C_R   0.922847 0.315714 0.271845 0.586822
C26   C     C_R   0.075595 0.730205 0.673379 0.600958
Cu1   Cu    Cu3+1 0.515770 0.521810 0.644910 1.059637
Cu2   Cu    Cu3+1 0.484230 0.478190 0.355090 1.048611
N1    N     N_2   0.460520 0.445420 0.137370 -0.300386
N2    N     N_2   0.539480 0.554580 0.862630 -0.302119
O1    O     O_R   0.508410 0.332340 0.577400 -0.588802
O2    O     O_R   0.491590 0.667660 0.422600 -0.573712
O3    O     O_R   0.481780 0.295500 0.332650 -0.575198
O4    O     O_R   0.518220 0.704500 0.667350 -0.567815
O5    O     O_R   0.383570 0.518390 0.622380 -0.485718
O6    O     O_R   0.616430 0.481610 0.377620 -0.532911
O7    O     O_R   0.356940 0.481550 0.377630 -0.617835
O8    O     O_R   0.643060 0.518450 0.622370 -0.608646
C27   C     C_2   0.795297 0.704120 0.732143 0.490822
H1    H     H_    0.731005 0.743495 0.719467 0.078603
O9    O     O_2   0.838434 0.730395 0.854488 -0.520540
C28   C     C_2   0.208307 0.262497 0.346271 0.544645
H2    H     H_    0.274430 0.255546 0.314565 0.102758
O10   O     O_2   0.165607 0.163278 0.339884 -0.465545
F1    F     F_    0.738921 0.316311 0.289949 -0.572046
F2    F     F_    0.261972 0.712577 0.677046 -0.559875
F3    F     F_    0.863326 0.223905 0.163544 -0.591293
F4    F     F_    0.134102 0.836182 0.759335 -0.577253
C29   C     C_2   0.041113 0.224963 0.130859 0.527883
H3    H     H_    0.001161 0.132296 0.068937 0.127105
O11   O     O_2   0.104014 0.257842 0.081958 -0.525271
C30   C     C_2   0.954053 0.869679 0.737095 0.538936
H4    H     H_    0.994411 0.938951 0.836298 0.126446
O12   O     O_2   0.888476 0.904740 0.678024 -0.528624
C31   C     C_2   0.409356 0.843218 0.342369 0.615383
H5    H     H_    0.414121 0.845018 0.235582 0.165831
O13   O     O_2   0.345189 0.778844 0.355578 -0.484423
C32   C     C_2   0.617476 0.089271 0.532206 0.445789
H6    H     H_    0.656764 0.029227 0.578743 0.159773
O14   O     O_2   0.657531 0.184321 0.523832 -0.518124
F5    F     F_    0.550115 0.969689 0.714719 -0.654687
F6    F     F_    0.379150 0.076202 0.345091 -0.658075
C33   C     C_2   0.454425 0.347763 0.820590 0.473539
H7    H     H_    0.481831 0.260324 0.826992 0.079089
O15   O     O_2   0.382069 0.338103 0.741746 -0.472413
C34   C     C_2   0.607394 0.559284 0.157271 0.477315
H8    H     H_    0.666694 0.515810 0.119010 0.061009
O16   O     O_2   0.617192 0.663344 0.259141 -0.528220
C35   C     C_2   0.567098 0.688011 0.950347 0.656693
H9    H     H_    0.624277 0.737725 0.929201 0.070268
O17   O     O_2   0.523476 0.749985 0.041119 -0.531202
C36   C     C_2   0.366622 0.415419 0.075134 0.653454
H10   H     H_    0.328107 0.336232 0.088425 0.071822
O18   O     O_2   0.327257 0.483209 0.016825 -0.477290

loop_
_geom_bond_atom_site_label_1
_geom_bond_atom_site_label_2
_ccdc_geom_bond_type
Cu2   O3    S    
C34   O16   D    
C31   H5    S    
C33   O15   D    
C15   C17   A    
C14   C16   A    
C26   F4    S    
C12   O6    A    
C36   O18   D    
C11   C16   S    
C10   N2    D    
C7    C32   S    
C4    C26   A    
C10   C33   S    
C12   C15   S    
C9    N1    D    
C14   C28   S    
N1    C36   S    
Cu1   O5    S    
C2    O4    A    
Cu1   Cu2   S    
C11   O5    A    
C34   H8    S    
C3    C29   S    
C1    O3    A    
C7    C8    S    
C27   O9    D    
C16   C18   A    
Cu1   O4    S    
C21   C22   A    
Cu1   N2    S    
Cu2   O2    S    
C13   C23   A    
C3    C24   A    
C2    C6    S    
C28   O10   D    
Cu2   O7    S    
C4    C30   S    
C3    C25   A    
C1    C5    S    
C18   F2    S    
C6    F5    S    
C2    O2    A    
Cu2   N1    S    
C19   C21   A    
C30   O12   D    
C5    F6    S    
C18   C20   A    
C31   O13   D    
C13   C15   A    
C12   O8    A    
C35   H9    S    
C19   C25   A    
C22   C24   A    
C13   C27   S    
C35   O17   D    
C28   H2    S    
Cu1   O8    S    
Cu1   O1    S    
C33   H7    S    
C1    O1    A    
N2    C35   S    
C30   H4    S    
C8    C31   S    
C11   O7    A    
C29   H3    S    
C9    C10   S    
C29   O11   D    
C14   C24   A    
C27   H1    S    
C5    C7    D    
C4    C23   A    
C25   F3    S    
C9    C34   S    
Cu2   O6    S    
C6    C8    D    
C17   C19   A    
C32   H6    S    
C32   O14   D    
C21   C23   A    
C17   F1    S    
C20   C22   A    
C36   H10   S    
C20   C26   A    
