data_mof_unit_30467.cif
_audit_creation_date              2012-12-10T17:11:00-0500
_audit_creation_method            fapswitch 2.2
_symmetry_space_group_name_H-M    P1
_symmetry_Int_Tables_number       1
_space_group_crystal_system       triclinic
_cell_length_a                    18.277321
_cell_length_b                    18.25745
_cell_length_c                    18.25886
_cell_angle_alpha                 89.862101
_cell_angle_beta                  120.037595
_cell_angle_gamma                 119.794845
_cell_volume                      4324.34007395

loop_
_atom_site_label
_atom_site_type_symbol
_atom_type_description
_atom_site_fract_x
_atom_site_fract_y
_atom_site_fract_z
_atom_type_partial_charge
C1    C     C_R   0.000485 0.860464 0.640202 0.792915
C2    C     C_R   0.168439 0.340173 0.232031 -0.213393
C3    C     C_R   0.086912 0.297014 0.242369 0.004713
C4    C     C_R   0.000179 0.139832 0.360091 0.784270
C5    C     C_R   0.088472 0.243818 0.298718 0.076171
C6    C     C_R   0.003355 0.195907 0.304075 -0.051300
C7    C     C_R   0.918451 0.200070 0.254349 -0.266713
C8    C     C_R   0.917540 0.254038 0.200532 0.087709
C9    C     C_R   0.002188 0.303539 0.195616 -0.044083
C10   C     C_R   0.592526 0.825159 0.433438 -0.148258
C11   C     C_R   0.542703 0.784876 0.474426 0.110401
C12   C     C_3   0.059537 0.300775 0.700207 0.016484
C13   C     C_R   0.452627 0.698516 0.428742 -0.206856
C14   C     C_R   0.406169 0.656435 0.339164 0.124246
C15   C     C_R   0.447864 0.704714 0.292986 0.062586
C16   C     C_R   0.279795 0.139802 0.640190 0.792606
C17   C     C_R   0.550493 0.780959 0.344849 0.018726
C18   C     C_R   0.606273 0.809237 0.305587 -0.078334
C19   C     C_R   0.552798 0.776211 0.212593 -0.210355
C20   C     C_R   0.446548 0.717104 0.159255 -0.211909
C21   C     C_R   0.392540 0.682308 0.198204 -0.096884
C22   C     C_R   0.819267 0.680086 0.569494 -0.187627
C23   C     C_3   0.997118 0.200385 0.694870 0.096219
C24   C     C_R   0.730815 0.593702 0.535730 0.243305
C25   C     C_R   0.729803 0.540369 0.590716 -0.185715
C26   C     C_R   0.816466 0.572522 0.678102 -0.210598
C27   C     C_R   0.906244 0.659691 0.713104 0.050383
C28   C     C_R   0.719486 0.863155 0.360225 0.785726
C29   C     C_R   0.907021 0.714277 0.658201 0.054848
C30   C     C_R   0.997119 0.800734 0.692295 -0.066921
C31   C     C_R   0.086280 0.831231 0.777166 -0.266096
C32   C     C_R   0.086705 0.777885 0.831504 0.086516
C33   C     C_R   0.996578 0.692871 0.800385 -0.066447
C34   C     C_3   0.002083 0.301462 0.802607 0.133951
C35   C     C_R   0.167582 0.820369 0.429643 0.119775
C36   C     C_R   0.211132 0.773235 0.468089 0.018395
C37   C     C_R   0.158958 0.682714 0.421888 0.075967
C38   C     C_R   0.070022 0.643190 0.333364 0.172072
C39   C     C_R   0.040088 0.697906 0.290301 -0.037598
C40   C     C_R   0.005050 0.863203 0.359452 0.820733
C41   C     C_R   0.072951 0.777356 0.343439 0.023365
C42   C     C_R   0.010906 0.810692 0.305035 -0.049806
C43   C     C_R   0.940364 0.781149 0.212018 -0.226862
C44   C     C_R   0.931306 0.720234 0.158000 -0.202337
C45   C     C_3   0.055239 0.254353 0.857555 0.256633
C46   C     C_R   0.983491 0.680257 0.196531 -0.074145
C47   C     C_R   0.392831 0.241270 0.825300 -0.154325
C48   C     C_R   0.446954 0.290697 0.914251 -0.149754
C49   C     C_R   0.554124 0.344619 0.967327 -0.139819
C50   C     C_R   0.607795 0.349459 0.931760 -0.144911
C51   C     C_R   0.554597 0.300496 0.841341 0.058133
C52   C     C_R   0.997205 0.141460 0.638254 0.762320
C53   C     C_R   0.445589 0.245640 0.787462 0.072029
C54   C     C_R   0.391974 0.195935 0.697492 -0.143937
C55   C     C_R   0.445401 0.200677 0.660803 0.052653
C56   C     C_3   0.061049 0.359044 0.763088 -0.447759
C57   C     C_R   0.553371 0.252187 0.714603 0.154299
C58   C     C_R   0.607780 0.303647 0.804360 -0.147457
C59   C     C_R   0.280064 0.634985 0.140377 0.796524
C60   C     C_R   0.720124 0.360149 0.859435 0.804231
C61   C     C_R   0.999832 0.360131 0.139816 0.815084
C62   C     C_R   0.999179 0.639226 0.859239 0.828261
C63   C     C_R   0.994333 0.635311 0.140780 0.795014
C64   C     C_3   0.885674 0.168549 0.658919 -0.465349
C65   C     C_R   0.001010 0.358866 0.859622 0.848531
C66   C     C_3   0.887648 0.227943 0.721624 -0.091868
C67   C     C_R   0.173589 0.238041 0.346241 -0.248158
C68   C     C_3   0.049123 0.194030 0.790621 -0.537512
C69   C     C_3   0.172214 0.320988 0.937558 -0.398242
C70   C     C_3   0.195175 0.379719 0.016453 -0.865579
C71   C     C_3   0.639536 0.557833 0.439896 -0.469427
C72   C     C_3   0.588012 0.606606 0.425091 -0.814708
C73   C     C_3   0.001534 0.542042 0.290451 -0.308416
C74   C     C_3   0.949997 0.495748 0.337133 -0.906226
C75   C     C_3   0.608858 0.254611 0.673323 -0.370110
C76   C     C_3   0.623304 0.325558 0.627718 -0.895561
C77   C     C_3   0.019685 0.316294 0.607539 -0.378812
C78   C     C_R   0.255018 0.282800 0.336742 0.110192
C79   C     C_3   0.100973 0.405989 0.612799 -0.875605
C80   C     C_R   0.251574 0.333142 0.278429 0.181496
H1    H     H_    0.841043 0.098021 0.656003 0.185591
H2    H     H_    0.419780 0.663192 0.463509 0.141389
H3    H     H_    0.406675 0.698747 0.087212 0.174332
H4    H     H_    0.155465 0.897471 0.801931 0.144851
H5    H     H_    0.819354 0.719170 0.524851 0.138479
H6    H     H_    0.662131 0.473236 0.565335 0.145218
H7    H     H_    0.813201 0.528042 0.717267 0.144712
H8    H     H_    0.893981 0.806814 0.180643 0.176452
H9    H     H_    0.884141 0.705137 0.086147 0.176924
H10   H     H_    0.309545 0.199505 0.786876 0.123695
H11   H     H_    0.405529 0.286800 0.942209 0.125794
H12   H     H_    0.142059 0.413602 0.816767 0.170690
H13   H     H_    0.845259 0.184046 0.748109 0.169669
H14   H     H_    0.595935 0.382524 0.036547 0.131956
H15   H     H_    0.691098 0.391341 0.976101 0.126351
H16   H     H_    0.006416 0.123016 0.787171 0.185191
H17   H     H_    0.140601 0.323010 0.731388 0.169798
H18   H     H_    0.026795 0.394827 0.727709 0.196334
H19   H     H_    0.203593 0.442162 0.004943 0.261320
H20   H     H_    0.134923 0.344015 0.029076 0.260673
H21   H     H_    0.269929 0.399773 0.078158 0.245007
H22   H     H_    0.202806 0.280604 0.965589 0.198462
H23   H     H_    0.127181 0.212491 0.814226 0.145955
H24   H     H_    0.219552 0.363920 0.914519 0.190530
H25   H     H_    0.374745 0.301126 0.453962 0.186657
H26   H     H_    0.313165 0.209143 0.369651 0.183929
H27   H     H_    0.337856 0.329819 0.242066 0.190151
H28   H     H_    0.401022 0.421481 0.327546 0.208287
H29   H     H_    0.820209 0.279834 0.196121 0.171689
H30   H     H_    0.765246 0.194656 0.108155 0.194481
H31   H     H_    0.602112 0.790794 0.603470 0.190511
H32   H     H_    0.533157 0.834955 0.565045 0.174586
H33   H     H_    0.263869 0.548015 0.295227 0.237727
H34   H     H_    0.853147 0.162183 0.258405 0.138122
H35   H     H_    0.313663 0.533837 0.242573 0.179859
H36   H     H_    0.557667 0.596084 0.466620 0.268213
H37   H     H_    0.643256 0.679332 0.442368 0.265340
H38   H     H_    0.523065 0.580227 0.353487 0.254227
H39   H     H_    0.665495 0.565756 0.395084 0.205428
H40   H     H_    0.581661 0.485318 0.420765 0.203564
H41   H     H_    0.752908 0.215316 0.629942 0.185623
H42   H     H_    0.853683 0.295892 0.631891 0.186929
H43   H     H_    0.198677 0.870094 0.955058 0.176940
H44   H     H_    0.237637 0.826185 0.912994 0.192085
H45   H     H_    0.177356 0.198142 0.390229 0.136203
H46   H     H_    0.247781 0.926790 0.537275 0.232450
H47   H     H_    0.295285 0.944245 0.475051 0.178654
H48   H     H_    0.297001 0.784523 0.598531 0.188646
H49   H     H_    0.360668 0.815770 0.549036 0.179022
H50   H     H_    0.271878 0.661814 0.478414 0.176960
H51   H     H_    0.201701 0.631208 0.521762 0.181471
H52   H     H_    0.896686 0.422621 0.301607 0.243238
H53   H     H_    0.007745 0.507629 0.407565 0.273072
H54   H     H_    0.904885 0.520421 0.335949 0.258213
H55   H     H_    0.938101 0.520354 0.219227 0.177513
H56   H     H_    0.167629 0.378613 0.186794 0.133959
H57   H     H_    0.047743 0.518069 0.293149 0.243153
H58   H     H_    0.342524 0.087373 0.554044 0.197224
H59   H     H_    0.344781 0.177816 0.529719 0.168838
H60   H     H_    0.663102 0.390956 0.675885 0.256126
H61   H     H_    0.670583 0.331298 0.603888 0.246884
H62   H     H_    0.547532 0.307630 0.569457 0.272176
H63   H     H_    0.685024 0.267849 0.723496 0.213612
H64   H     H_    0.564812 0.188545 0.623649 0.216967
H65   H     H_    0.928960 0.140240 0.844629 0.166082
H66   H     H_    0.041434 0.175259 0.938382 0.188844
H67   H     H_    0.592817 0.797751 0.180553 0.173512
H68   H     H_    0.123167 0.462070 0.661425 0.255858
H69   H     H_    0.170589 0.408127 0.633381 0.267021
H70   H     H_    0.069388 0.414770 0.545967 0.251672
H71   H     H_    0.997390 0.263688 0.555321 0.224626
H72   H     H_    0.949268 0.314236 0.581983 0.194130
H73   H     H_    0.845128 0.169068 0.589092 0.159571
H74   H     H_    0.661974 0.892129 0.470863 0.178672
N1    N     N_3   0.341022 0.276661 0.385690 -0.489453
N2    N     N_3   0.197654 0.631388 0.462610 -0.464061
N3    N     N_3   0.390500 0.155706 0.567417 -0.469035
N4    N     N_3   0.999874 0.198153 0.894699 -0.438159
N5    N     N_3   0.332041 0.377657 0.265286 -0.481663
N6    N     N_3   0.830615 0.259021 0.150914 -0.465147
N7    N     N_3   0.587648 0.830267 0.564531 -0.466318
N8    N     N_3   0.330679 0.561474 0.303543 -0.456996
N9    N     N_3   0.831448 0.266869 0.672625 -0.479664
N10   N     N_3   0.178322 0.810823 0.919445 -0.451546
N11   N     N_3   0.227394 0.914869 0.471688 -0.440781
N12   N     N_3   0.307617 0.818108 0.554611 -0.477231
O1    O     O_3   0.000000 0.000000 0.500000 -0.476864
O2    O     O_R   0.939290 0.616110 0.884440 -0.644729
O3    O     O_R   0.060700 0.616880 0.177520 -0.648604
O4    O     O_R   0.939250 0.884470 0.616070 -0.638271
O5    O     O_R   0.060740 0.443890 0.883140 -0.667971
O6    O     O_R   0.939270 0.616890 0.056080 -0.644298
O7    O     O_R   0.939290 0.322450 0.883140 -0.636106
O8    O     O_R   0.939260 0.323230 0.054780 -0.622434
O9    O     O_R   0.060750 0.615550 0.883900 -0.624131
O10   O     O_R   0.231610 0.616100 0.176760 -0.651336
O11   O     O_R   0.768390 0.445230 0.884440 -0.643272
O12   O     O_R   0.231620 0.176800 0.616070 -0.637749
O13   O     O_R   0.060740 0.176800 0.445190 -0.641528
O14   O     O_R   0.231610 0.054800 0.615530 -0.652804
O15   O     O_R   0.768390 0.883920 0.323210 -0.640327
O16   O     O_R   0.060730 0.883140 0.443890 -0.636081
O17   O     O_R   0.939260 0.056140 0.616830 -0.643781
O18   O     O_R   0.939300 0.883140 0.322450 -0.650035
O19   O     O_R   0.060710 0.177580 0.616830 -0.656365
O20   O     O_R   0.768380 0.884480 0.445190 -0.659587
O21   O     O_R   0.060710 0.883920 0.615530 -0.638345
O22   O     O_R   0.939300 0.054810 0.323210 -0.639319
O23   O     O_3   0.000000 0.500030 0.999970 -0.479939
O24   O     O_R   0.231620 0.615550 0.054780 -0.643792
O25   O     O_R   0.768380 0.323230 0.883900 -0.645237
O26   O     O_R   0.060700 0.445220 0.176760 -0.684645
Zn1   Zn    Zn3+2 0.086760 0.130530 0.543760 0.946955
Zn2   Zn    Zn3+2 0.086760 0.956230 0.542990 0.954057
Zn3   Zn    Zn3+2 0.913250 0.956230 0.369490 0.958361
Zn4   Zn    Zn3+2 0.913230 0.957020 0.543760 0.949385
Zn5   Zn    Zn3+2 0.913240 0.369500 0.956210 0.966098
Zn6   Zn    Zn3+2 0.086750 0.543800 0.130490 0.934246
Zn7   Zn    Zn3+2 0.913240 0.543800 0.956980 0.968886
Zn8   Zn    Zn3+2 0.086770 0.543010 0.956210 0.959821

loop_
_geom_bond_atom_site_label_1
_geom_bond_atom_site_label_2
_ccdc_geom_bond_type
O23   Zn6   S    
C62   O2    A    
C55   N3    S    
C34   C56   S    
H65   N4    S    
O2    Zn7   S    
C74   H52   S    
C27   C29   A    
O1    Zn4   S    
C35   C36   A    
H31   N7    S    
C68   H23   S    
C56   H18   S    
C28   O15   A    
H46   N11   S    
C10   H74   S    
H51   N2    S    
C50   H15   S    
C23   C52   S    
C70   H21   S    
O24   Zn8   S    
C7    C8    A    
C39   C41   A    
H28   N5    S    
C53   C54   A    
C27   C33   A    
H32   N7    S    
C12   C23   S    
C26   C27   A    
C29   C30   A    
C71   H40   S    
C65   O5    A    
C9    C61   S    
C43   H8    S    
C7    H34   S    
O20   Zn4   S    
C36   C37   A    
C22   C29   A    
C21   C59   S    
C67   H45   S    
C30   C31   A    
C78   C80   A    
C78   N1    S    
C63   O3    A    
C10   C17   A    
C58   C60   S    
H41   N9    S    
C74   H53   S    
C74   H54   S    
C1    O4    A    
C11   N7    S    
C77   H72   S    
O6    Zn7   S    
C18   C19   A    
C41   C42   A    
C22   H5    S    
C1    C30   S    
C16   O12   A    
H33   N8    S    
C73   H55   S    
O22   Zn3   S    
C44   C46   A    
C8    C9    A    
C48   H11   S    
C72   H37   S    
C61   O26   A    
C52   O17   A    
O16   Zn2   S    
O26   Zn6   S    
C49   H14   S    
C5    C67   A    
C47   C53   A    
C76   H61   S    
O23   Zn7   S    
C40   C42   S    
C13   C14   A    
O14   Zn2   S    
H48   N12   S    
O1    Zn1   S    
C37   N2    S    
C77   H71   S    
C67   C78   A    
C35   C41   A    
C34   C65   S    
C34   C66   S    
C70   H20   S    
O17   Zn4   S    
C40   O16   A    
C1    O21   A    
C73   C74   S    
C64   H1    S    
O12   Zn1   S    
C61   O8    A    
C45   C69   S    
C18   C28   S    
C24   C25   A    
C4    C6    S    
C59   O10   A    
C10   C11   A    
O10   Zn6   S    
C51   C58   A    
C63   O6    A    
C26   H7    S    
C80   N5    S    
C50   C51   A    
C25   C26   A    
C69   H22   S    
C33   C62   S    
C13   H2    S    
C2    H56   S    
C31   H4    S    
C51   C53   A    
C64   C66   S    
C23   C68   S    
C14   N8    S    
C79   H70   S    
C75   C76   S    
C37   C38   A    
C3    C9    A    
C28   O20   A    
C47   C48   A    
O7    Zn5   S    
C15   C21   A    
H47   N11   S    
C12   C77   S    
C45   C68   S    
C36   N12   S    
C17   C18   A    
C77   C79   S    
C16   C54   S    
C34   C45   S    
C68   H16   S    
C12   H17   S    
C12   C56   S    
C75   H63   S    
C64   H73   S    
C66   H13   S    
H49   N12   S    
O23   Zn8   S    
C23   C64   S    
H25   N1    S    
C49   C50   A    
C39   C46   A    
C43   C44   A    
O11   Zn7   S    
O1    Zn2   S    
C22   C24   A    
O5    Zn8   S    
C42   C43   A    
C76   H60   S    
C8    N6    S    
H30   N6    S    
C70   H19   S    
O13   Zn1   S    
C69   H24   S    
O23   Zn5   S    
C15   C17   A    
C54   C55   A    
C48   C49   A    
O8    Zn5   S    
C65   O7    A    
O1    Zn3   S    
C31   C32   A    
C45   N4    S    
O25   Zn5   S    
O19   Zn1   S    
C3    C5    A    
H27   N5    S    
C6    C7    A    
H66   N4    S    
C71   H39   S    
O18   Zn3   S    
C72   H36   S    
C79   H69   S    
C46   C63   S    
C32   C33   A    
C4    O22   A    
C19   C20   A    
C55   C57   A    
C2    C3    A    
C60   O11   A    
C71   C72   S    
O21   Zn2   S    
O4    Zn4   S    
H43   N10   S    
C11   C13   A    
H58   N3    S    
C57   C75   S    
C57   C58   A    
C38   C39   A    
C73   H57   S    
H35   N8    S    
C60   O25   A    
C62   O9    A    
C32   N10   S    
C25   H6    S    
C35   N11   S    
C66   N9    S    
C79   H68   S    
C47   H10   S    
C69   C70   S    
O15   Zn3   S    
C19   H67   S    
O9    Zn8   S    
C2    C80   A    
C75   H64   S    
H42   N9    S    
C56   H12   S    
C20   C21   A    
H59   N3    S    
H26   N1    S    
C52   O19   A    
C20   H3    S    
C72   H38   S    
C5    C6    A    
C14   C15   A    
C59   O24   A    
H50   N2    S    
C4    O13   A    
C40   O18   A    
H29   N6    S    
C44   H9    S    
C16   O14   A    
C24   C71   S    
O3    Zn6   S    
H44   N10   S    
C38   C73   S    
C76   H62   S    
