data_mof_unit_35343.cif
_audit_creation_date              2012-12-10T16:48:08-0500
_audit_creation_method            fapswitch 2.2
_symmetry_space_group_name_H-M    P1
_symmetry_Int_Tables_number       1
_space_group_crystal_system       triclinic
_cell_length_a                    15.817228
_cell_length_b                    8.724214
_cell_length_c                    7.537279
_cell_angle_alpha                 102.820236
_cell_angle_beta                  95.499563
_cell_angle_gamma                 93.342929
_cell_volume                      1006.09542072

loop_
_atom_site_label
_atom_site_type_symbol
_atom_type_description
_atom_site_fract_x
_atom_site_fract_y
_atom_site_fract_z
_atom_type_partial_charge
C1    C     C_R   0.496407 0.200453 0.454524 0.853138
C2    C     C_R   0.503593 0.799547 0.545475 0.853138
C3    C     C_R   0.340076 0.499475 0.500062 0.809188
C4    C     C_R   0.659923 0.500525 0.499938 0.809188
C5    C     C_2   0.482673 0.034063 0.434469 -0.001421
C6    C     C_2   0.517327 0.965937 0.565531 -0.001420
C7    C     C_3   0.973166 0.394532 0.593244 -0.191663
C8    C     C_3   0.026834 0.605468 0.406756 -0.191663
C9    C     C_3   0.019469 0.354669 0.418156 -0.230379
C10   C     C_3   0.980531 0.645331 0.581843 -0.230379
C11   C     C_1   0.250316 0.499539 0.499746 -0.053699
C12   C     C_1   0.749684 0.500461 0.500254 -0.053699
C13   C     C_3   0.037713 0.539192 0.671036 0.352143
C14   C     C_3   0.962287 0.460808 0.328964 0.352143
C15   C     C_3   0.082857 0.499722 0.497765 0.040087
C16   C     C_3   0.917142 0.500278 0.502235 0.040087
C17   C     C_1   0.174607 0.499557 0.498308 0.073922
C18   C     C_1   0.825393 0.500443 0.501691 0.073922
Cu1   Cu    Cu3+1 0.509330 0.517380 0.684380 1.046502
Cu2   Cu    Cu3+1 0.490670 0.482620 0.315620 1.046504
H1    H     H_    0.036524 0.236034 0.349714 0.189536
H2    H     H_    0.963476 0.763966 0.650286 0.189536
H3    H     H_    0.950185 0.308637 0.670191 0.209444
H4    H     H_    0.049815 0.691363 0.329809 0.209444
N1    N     N_2   0.476600 0.456420 0.038510 -0.207441
N2    N     N_2   0.523400 0.543580 0.961490 -0.207442
O1    O     O_R   0.506070 0.286130 0.619780 -0.600564
O2    O     O_R   0.493930 0.713870 0.380220 -0.600564
O3    O     O_R   0.490300 0.256770 0.308360 -0.557852
O4    O     O_R   0.509700 0.743230 0.691640 -0.557854
O5    O     O_R   0.386960 0.514660 0.655680 -0.603266
O6    O     O_R   0.613040 0.485340 0.344320 -0.603263
O7    O     O_R   0.371190 0.485310 0.344260 -0.526824
O8    O     O_R   0.628810 0.514690 0.655740 -0.526826
Br1   Br    Br    0.904790 0.403034 0.081990 -0.430519
Br2   Br    Br    0.095210 0.596966 0.918010 -0.430519
Br3   Br    Br    0.399712 0.929094 0.230758 -0.436140
Br4   Br    Br    0.600287 0.070906 0.769242 -0.436139
C19   C     C_2   0.402230 0.371511 0.935486 0.763275
H5    H     H_    0.406225 0.271077 0.824389 0.024086
O9    O     O_2   0.332064 0.406829 0.976816 -0.521554
C20   C     C_2   0.597769 0.628490 0.064514 0.763277
H6    H     H_    0.593774 0.728927 0.175607 0.024085
O10   O     O_2   0.667936 0.593170 0.023188 -0.521554

loop_
_geom_bond_atom_site_label_1
_geom_bond_atom_site_label_2
_ccdc_geom_bond_type
C2    O2    A    
C9    C14   S    
C6    Br4   S    
C15   C17   S    
C5    Br3   S    
C4    C12   S    
Cu1   O1    S    
Cu1   Cu2   S    
C7    C13   S    
C2    O4    A    
Cu1   O5    S    
C1    O3    A    
C9    C15   S    
C19   O9    D    
C10   C16   S    
N1    C19   S    
C3    O5    A    
Cu1   O8    S    
C9    H1    S    
C4    O6    A    
C20   O10   D    
C7    H3    S    
Cu2   O7    S    
C8    C10   S    
C7    C16   S    
C8    H4    S    
C8    C15   S    
C4    O8    A    
Cu2   O3    S    
C13   C15   S    
Cu2   O6    S    
C5    C6    D    
C14   C16   S    
C3    C11   S    
Cu2   N1    S    
C3    O7    A    
C7    C9    S    
C1    C5    S    
N2    C20   S    
C13   Br2   S    
C16   C18   S    
C20   H6    S    
C12   C18   T    
C19   H5    S    
C1    O1    A    
Cu1   N2    S    
C11   C17   T    
C8    C14   S    
Cu2   O2    S    
N1    N2    D    
Cu1   O4    S    
C14   Br1   S    
C10   H2    S    
C2    C6    S    
C10   C13   S    
