data_mof_unit_25865.cif
_audit_creation_date              2012-12-10T18:57:48-0500
_audit_creation_method            fapswitch 2.2
_symmetry_space_group_name_H-M    P1
_symmetry_Int_Tables_number       1
_space_group_crystal_system       triclinic
_cell_length_a                    10.636754
_cell_length_b                    10.064898
_cell_length_c                    8.8767
_cell_angle_alpha                 90.888436
_cell_angle_beta                  95.431764
_cell_angle_gamma                 90.02112
_cell_volume                      945.937741025

loop_
_atom_site_label
_atom_site_type_symbol
_atom_type_description
_atom_site_fract_x
_atom_site_fract_y
_atom_site_fract_z
_atom_type_partial_charge
C1    C     C_R   0.260746 0.499051 0.513378 0.890352
C2    C     C_R   0.737229 0.500624 0.480080 0.895601
C3    C     C_R   0.499780 0.499390 0.219345 0.905906
C4    C     C_R   0.501203 0.500651 0.780738 0.926075
C5    C     C_1   0.500914 0.499350 0.065695 -0.221139
C6    C     C_1   0.501217 0.501030 0.934528 -0.208994
C7    C     C_R   0.057951 0.374635 0.491645 0.149410
C8    C     C_R   0.937285 0.623019 0.477559 0.160293
C9    C     C_R   0.931788 0.382623 0.434689 0.139247
C10   C     C_R   0.060978 0.615189 0.541226 0.149488
C11   C     C_R   0.868852 0.503791 0.449566 -0.167804
C12   C     C_R   0.125676 0.494563 0.527435 -0.160002
C13   C     C_R   0.579165 0.073510 0.605477 0.102111
C14   C     C_R   0.415718 0.928628 0.402811 0.118628
C15   C     C_R   0.425137 0.070739 0.392927 0.102488
C16   C     C_R   0.577383 0.929151 0.606124 0.112500
N1    N     N_R   0.500000 0.857200 0.500000 -0.134865
N2    N     N_R   0.500000 0.142800 0.500000 -0.140451
O1    O     O_R   0.316770 0.614620 0.499990 -0.628171
O2    O     O_R   0.683230 0.385380 0.500010 -0.628272
O3    O     O_R   0.683230 0.614620 0.500010 -0.636769
O4    O     O_R   0.316770 0.385380 0.499990 -0.627011
O5    O     O_R   0.500010 0.614640 0.285340 -0.629062
O6    O     O_R   0.499990 0.385360 0.714660 -0.647606
O7    O     O_R   0.499990 0.614640 0.714660 -0.630372
O8    O     O_R   0.500010 0.385360 0.285340 -0.626260
Zn1   Zn    Zn3+2 0.500000 0.653120 0.500000 0.895733
Zn2   Zn    Zn3+2 0.500000 0.346880 0.500000 0.891821
C17   C     C_3   0.112743 0.238743 0.529868 -0.854206
H1    H     H_    0.182157 0.244069 0.631447 0.253959
H2    H     H_    0.038896 0.168751 0.559894 0.233885
H3    H     H_    0.156180 0.196120 0.431923 0.232172
C18   C     C_3   0.885101 0.757488 0.429462 -0.855617
H4    H     H_    0.801290 0.748580 0.345543 0.254596
H5    H     H_    0.861881 0.816653 0.529091 0.234234
H6    H     H_    0.956604 0.812620 0.371428 0.221079
C19   C     C_3   0.867617 0.265375 0.349659 -0.843689
H7    H     H_    0.834656 0.192407 0.429420 0.253108
H8    H     H_    0.785841 0.298207 0.271998 0.237865
H9    H     H_    0.934029 0.215633 0.277637 0.227369
C20   C     C_3   0.113195 0.727948 0.643817 -0.900870
H10   H     H_    0.207310 0.705424 0.702204 0.250608
H11   H     H_    0.117341 0.822327 0.582128 0.234118
H12   H     H_    0.048749 0.744221 0.733740 0.234971
C21   C     C_3   0.660667 0.153824 0.727447 -0.358444
C22   C     C_3   0.802557 0.121779 0.760083 -0.423581
C23   C     C_3   0.880391 0.244194 0.815125 -0.885284
H13   H     H_    0.875356 0.321358 0.727093 0.277158
H14   H     H_    0.844668 0.286585 0.919264 0.259667
H15   H     H_    0.980825 0.215574 0.841550 0.253696
H16   H     H_    0.816051 0.051349 0.855027 0.240256
H17   H     H_    0.840948 0.079258 0.657860 0.221052
H18   H     H_    0.661189 0.254596 0.691647 0.296056
H19   H     H_    0.615060 0.158583 0.834211 0.169216
C24   C     C_3   0.292974 0.865318 0.333483 -0.356096
C25   C     C_3   0.299059 0.790012 0.182539 -0.251766
C26   C     C_3   0.190500 0.826923 0.066216 -0.970728
H20   H     H_    0.098349 0.804473 0.109703 0.265736
H21   H     H_    0.194294 0.933707 0.039133 0.274333
H22   H     H_    0.198139 0.767774 0.961330 0.259261
H23   H     H_    0.390129 0.807686 0.134639 0.221937
H24   H     H_    0.289101 0.682121 0.201989 0.233276
H25   H     H_    0.254478 0.803970 0.415678 0.222911
H26   H     H_    0.213320 0.935776 0.327221 0.152699
C27   C     C_3   0.354387 0.141909 0.259703 -0.350274
C28   C     C_3   0.423107 0.129164 0.115653 -0.337524
C29   C     C_3   0.346331 0.191963 0.980708 -0.884700
H27   H     H_    0.255646 0.138512 0.953562 0.246123
H28   H     H_    0.325024 0.297365 0.005839 0.268071
H29   H     H_    0.399905 0.186665 0.879601 0.263319
H30   H     H_    0.517654 0.176711 0.133004 0.240574
H31   H     H_    0.437814 0.023005 0.088332 0.212364
H32   H     H_    0.256695 0.107834 0.231778 0.162870
H33   H     H_    0.337311 0.245798 0.287887 0.253556
C30   C     C_3   0.657069 0.853990 0.727844 -0.337864
C31   C     C_3   0.606567 0.862440 0.884691 -0.361702
C32   C     C_3   0.692565 0.788656 0.002864 -0.898238
H34   H     H_    0.705944 0.684029 0.966559 0.267587
H35   H     H_    0.786305 0.838125 0.020220 0.253383
H36   H     H_    0.649588 0.789500 0.112095 0.260422
H37   H     H_    0.600010 0.965854 0.924965 0.210729
H38   H     H_    0.509874 0.819928 0.878896 0.244629
H39   H     H_    0.663802 0.750137 0.697832 0.268029
H40   H     H_    0.757173 0.880269 0.731373 0.150833

loop_
_geom_bond_atom_site_label_1
_geom_bond_atom_site_label_2
_ccdc_geom_bond_type
C15   N2    A    
C24   C25   S    
C7    C17   S    
C16   C30   S    
C20   H10   S    
C3    O5    A    
C4    O7    A    
C23   H14   S    
C21   C22   S    
C19   H7    S    
C13   N2    A    
C17   H3    S    
C5    C6    T    
C4    O6    A    
C30   H40   S    
C26   H21   S    
C15   C27   S    
C22   H17   S    
C18   H6    S    
C27   H32   S    
C25   C26   S    
C28   H31   S    
C23   H13   S    
C16   N1    A    
C24   H25   S    
O5    Zn1   S    
O1    Zn1   S    
C14   C24   S    
O3    Zn1   S    
C21   H18   S    
C1    O4    A    
O4    Zn2   S    
C10   C20   S    
C20   H11   S    
C14   N1    A    
C1    C12   S    
C2    C11   S    
C23   H15   S    
C32   H35   S    
C7    C12   A    
C19   H8    S    
C1    O1    A    
C2    O2    A    
C29   H27   S    
N1    Zn1   S    
N2    Zn2   S    
C31   C32   S    
C4    C6    S    
C31   H38   S    
C26   H22   S    
O2    Zn2   S    
C32   H34   S    
C22   H16   S    
C27   H33   S    
C29   H28   S    
C30   C31   S    
C17   H1    S    
C28   H30   S    
C24   H26   S    
C2    O3    A    
C9    C19   S    
C18   H4    S    
C9    C11   A    
C10   C12   A    
C21   H19   S    
C20   H12   S    
C25   H24   S    
O7    Zn1   S    
C32   H36   S    
C7    C9    A    
C22   C23   S    
C14   C15   A    
C3    O8    A    
O6    Zn2   S    
C3    C5    S    
C31   H37   S    
C19   H9    S    
O8    Zn2   S    
C29   H29   S    
C17   H2    S    
C13   C21   S    
C30   H39   S    
C26   H20   S    
C8    C11   A    
C18   H5    S    
C28   C29   S    
C8    C18   S    
C8    C10   A    
C27   C28   S    
C13   C16   A    
C25   H23   S    
