data_mof_unit_36445.cif
_audit_creation_date              2012-12-10T17:03:40-0500
_audit_creation_method            fapswitch 2.2
_symmetry_space_group_name_H-M    P1
_symmetry_Int_Tables_number       1
_space_group_crystal_system       triclinic
_cell_length_a                    10.038302
_cell_length_b                    10.742845
_cell_length_c                    13.238742
_cell_angle_alpha                 90.220752
_cell_angle_beta                  72.187201
_cell_angle_gamma                 90.293331
_cell_volume                      1359.20246512

loop_
_atom_site_label
_atom_site_type_symbol
_atom_type_description
_atom_site_fract_x
_atom_site_fract_y
_atom_site_fract_z
_atom_type_partial_charge
C1    C     C_R   0.501357 0.737252 0.497632 0.909276
C2    C     C_R   0.452148 0.562189 0.978348 -0.104399
C3    C     C_R   0.493125 0.567736 0.866590 -0.047521
C4    C     C_R   0.559100 0.545871 0.026685 0.042429
C5    C     C_R   0.694659 0.508430 0.964885 -0.034423
C6    C     C_R   0.736318 0.530212 0.856116 0.504945
C7    C     C_R   0.638371 0.577290 0.811462 -0.233690
C8    C     C_R   0.535544 0.561120 0.134536 -0.282023
C9    C     C_R   0.739680 0.435415 0.124276 0.527832
C10   C     C_R   0.389035 0.554098 0.814216 -0.159393
C11   C     C_2   0.613043 0.067482 0.498245 -0.155256
C12   C     C_R   0.426027 0.516117 0.701869 0.910427
C13   C     C_2   0.494804 0.131156 0.512128 -0.323693
C14   C     C_2   0.610709 0.933583 0.504564 -0.163028
C15   C     C_2   0.505897 0.868718 0.487579 -0.317588
C16   C     C_2   0.090717 0.408318 0.461526 0.551588
C17   C     C_2   0.945202 0.418552 0.449230 -0.280437
C18   C     C_R   0.498904 0.262720 0.502312 0.956733
C19   C     C_R   0.575892 0.498366 0.297582 0.933285
C20   C     C_R   0.783125 0.449053 0.013763 -0.229191
C21   C     C_R   0.620716 0.500463 0.183603 -0.189551
C22   C     C_R   0.248145 0.569791 0.871911 -0.413016
C23   C     C_R   0.207311 0.582629 0.982333 0.490654
C24   C     C_R   0.306166 0.560978 0.035591 0.454851
H1    H     H_    0.697524 0.888384 0.522335 0.169903
H2    H     H_    0.094134 0.580612 0.518542 0.119721
H3    H     H_    0.914940 0.351793 0.398696 0.181303
H4    H     H_    0.877156 0.556766 0.552359 0.165760
H5    H     H_    0.446743 0.613814 0.181983 0.227349
H6    H     H_    0.168956 0.565805 0.831872 0.220503
H7    H     H_    0.678360 0.615152 0.732500 0.186092
N1    N     N_2   0.148270 0.498670 0.498870 -0.212499
N2    N     N_2   0.852610 0.498640 0.498840 -0.215954
O1    O     O_R   0.386950 0.680940 0.500020 -0.627805
O2    O     O_R   0.613110 0.680900 0.499980 -0.621904
O3    O     O_R   0.330780 0.500000 0.653640 -0.614779
O4    O     O_R   0.556930 0.499960 0.653610 -0.635168
O5    O     O_R   0.386890 0.319100 0.500020 -0.559627
O6    O     O_R   0.613050 0.319060 0.499980 -0.615278
O7    O     O_R   0.443070 0.500040 0.346390 -0.590062
O8    O     O_R   0.669220 0.500000 0.346360 -0.586016
Zn1   Zn    Zn3+2 0.349000 0.500030 0.500020 0.993517
Zn2   Zn    Zn3+2 0.651000 0.499970 0.499980 0.939856
O9    O     O_3   0.791513 0.341463 0.172944 -0.628824
C25   C     C_3   0.932614 0.363743 0.163310 -0.224368
H8    H     H_    0.967737 0.290137 0.207759 0.152431
H9    H     H_    0.946164 0.454730 0.199443 0.234057
H10   H     H_    0.999429 0.356933 0.079502 0.172607
H11   H     H_    0.392112 0.088017 0.533863 0.143562
H12   H     H_    0.422582 0.910916 0.463475 0.148593
O10   O     O_3   0.172162 0.304472 0.422526 -0.572562
C26   C     C_3   0.096053 0.193862 0.458016 -0.360121
H13   H     H_    0.029516 0.169868 0.407373 0.155210
H14   H     H_    0.032099 0.198925 0.543164 0.146712
H15   H     H_    0.171600 0.116723 0.450318 0.196384
O11   O     O_3   0.874205 0.515940 0.794997 -0.631937
C27   C     C_3   0.887744 0.398539 0.744820 -0.376070
H16   H     H_    0.821595 0.391256 0.691294 0.186124
H17   H     H_    0.860971 0.321509 0.803631 0.163131
H18   H     H_    0.998388 0.386052 0.696269 0.200568
H19   H     H_    0.878944 0.405859 0.966216 0.181523
O12   O     O_3   0.255840 0.529326 0.141724 -0.605393
C28   C     C_3   0.261981 0.398410 0.150821 -0.271323
H20   H     H_    0.368425 0.367676 0.147667 0.192365
H21   H     H_    0.229329 0.347300 0.088888 0.118072
H22   H     H_    0.190233 0.370490 0.228962 0.213317
O13   O     O_3   0.067763 0.594026 0.041321 -0.613793
C29   C     C_3   0.008680 0.699749 0.008942 -0.306293
H23   H     H_    0.984355 0.681256 0.933880 0.193725
H24   H     H_    0.076938 0.783572 0.001009 0.157201
H25   H     H_    0.908158 0.720703 0.070509 0.193702
H26   H     H_    0.713833 0.113679 0.483112 0.167680

loop_
_geom_bond_atom_site_label_1
_geom_bond_atom_site_label_2
_ccdc_geom_bond_type
H4    N2    S    
C2    C4    A    
C18   O6    A    
C16   O10   S    
H2    N1    S    
C6    C7    A    
C1    C15   S    
C16   N1    D    
O2    Zn2   S    
O11   C27   S    
C9    C20   A    
O3    Zn1   S    
O1    Zn1   S    
C26   H15   S    
C4    C8    A    
C28   H21   S    
O7    Zn1   S    
C2    C3    A    
C18   O5    A    
C28   H22   S    
O10   C26   S    
C5    C20   A    
C25   H8    S    
C10   C22   A    
C4    C5    A    
O8    Zn2   S    
C9    C21   A    
C27   H16   S    
O12   C28   S    
C17   N2    D    
C13   C18   S    
C15   H12   S    
C29   H25   S    
C13   H11   S    
C8    H5    S    
C10   C12   S    
C19   C21   S    
C26   H14   S    
C1    O1    A    
O5    Zn1   S    
C3    C7    A    
C25   H9    S    
C14   H1    S    
C2    C24   A    
C5    C6    A    
C11   C14   S    
O4    Zn2   S    
C27   H17   S    
C12   O3    A    
C19   O7    A    
C23   C24   A    
O13   C29   S    
C17   H3    S    
C19   O8    A    
C11   C13   D    
C8    C21   A    
C7    H7    S    
C26   H13   S    
C1    O2    A    
C29   H24   S    
C12   O4    A    
C25   H10   S    
C23   O13   S    
C20   H19   S    
C3    C10   A    
N1    Zn1   S    
C11   H26   S    
C29   H23   S    
C9    O9    S    
C24   O12   S    
C22   H6    S    
C14   C15   D    
O6    Zn2   S    
C22   C23   A    
O9    C25   S    
C28   H20   S    
C6    O11   S    
C16   C17   S    
C27   H18   S    
N2    Zn2   S    
