data_mof_unit_36385.cif
_audit_creation_date              2012-12-10T17:02:59-0500
_audit_creation_method            fapswitch 2.2
_symmetry_space_group_name_H-M    P1
_symmetry_Int_Tables_number       1
_space_group_crystal_system       triclinic
_cell_length_a                    9.876271
_cell_length_b                    11.048317
_cell_length_c                    13.313301
_cell_angle_alpha                 97.282984
_cell_angle_beta                  79.339274
_cell_angle_gamma                 111.101819
_cell_volume                      1329.01821343

loop_
_atom_site_label
_atom_site_type_symbol
_atom_type_description
_atom_site_fract_x
_atom_site_fract_y
_atom_site_fract_z
_atom_type_partial_charge
C1    C     C_R   0.555670 0.744769 0.508970 0.866489
C2    C     C_R   0.434147 0.485019 0.972453 0.081064
C3    C     C_R   0.465720 0.531859 0.873794 -0.005264
C4    C     C_R   0.545710 0.529951 0.036628 -0.040467
C5    C     C_R   0.675404 0.638626 0.008368 -0.157665
C6    C     C_R   0.683587 0.705260 0.921917 0.425757
C7    C     C_R   0.586395 0.645544 0.852221 -0.221490
C8    C     C_R   0.534210 0.468757 0.127188 0.219441
C9    C     C_R   0.757272 0.635646 0.168227 -0.212808
C10   C     C_R   0.370069 0.469352 0.801013 -0.050297
C11   C     C_2   0.581485 0.882552 0.525931 -0.304281
C12   C     C_R   0.420878 0.487558 0.690974 0.795972
C13   C     C_2   0.482305 0.931013 0.509062 -0.114236
C14   C     C_2   0.413535 0.115734 0.494183 -0.375600
C15   C     C_2   0.499377 0.068124 0.533417 0.296453
C16   C     C_2   0.957790 0.542431 0.477858 0.375426
C17   C     C_2   0.080509 0.518293 0.513865 0.317739
C18   C     C_R   0.442441 0.254932 0.496322 0.822785
C19   C     C_R   0.578869 0.512272 0.308917 0.804775
C20   C     C_R   0.789727 0.676179 0.069098 0.430918
C21   C     C_R   0.627598 0.535446 0.199499 -0.156117
C22   C     C_R   0.234282 0.374356 0.832025 -0.103681
C23   C     C_R   0.192248 0.343963 0.933931 -0.097547
C24   C     C_R   0.290593 0.398531 0.003769 -0.101467
Cu1   Cu    Cu3+1 0.362000 0.479240 0.482530 1.045764
Cu2   Cu    Cu3+1 0.638000 0.520760 0.517470 1.027030
H1    H     H_    0.836378 0.680065 0.219401 0.256147
H2    H     H_    0.386297 0.868460 0.475396 0.195995
H3    H     H_    0.328503 0.051564 0.451141 0.154693
H4    H     H_    0.679893 0.942082 0.557042 0.176570
H5    H     H_    0.124480 0.412524 0.385244 0.211399
H6    H     H_    0.831817 0.512627 0.612429 0.190439
H7    H     H_    0.161580 0.321949 0.777183 0.187119
H8    H     H_    0.250866 0.374304 0.082370 0.192787
H9    H     H_    0.084572 0.274585 0.958326 0.193699
H10   H     H_    0.597608 0.695354 0.784564 0.176807
N1    N     N_2   0.845330 0.551960 0.543750 -0.287235
N2    N     N_2   0.154690 0.448120 0.456210 -0.319472
O1    O     O_R   0.426290 0.668220 0.490680 -0.518380
O2    O     O_R   0.659360 0.703290 0.520190 -0.545895
O3    O     O_R   0.326580 0.473880 0.629020 -0.490396
O4    O     O_R   0.559660 0.508940 0.658530 -0.611431
O5    O     O_R   0.340640 0.296710 0.479810 -0.578032
O6    O     O_R   0.573710 0.331780 0.509320 -0.579106
O7    O     O_R   0.440340 0.491060 0.341470 -0.579519
O8    O     O_R   0.673420 0.526120 0.370980 -0.499529
S1    S     S_3+6 0.111436 0.593695 0.641425 0.058617
O9    O     O_2   0.266129 0.676229 0.652875 -0.224460
O10   O     O_2   0.025216 0.683402 0.675501 -0.257989
O11   O     O_3   0.052206 0.475583 0.723758 -0.528502
H11   H     H_    0.943681 0.446595 0.733034 0.332448
S2    S     S_3+6 0.002633 0.611698 0.359083 0.023664
O12   O     O_2   0.933613 0.511209 0.279003 -0.294720
O13   O     O_2   0.949234 0.724652 0.369718 -0.281950
O14   O     O_3   0.185996 0.665802 0.324280 -0.552306
H12   H     H_    0.202949 0.706717 0.258923 0.387485
S3    S     S_3+6 0.781287 0.874318 0.911247 0.059846
O15   O     O_2   0.800757 0.942373 0.015462 -0.240023
O16   O     O_2   0.929046 0.896963 0.846668 -0.203350
O17   O     O_3   0.685428 0.939332 0.855891 -0.523750
H13   H     H_    0.722418 0.935008 0.781564 0.348734
S4    S     S_3+6 0.978851 0.739349 0.018380 0.083190
O18   O     O_2   0.001691 0.704435 0.905269 -0.192976
O19   O     O_2   0.038343 0.884359 0.038795 -0.219744
O20   O     O_3   0.071238 0.673288 0.075888 -0.516976
H14   H     H_    0.173480 0.704780 0.039797 0.376594
N3    N     N_2   0.443503 0.335844 0.139865 -0.458723
H15   H     H_    0.413237 0.307540 0.213873 0.262478
C25   C     C_3   0.494856 0.243168 0.071743 -0.570998
H16   H     H_    0.414470 0.143515 0.082986 0.250675
H17   H     H_    0.602560 0.247099 0.088536 0.240394
H18   H     H_    0.506200 0.263427 0.990425 0.241384
N4    N     N_2   0.597266 0.144134 0.603312 -0.391006
H19   H     H_    0.561397 0.207259 0.655922 0.262663
C26   C     C_3   0.753091 0.190686 0.564154 -0.617846
H20   H     H_    0.795882 0.297866 0.566951 0.196234
H21   H     H_    0.776581 0.153535 0.483607 0.228750
H22   H     H_    0.812644 0.159677 0.613101 0.226813

loop_
_geom_bond_atom_site_label_1
_geom_bond_atom_site_label_2
_ccdc_geom_bond_type
O14   H12   S    
N4    H19   S    
C14   C18   S    
C1    C11   S    
C4    C8    A    
C9    C21   A    
Cu1   O5    S    
C19   O8    A    
Cu2   O6    S    
S1    O10   D    
C5    C20   A    
C10   C22   A    
C9    H1    S    
S4    O18   D    
C19   C21   S    
C3    C7    A    
C5    C6    A    
S3    O16   D    
C7    H10   S    
C25   H17   S    
C12   O4    A    
C1    O2    A    
C11   H4    S    
C16   C17   S    
S4    O19   D    
C23   C24   A    
C13   H2    S    
S2    O14   S    
C16   N1    D    
N4    C26   S    
C6    S3    S    
S2    O13   D    
C8    C21   A    
S1    O11   S    
N3    H15   S    
C17   S1    S    
Cu1   O3    S    
Cu2   O8    S    
S3    O17   S    
Cu1   Cu2   S    
C24   H8    S    
O17   H13   S    
N3    C25   S    
C25   H18   S    
C2    C4    A    
C26   H20   S    
C12   O3    A    
C18   O6    A    
Cu1   N2    S    
C9    C20   A    
S1    O9    D    
O11   H11   S    
H6    N1    S    
C26   H21   S    
C10   C12   S    
C15   N4    S    
C23   H9    S    
C13   C15   S    
C2    C24   A    
C14   H3    S    
Cu1   O7    S    
S2    O12   D    
Cu2   O4    S    
C22   H7    S    
S4    O20   S    
C14   C15   D    
C16   S2    S    
C4    C5    A    
C19   O7    A    
Cu2   N1    S    
C6    C7    A    
H5    N2    S    
C2    C3    A    
C3    C10   A    
C18   O5    A    
Cu1   O1    S    
C11   C13   D    
Cu2   O2    S    
S3    O15   D    
C17   N2    D    
C20   S4    S    
C25   H16   S    
C26   H22   S    
C1    O1    A    
C8    N3    S    
O20   H14   S    
C22   C23   A    
