data_mof_unit_37795.cif
_audit_creation_date              2012-12-10T17:57:24-0500
_audit_creation_method            fapswitch 2.2
_symmetry_space_group_name_H-M    P1
_symmetry_Int_Tables_number       1
_space_group_crystal_system       triclinic
_cell_length_a                    9.556911
_cell_length_b                    10.832898
_cell_length_c                    13.468302
_cell_angle_alpha                 90.617687
_cell_angle_beta                  72.922539
_cell_angle_gamma                 89.702448
_cell_volume                      1332.75269564

loop_
_atom_site_label
_atom_site_type_symbol
_atom_type_description
_atom_site_fract_x
_atom_site_fract_y
_atom_site_fract_z
_atom_type_partial_charge
C1    C     C_R   0.499768 0.737819 0.500148 0.799550
C2    C     C_R   0.446410 0.439369 0.974657 0.075854
C3    C     C_R   0.491982 0.439350 0.864468 0.093140
C4    C     C_R   0.552912 0.458321 0.028230 0.075277
C5    C     C_R   0.702692 0.468016 0.970986 0.178545
C6    C     C_R   0.746883 0.444277 0.864847 -0.262999
C7    C     C_R   0.643369 0.424229 0.813270 -0.205799
C8    C     C_R   0.515173 0.472748 0.136446 -0.250817
C9    C     C_R   0.768342 0.509115 0.128338 -0.178256
C10   C     C_R   0.384331 0.452291 0.810363 -0.106041
C11   C     C_R   0.627033 0.935549 0.500074 -0.176475
C12   C     C_R   0.423728 0.485232 0.698821 0.797197
C13   C     C_R   0.627321 0.063278 0.499928 -0.183183
C14   C     C_R   0.500302 0.128289 0.499901 -0.015025
C15   C     C_R   0.373001 0.064502 0.499987 -0.177716
C16   C     C_R   0.372718 0.936782 0.500123 -0.182524
C17   C     C_R   0.499730 0.871751 0.500141 -0.025379
C18   C     C_R   0.894241 0.562812 0.574947 -0.113863
C19   C     C_R   0.042680 0.562337 0.575156 -0.060952
C20   C     C_R   0.107430 0.439144 0.424385 -0.011352
C21   C     C_R   0.959995 0.437488 0.424072 0.484408
C22   C     C_R   0.500242 0.262185 0.499854 0.777257
C23   C     C_R   0.577917 0.500120 0.300230 0.806713
C24   C     C_R   0.807634 0.497877 0.020780 -0.210049
C25   C     C_R   0.622111 0.494464 0.186687 -0.048633
C26   C     C_R   0.236603 0.434495 0.864963 -0.202506
C27   C     C_R   0.195358 0.411236 0.970951 -0.145558
C28   C     C_R   0.296940 0.418909 0.026242 -0.171283
Cu1   Cu    Cu3+1 0.359340 0.499980 0.500000 0.939122
Cu2   Cu    Cu3+1 0.640660 0.500020 0.500000 0.940002
H1    H     H_    0.851919 0.529369 0.165621 0.177827
H2    H     H_    0.726809 0.110808 0.499837 0.152666
H3    H     H_    0.273600 0.112987 0.499952 0.153294
H4    H     H_    0.273228 0.889275 0.500199 0.153709
H5    H     H_    0.813613 0.613561 0.634963 0.154853
H6    H     H_    0.073027 0.612469 0.635491 0.138011
H7    H     H_    0.189327 0.389452 0.364333 0.138963
H8    H     H_    0.862094 0.439874 0.821549 0.140907
H9    H     H_    0.919729 0.513404 0.975794 0.132532
H10   H     H_    0.402840 0.468258 0.183380 0.150987
H11   H     H_    0.152979 0.436322 0.825407 0.146975
H12   H     H_    0.255639 0.404201 0.108689 0.141069
H13   H     H_    0.083322 0.389369 0.011816 0.151850
H14   H     H_    0.685896 0.392260 0.734076 0.188396
H15   H     H_    0.726431 0.887063 0.500113 0.154269
N1    N     N_R   0.147940 0.499970 0.499970 -0.192880
N2    N     N_R   0.852060 0.500060 0.499990 -0.207007
O1    O     O_R   0.381250 0.680340 0.500010 -0.579352
O2    O     O_R   0.618820 0.680370 0.500010 -0.580108
O3    O     O_R   0.323240 0.499950 0.650980 -0.581907
O4    O     O_R   0.560810 0.499980 0.650980 -0.596193
O5    O     O_R   0.381180 0.319630 0.499990 -0.585758
O6    O     O_R   0.618750 0.319660 0.499990 -0.620468
O7    O     O_R   0.439190 0.500020 0.349020 -0.592269
O8    O     O_R   0.676760 0.500050 0.349020 -0.574001
O9    O     O_3   0.931438 0.372224 0.344279 -0.772339
H16   H     H_    0.831608 0.340350 0.369122 0.367319

loop_
_geom_bond_atom_site_label_1
_geom_bond_atom_site_label_2
_ccdc_geom_bond_type
C21   O9    S    
C12   O3    A    
Cu2   O4    S    
C6    H8    S    
C9    C24   A    
C23   O8    A    
C6    C7    A    
C20   H7    S    
C18   H5    S    
C13   H2    S    
C1    C17   S    
Cu1   N1    S    
C4    C8    A    
C18   N2    A    
C14   C22   S    
C2    C3    A    
C19   N1    A    
C9    C25   A    
C1    O1    A    
C3    C10   A    
C13   C14   A    
C20   C21   A    
C8    C25   A    
C11   C13   A    
C10   C26   A    
C26   C27   A    
Cu1   Cu2   S    
C5    C24   A    
C10   C12   S    
Cu1   O3    S    
C2    C4    A    
C28   H12   S    
Cu2   O2    S    
C22   O6    A    
C3    C7    A    
C19   H6    S    
C23   C25   S    
C5    C6    A    
Cu2   O6    S    
C11   H15   S    
Cu1   O7    S    
C9    H1    S    
Cu1   O1    S    
C15   C16   A    
C27   H13   S    
Cu2   N2    S    
C4    C5    A    
C12   O4    A    
O9    H16   S    
C23   O7    A    
C22   O5    A    
C18   C19   A    
Cu2   O8    S    
C27   C28   A    
C14   C15   A    
C11   C17   A    
C2    C28   A    
C8    H10   S    
C16   H4    S    
C7    H14   S    
C1    O2    A    
C24   H9    S    
C15   H3    S    
C20   N1    A    
C26   H11   S    
C16   C17   A    
C21   N2    A    
Cu1   O5    S    
