data_mof_unit_65879.cif
_audit_creation_date              2012-12-10T16:58:37-0500
_audit_creation_method            fapswitch 2.2
_symmetry_space_group_name_H-M    P1
_symmetry_Int_Tables_number       1
_space_group_crystal_system       triclinic
_cell_length_a                    13.08097
_cell_length_b                    13.103695
_cell_length_c                    15.550519
_cell_angle_alpha                 108.640549
_cell_angle_beta                  74.72437
_cell_angle_gamma                 90.701984
_cell_volume                      2428.87915952

loop_
_atom_site_label
_atom_site_type_symbol
_atom_type_description
_atom_site_fract_x
_atom_site_fract_y
_atom_site_fract_z
_atom_type_partial_charge
Br1   Br    Br    0.837669 0.552531 0.660828 -0.452440
Br2   Br    Br    0.373602 0.022469 0.385037 -0.446302
Br3   Br    Br    0.470321 0.996639 0.662406 -0.400454
Br4   Br    Br    0.619152 0.206492 0.762821 -0.355810
Br5   Br    Br    0.572373 0.117207 0.936227 -0.447133
Br6   Br    Br    0.102261 0.317660 0.481780 -0.368972
C1    C     C_R   0.217337 0.540178 0.536982 0.892556
C2    C     C_R   0.534534 0.489273 0.110969 -0.263703
C3    C     C_R   0.582417 0.303490 0.090056 0.018873
C4    C     C_R   0.781026 0.459687 0.466494 0.847317
C5    C     C_R   0.443443 0.584106 0.856220 -0.068381
C6    C     C_2   0.894966 0.450438 0.458576 -0.092770
C7    C     C_2   0.930719 0.482870 0.536338 0.224115
C8    C     C_2   0.101351 0.551623 0.554337 -0.370715
C9    C     C_2   0.044369 0.466224 0.527831 0.298780
C10   C     C_2   0.526759 0.896979 0.536318 0.149811
C11   C     C_2   0.547501 0.931343 0.460738 0.080224
C12   C     C_R   0.442402 0.727106 0.002714 0.097115
C13   C     C_2   0.472160 0.099446 0.449970 0.137247
C14   C     C_2   0.541712 0.048566 0.476133 -0.211050
C15   C     C_R   0.472030 0.217473 0.470804 0.810824
C16   C     C_R   0.527302 0.781904 0.526995 0.817795
C17   C     C_R   0.544378 0.441711 0.247708 0.837723
C18   C     C_R   0.455168 0.555344 0.753354 0.881770
C19   C     C_R   0.573351 0.271182 0.997203 0.290155
C20   C     C_R   0.561512 0.412049 0.146234 -0.026777
C21   C     C_R   0.424645 0.694468 0.912986 0.030595
C22   C     C_R   0.479370 0.651560 0.035126 -0.141676
C23   C     C_R   0.492111 0.539796 0.983382 0.032491
C24   C     C_R   0.468964 0.505426 0.894672 0.005633
C25   C     C_R   0.525557 0.461052 0.018184 0.027302
C26   C     C_R   0.547176 0.350308 0.959631 -0.043221
C27   C     C_R   0.533540 0.321785 0.868288 0.286922
C28   C     C_R   0.475675 0.393230 0.845499 0.034940
H1    H     H_    0.061645 0.632468 0.587407 0.170314
H2    H     H_    0.510812 0.814658 0.354376 0.198654
H3    H     H_    0.321235 0.814852 0.922926 0.202186
H4    H     H_    0.451180 0.829295 0.874984 0.225469
H5    H     H_    0.348915 0.866561 0.074440 0.208858
H6    H     H_    0.477682 0.883149 0.025202 0.217283
H7    H     H_    0.462191 0.300592 0.716101 0.262352
H8    H     H_    0.358859 0.301881 0.807885 0.216651
H9    H     H_    0.593800 0.094952 0.515560 0.205009
H10   H     H_    0.512522 0.569457 0.161017 0.137710
H11   H     H_    0.498801 0.684396 0.101202 0.158896
H12   H     H_    0.547589 0.172603 0.132563 0.238842
H13   H     H_    0.679532 0.182451 0.087690 0.224990
H14   H     H_    0.948719 0.334166 0.331873 0.207164
H15   H     H_    0.958214 0.461601 0.328710 0.207439
H16   H     H_    0.597929 0.897397 0.317738 0.221267
N1    N     N_3   0.607607 0.225890 0.130471 -0.452497
N2    N     N_3   0.968670 0.411057 0.366371 -0.429586
N3    N     N_3   0.577548 0.855584 0.366187 -0.417240
N4    N     N_3   0.393123 0.773973 0.877339 -0.396704
N5    N     N_3   0.427781 0.838356 0.061207 -0.429536
N6    N     N_3   0.413256 0.350296 0.780417 -0.440831
O1    O     O_3   0.500000 0.500000 0.500000 -0.513946
O2    O     O_R   0.468210 0.402800 0.293550 -0.626332
O3    O     O_R   0.410220 0.615430 0.721590 -0.615960
O4    O     O_R   0.602670 0.506150 0.290200 -0.642552
O5    O     O_R   0.518910 0.475630 0.694660 -0.616109
O6    O     O_R   0.526920 0.270960 0.524520 -0.667551
O7    O     O_R   0.454490 0.752910 0.584610 -0.604896
O8    O     O_R   0.270990 0.462040 0.468400 -0.593350
O9    O     O_R   0.747590 0.514090 0.422470 -0.641151
O10   O     O_R   0.265290 0.607490 0.589320 -0.634042
O11   O     O_R   0.716130 0.416380 0.519810 -0.592729
O12   O     O_R   0.423930 0.265320 0.430520 -0.581226
O13   O     O_R   0.594650 0.710810 0.460350 -0.627628
Zn1   Zn    Zn3+2 0.564370 0.417180 0.558730 1.027672
Zn2   Zn    Zn3+2 0.417220 0.409120 0.424430 1.043309
Zn3   Zn    Zn3+2 0.609330 0.556780 0.419650 0.998519
Zn4   Zn    Zn3+2 0.409080 0.616930 0.597190 1.038500

loop_
_geom_bond_atom_site_label_1
_geom_bond_atom_site_label_2
_ccdc_geom_bond_type
O5    Zn1   S    
C17   O2    A    
H13   N1    S    
H7    N6    S    
C28   N6    S    
C23   C24   A    
O1    Zn1   S    
O13   Zn3   S    
O9    Zn3   S    
C2    C20   A    
O3    Zn4   S    
C16   O13   A    
C25   C26   A    
C3    N1    S    
C5    C21   A    
Br6   C9    S    
O11   Zn1   S    
C26   C27   A    
H15   N2    S    
C19   C26   A    
C27   C28   A    
Br2   C13   S    
C21   N4    S    
C3    C19   A    
C23   C25   A    
C4    O11   A    
O1    Zn2   S    
C1    O10   A    
O10   Zn4   S    
C2    H10   S    
C15   O6    A    
C18   O5    A    
C4    C6    S    
C12   N5    S    
C18   O3    A    
Br5   C19   S    
H3    N4    S    
H12   N1    S    
C22   C23   A    
C6    N2    S    
C3    C20   A    
H6    N5    S    
C7    C9    S    
C15   O12   A    
C17   O4    A    
C1    O8    A    
O12   Zn2   S    
C22   H11   S    
O8    Zn2   S    
H16   N3    S    
Br1   C7    S    
O2    Zn2   S    
C24   C28   A    
C11   N3    S    
C5    C18   S    
H14   N2    S    
C14   H9    S    
C12   C22   A    
C6    C7    D    
O6    Zn1   S    
C4    O9    A    
O1    Zn4   S    
C8    H1    S    
C17   C20   S    
Br4   C27   S    
O4    Zn3   S    
O1    Zn3   S    
C10   C16   S    
H2    N3    S    
O7    Zn4   S    
H8    N6    S    
C16   O7    A    
C8    C9    D    
C2    C25   A    
C11   C14   S    
Br3   C10   S    
C1    C8    S    
H5    N5    S    
C12   C21   A    
C13   C14   D    
C5    C24   A    
C10   C11   D    
C13   C15   S    
H4    N4    S    
