data_mof_unit_17392.cif
_audit_creation_date              2012-12-11T16:37:14-0500
_audit_creation_method            fapswitch 2.2
_symmetry_space_group_name_H-M    P1
_symmetry_Int_Tables_number       1
_space_group_crystal_system       triclinic
_cell_length_a                    19.498856
_cell_length_b                    6.940235
_cell_length_c                    17.683462
_cell_angle_alpha                 89.997419
_cell_angle_beta                  109.016118
_cell_angle_gamma                 89.9951
_cell_volume                      2262.44785122

loop_
_atom_site_label
_atom_site_type_symbol
_atom_type_description
_atom_site_fract_x
_atom_site_fract_y
_atom_site_fract_z
_atom_type_partial_charge
O1    O     O_R   0.561710 0.369960 0.440200 -0.539838
O2    O     O_R   0.061710 0.630040 0.940200 -0.541142
O3    O     O_R   0.412630 0.033330 0.406330 -0.540200
O4    O     O_R   0.912630 0.966670 0.906330 -0.541085
O5    O     O_R   0.438290 0.869790 0.559800 -0.540091
O6    O     O_R   0.938290 0.130210 0.059800 -0.540445
C1    C     C_R   0.385044 0.203127 0.382920 0.699160
C2    C     C_R   0.885049 0.796935 0.882926 0.704204
O7    O     O_R   0.559570 0.039810 0.430640 -0.540453
O8    O     O_R   0.059570 0.960190 0.930640 -0.539476
O9    O     O_R   0.586280 0.876320 0.584290 -0.536946
O10   O     O_R   0.086280 0.123680 0.084290 -0.533620
C3    C     C_R   0.581108 0.208941 0.415629 0.688326
C4    C     C_R   0.081105 0.791054 0.915624 0.689781
O11   O     O_R   0.413720 0.363440 0.415710 -0.538195
O12   O     O_R   0.913720 0.636560 0.915710 -0.538186
O13   O     O_3   0.508590 0.205630 0.550380 -0.370715
O14   O     O_3   0.008590 0.794370 0.050380 -0.370486
V1    V     V_3+5 0.498410 0.928130 0.490650 1.394526
V2    V     V_3+5 0.998410 0.071870 0.990650 1.398534
O15   O     O_R   0.587370 0.546990 0.593670 -0.544874
O16   O     O_R   0.087370 0.453010 0.093670 -0.546194
C5    C     C_R   0.614939 0.716765 0.617270 0.706399
C6    C     C_R   0.114944 0.283213 0.117266 0.699905
O17   O     O_R   0.440430 0.540520 0.569360 -0.542500
O18   O     O_R   0.940430 0.459480 0.069360 -0.542415
C7    C     C_R   0.418677 0.709324 0.584168 0.695776
C8    C     C_R   0.918685 0.290678 0.084179 0.695203
V3    V     V_3+5 0.501590 0.428960 0.509350 1.389398
V4    V     V_3+5 0.001590 0.571040 0.009350 1.388268
O19   O     O_3   0.491410 0.701330 0.449620 -0.368462
O20   O     O_3   0.991410 0.298670 0.949620 -0.368691
C9    C     C_R   0.276290 0.898012 0.670234 0.214104
C10   C     C_R   0.776337 0.101981 0.170290 0.213463
C11   C     C_R   0.324437 0.884132 0.626085 -0.215749
C12   C     C_R   0.824486 0.115841 0.126144 -0.214597
C13   C     C_R   0.368827 0.721350 0.632222 -0.074041
C14   C     C_R   0.868848 0.278651 0.132249 -0.074082
C15   C     C_R   0.364448 0.571529 0.683793 -0.172019
C16   C     C_R   0.864448 0.428494 0.183797 -0.172787
H1    H     H_    0.397892 0.444117 0.689842 0.128801
H2    H     H_    0.897856 0.555951 0.189804 0.128736
C17   C     C_R   0.317937 0.586161 0.729507 -0.211864
C18   C     C_R   0.817953 0.413837 0.229531 -0.209742
H3    H     H_    0.317306 0.469982 0.770161 0.118906
H4    H     H_    0.817307 0.530026 0.270172 0.120471
C19   C     C_R   0.273455 0.749200 0.723844 0.091596
C20   C     C_R   0.773493 0.250788 0.223892 0.091327
C21   C     C_R   0.183994 0.598415 0.781999 -0.162460
C22   C     C_R   0.684013 0.401566 0.282027 -0.162140
H5    H     H_    0.187608 0.464298 0.752205 0.123032
H6    H     H_    0.687619 0.535671 0.252225 0.121965
C23   C     C_R   0.137881 0.608104 0.828311 -0.160191
C24   C     C_R   0.637894 0.391878 0.328329 -0.155725
H7    H     H_    0.107628 0.480672 0.833419 0.128334
H8    H     H_    0.607629 0.519305 0.333425 0.126900
C25   C     C_R   0.130081 0.780749 0.866460 -0.052660
C26   C     C_R   0.630097 0.219240 0.366481 -0.049969
C27   C     C_R   0.170514 0.942436 0.858222 -0.173694
C28   C     C_R   0.670548 0.057562 0.358266 -0.173104
C29   C     C_R   0.217621 0.931680 0.813127 -0.090706
C30   C     C_R   0.717663 0.068318 0.313178 -0.087144
H9    H     H_    0.249590 0.057291 0.810264 0.122990
H10   H     H_    0.749639 0.942708 0.310321 0.123860
C31   C     C_R   0.224199 0.760410 0.773330 0.116070
C32   C     C_R   0.724235 0.239581 0.273375 0.116114
C33   C     C_R   0.806137 0.628196 0.758773 0.064933
C34   C     C_R   0.305300 0.375873 0.260350 0.053577
C35   C     C_R   0.818209 0.783466 0.812455 -0.111063
C36   C     C_R   0.318271 0.217013 0.312348 -0.105841
C37   C     C_R   0.763784 0.925445 0.796642 -0.187871
C38   C     C_R   0.264635 0.072979 0.295320 -0.151052
H11   H     H_    0.770655 0.049366 0.835485 0.122439
H12   H     H_    0.271955 0.947798 0.333493 0.113832
C39   C     C_R   0.697513 0.901572 0.733851 -0.187067
C40   C     C_R   0.198455 0.096400 0.232472 -0.120020
C41   C     C_R   0.683791 0.735481 0.684850 -0.153847
C42   C     C_R   0.183866 0.264524 0.184763 -0.134724
C43   C     C_R   0.741178 0.605944 0.696180 0.139434
C44   C     C_R   0.240184 0.398007 0.197629 0.051802
C45   C     C_3   0.743351 0.392103 0.704611 -0.002832
C46   C     C_3   0.239980 0.610758 0.210454 0.022503
C47   C     C_3   0.814678 0.416334 0.773050 -0.367226
C48   C     C_3   0.311485 0.586411 0.278383 -0.362386
H13   H     H_    0.697908 0.332336 0.722334 0.112835
H14   H     H_    0.194207 0.660189 0.230030 0.124589
H15   H     H_    0.862946 0.358662 0.760211 0.187733
H16   H     H_    0.359111 0.652124 0.266789 0.182259
N1    N     N_3   0.228468 0.060239 0.657929 -0.692911
H17   H     H_    0.260085 0.185229 0.670486 0.221310
H18   H     H_    0.197019 0.064089 0.597450 0.232865
N2    N     N_3   0.728486 0.939829 0.157952 -0.694360
H19   H     H_    0.696975 0.936250 0.097493 0.232793
H20   H     H_    0.760075 0.814755 0.170389 0.221604
H21   H     H_    0.655784 0.009977 0.725473 0.131107
H22   H     H_    0.157273 0.986234 0.223233 0.121352
N3    N     N_3   0.753149 0.299083 0.634794 -0.642776
H23   H     H_    0.765539 0.154261 0.649027 0.246996
H24   H     H_    0.703115 0.300947 0.588972 0.233044
N4    N     N_3   0.247705 0.721249 0.143109 -0.639641
H25   H     H_    0.197980 0.717043 0.096861 0.235146
H26   H     H_    0.286040 0.656023 0.121483 0.234776
H27   H     H_    0.810791 0.374825 0.832209 0.139911
H28   H     H_    0.307132 0.618812 0.338204 0.139729
H29   H     H_    0.325732 0.999873 0.585427 0.122648
H30   H     H_    0.825795 0.000076 0.085503 0.123198
H31   H     H_    0.166742 0.076723 0.887832 0.120667
H32   H     H_    0.666781 0.923283 0.387882 0.121073

loop_
_geom_bond_atom_site_label_1
_geom_bond_atom_site_label_2
_ccdc_geom_bond_type
C34   C44   A    
C47   H15   S    
C33   C47   S    
O13   V3    S    
C23   H7    S    
O4    C2    A    
V1    O19   S    
C1    C36   S    
N3    H23   S    
C39   H21   S    
C15   H1    S    
O9    V1    S    
C2    C35   S    
C22   C24   A    
C21   C31   A    
C28   C30   A    
C14   C16   A    
C40   C42   A    
O3    C1    A    
V2    O20   S    
C9    C11   A    
C42   C44   A    
C25   C27   A    
O12   V4    S    
C35   C37   A    
C39   C41   A    
O7    C3    A    
N2    H19   S    
C30   H10   S    
N3    H24   S    
O5    C7    A    
O7    V1    S    
O6    C8    A    
O8    V2    S    
C21   H5    S    
C22   H6    S    
O3    V1    S    
O14   V4    S    
N1    H18   S    
C17   C19   A    
C10   C12   A    
C28   H32   S    
C38   C40   A    
C16   H2    S    
C2    O12   A    
N4    H26   S    
C45   C47   S    
C18   H4    S    
O11   V3    S    
C41   C43   A    
O17   V3    S    
C24   H8    S    
C27   C29   A    
C30   C32   A    
C12   H30   S    
C34   C48   S    
C33   C43   A    
C38   H12   S    
O8    C4    A    
C43   C45   S    
C23   C25   A    
C15   C17   A    
C3    C26   S    
C46   H14   S    
O15   V3    S    
C27   H31   S    
C33   C35   A    
C11   H29   S    
V4    O20   S    
C9    N1    S    
C17   H3    S    
C8    C14   S    
O10   V2    S    
O1    V3    S    
C5    C41   S    
C22   C32   A    
C47   H27   S    
C44   C46   S    
O18   V4    S    
C46   C48   S    
O15   C5    A    
C48   H28   S    
O16   C6    A    
O1    C3    A    
C37   H11   S    
C24   C26   A    
C6    C42   S    
C4    C25   S    
O16   V4    S    
C11   C13   A    
C46   N4    S    
C29   H9    S    
C48   H16   S    
C9    C19   A    
O5    V1    S    
O17   C7    A    
O6    V2    S    
O10   C6    A    
O18   C8    A    
O2    V4    S    
C12   C14   A    
V3    O19   S    
C40   H22   S    
C37   C39   A    
N2    H20   S    
C45   N3    S    
C7    C13   S    
C21   C23   A    
C1    O11   A    
O9    C5    A    
N4    H25   S    
O13   V1    S    
O14   V2    S    
O2    C4    A    
C10   N2    S    
O4    V2    S    
C29   C31   A    
C16   C18   A    
C10   C20   A    
C13   C15   A    
C34   C36   A    
C36   C38   A    
C20   C32   S    
N1    H17   S    
C26   C28   A    
C19   C31   S    
C45   H13   S    
C18   C20   A    
