data_mof_unit_48947.cif
_audit_creation_date              2012-12-11T17:07:32-0500
_audit_creation_method            fapswitch 2.2
_symmetry_space_group_name_H-M    P1
_symmetry_Int_Tables_number       1
_space_group_crystal_system       triclinic
_cell_length_a                    6.972012
_cell_length_b                    14.663362
_cell_length_c                    15.968474
_cell_angle_alpha                 89.836849
_cell_angle_beta                  89.926782
_cell_angle_gamma                 89.655561
_cell_volume                      1632.46975675

loop_
_atom_site_label
_atom_site_type_symbol
_atom_type_description
_atom_site_fract_x
_atom_site_fract_y
_atom_site_fract_z
_atom_type_partial_charge
O1    O     O_R   0.505720 0.583900 0.413310 -0.536122
O2    O     O_R   0.175940 0.594920 0.586080 -0.548415
O3    O     O_R   0.005640 0.416100 0.586690 -0.535310
C1    C     C_R   0.344616 0.617388 0.614505 0.693173
O4    O     O_R   0.176000 0.594930 0.413930 -0.543399
O5    O     O_R   0.005700 0.416110 0.413310 -0.540909
C2    C     C_R   0.344507 0.616257 0.384806 0.748423
O6    O     O_R   0.505660 0.583890 0.586690 -0.539663
O7    O     O_3   0.339200 0.441330 0.500000 -0.364200
V1    V     V_3+5 0.064350 0.510880 0.500000 1.428070
O8    O     O_R   0.675980 0.405080 0.413920 -0.532674
C3    C     C_R   0.845151 0.384560 0.384127 0.719415
O9    O     O_R   0.675920 0.405070 0.586070 -0.537176
C4    C     C_R   0.845260 0.382678 0.614147 0.693243
V2    V     V_3+5 0.564340 0.489120 0.500000 1.454076
O10   O     O_3   0.839360 0.558670 0.500000 -0.378474
C5    C     C_R   0.903147 0.437976 0.785673 -0.184923
C6    C     C_R   0.928902 0.467631 0.867629 -0.141795
C7    C     C_R   0.937284 0.404843 0.932982 0.238914
C8    C     C_R   0.920382 0.311776 0.916588 -0.156659
C9    C     C_R   0.894934 0.279769 0.833798 0.028224
C10   C     C_R   0.884891 0.344295 0.767051 0.071424
C11   C     C_R   0.879113 0.185282 0.816844 -0.150104
C12   C     C_R   0.855560 0.155423 0.733140 0.073732
C13   C     C_R   0.845061 0.220041 0.666428 0.030000
C14   C     C_R   0.857001 0.314670 0.683472 -0.151391
C15   C     C_R   0.845701 0.061380 0.714164 -0.188537
C16   C     C_R   0.828911 0.031718 0.631781 -0.139801
C17   C     C_R   0.820894 0.094676 0.566562 0.233478
C18   C     C_R   0.827305 0.187923 0.583382 -0.159657
H1    H     H_    0.898812 0.489103 0.736959 0.106043
H2    H     H_    0.942554 0.539816 0.880238 0.137181
H3    H     H_    0.927622 0.265240 0.969216 0.112995
H4    H     H_    0.853404 0.009715 0.762574 0.102198
H5    H     H_    0.823901 0.959364 0.618654 0.134116
H6    H     H_    0.821199 0.234481 0.530740 0.113083
C19   C     C_R   0.723800 0.188119 0.239084 0.104926
C20   C     C_R   0.881497 0.183473 0.184855 -0.107803
C21   C     C_R   0.033324 0.244163 0.200271 -0.076579
H7    H     H_    0.156790 0.244653 0.159402 0.159076
C22   C     C_R   0.022790 0.308076 0.266090 -0.110896
H8    H     H_    0.137941 0.355092 0.275688 0.165479
C23   C     C_R   0.858093 0.316279 0.315987 -0.088423
C24   C     C_R   0.708642 0.256609 0.299270 0.091704
C25   C     C_3   0.507438 0.278108 0.274731 -0.086107
C26   C     C_3   0.517817 0.196050 0.217281 -0.051979
H9    H     H_    0.406335 0.271279 0.328141 0.159730
H10   H     H_    0.492118 0.210517 0.149855 0.153676
C27   C     C_R   0.512289 0.687175 0.738172 0.120594
C28   C     C_R   0.353224 0.683643 0.684690 -0.110700
C29   C     C_R   0.199761 0.743605 0.701791 -0.177261
H11   H     H_    0.075578 0.744476 0.661501 0.140582
C30   C     C_R   0.210894 0.807540 0.767395 -0.167785
H12   H     H_    0.093909 0.855345 0.775965 0.129295
C31   C     C_R   0.376374 0.813826 0.817764 -0.106575
C32   C     C_R   0.523493 0.750550 0.803130 0.116370
C33   C     C_3   0.729887 0.768423 0.786504 -0.421131
C34   C     C_3   0.717680 0.700148 0.715659 -0.407347
H13   H     H_    0.822798 0.745075 0.838974 0.179910
H14   H     H_    0.755104 0.839356 0.764547 0.165009
H15   H     H_    0.805174 0.638049 0.726982 0.166406
H16   H     H_    0.735309 0.731449 0.652607 0.174038
C35   C     C_R   0.466024 0.668311 0.244231 0.157124
C36   C     C_R   0.350575 0.682288 0.314765 -0.167187
C37   C     C_R   0.225952 0.758178 0.313107 -0.255491
H17   H     H_    0.131516 0.770606 0.365844 0.150769
C38   C     C_R   0.235376 0.823784 0.247767 0.469614
C39   C     C_R   0.370884 0.812828 0.181599 -0.202300
C40   C     C_R   0.470046 0.729474 0.177931 0.028850
C41   C     C_3   0.672384 0.705378 0.156742 -0.393658
C42   C     C_3   0.672470 0.643262 0.233363 -0.355434
H18   H     H_    0.772095 0.762823 0.161237 0.160006
H19   H     H_    0.682074 0.667149 0.096832 0.202967
H20   H     H_    0.763545 0.669092 0.285182 0.163824
H21   H     H_    0.696879 0.570863 0.217211 0.223408
O11   O     O_R   0.229140 0.916090 0.913340 -0.545404
O12   O     O_R   0.558860 0.905090 0.086080 -0.550379
O13   O     O_R   0.729100 0.083920 0.086690 -0.538908
C43   C     C_R   0.389234 0.882657 0.114547 0.782033
O14   O     O_R   0.558860 0.905090 0.913930 -0.543666
O15   O     O_R   0.729100 0.083920 0.913310 -0.535337
C44   C     C_R   0.390003 0.883507 0.884820 0.689647
O16   O     O_R   0.229140 0.916080 0.086720 -0.527677
O17   O     O_3   0.395570 0.058660 0.000020 -0.363234
V3    V     V_3+5 0.670450 0.989140 0.000000 1.420402
O18   O     O_R   0.058810 0.094980 0.913910 -0.539396
C45   C     C_R   0.889622 0.117420 0.886041 0.691397
O19   O     O_R   0.058810 0.094980 0.086060 -0.528707
C46   C     C_R   0.889747 0.117101 0.114723 0.709512
V4    V     V_3+5 0.170450 0.010950 0.999970 1.463420
O20   O     O_3   0.895460 0.941370 0.999990 -0.383927
I1    I     I_    0.804639 0.048460 0.442087 -0.392178
I2    I     I_    0.489481 0.401905 0.201920 -0.439233
I3    I     I_    0.373085 0.082051 0.268632 -0.316290
O21   O     O_3   0.144438 0.906863 0.258810 -0.528689
C47   C     C_3   0.946787 0.898942 0.243647 -0.124796
H22   H     H_    0.920701 0.892064 0.175540 0.129847
H23   H     H_    0.875499 0.963263 0.263033 0.191149
H24   H     H_    0.880292 0.842738 0.280296 0.108802
I4    I     I_    0.977052 0.451189 0.056671 -0.413669

loop_
_geom_bond_atom_site_label_1
_geom_bond_atom_site_label_2
_ccdc_geom_bond_type
C34   H16   S    
C42   H21   S    
C31   C32   A    
O21   C47   S    
C22   H8    S    
C7    C8    A    
C12   C15   A    
C1    O6    A    
C25   I2    S    
V3    O20   S    
C21   C22   A    
C25   C26   S    
C20   C46   S    
C17   C18   A    
C16   C17   A    
C19   C20   A    
C3    C23   S    
O5    C3    A    
C20   C21   A    
C33   H13   S    
V2    O10   S    
C47   H24   S    
C32   C33   S    
C6    C7    A    
C25   H9    S    
O8    V2    S    
C35   C40   A    
C16   H5    S    
C39   C40   A    
C37   C38   A    
C47   H23   S    
C11   C12   A    
C41   C42   S    
O1    V2    S    
O7    V1    S    
C34   H15   S    
O12   C43   A    
O12   V3    S    
C15   H4    S    
C11   C45   S    
O9    C4    A    
C38   O21   S    
C22   C23   A    
O17   V4    S    
C28   C29   A    
C30   C31   A    
O13   C46   A    
C26   H10   S    
C29   H11   S    
C12   C13   A    
O14   C44   A    
O18   V4    S    
O11   C44   A    
C21   H7    S    
O4    C2    A    
O18   C45   A    
C33   H14   S    
C13   C14   A    
C30   H12   S    
C4    C14   S    
C27   C34   S    
C38   C39   A    
C1    C28   S    
C29   C30   A    
O2    C1    A    
C23   C24   A    
O14   V3    S    
C26   I3    S    
C7    I4    S    
C47   H22   S    
C8    C9    A    
C41   H19   S    
C5    C6    A    
O17   V3    S    
C31   C44   S    
O15   C45   A    
O3    C4    A    
C8    H3    S    
O13   V3    S    
C35   C42   S    
C37   H17   S    
O6    V2    S    
O9    V2    S    
C5    H1    S    
C6    H2    S    
V4    O20   S    
O2    V1    S    
C24   C25   S    
C13   C18   A    
O16   V4    S    
O1    C2    A    
O19   V4    S    
O5    V1    S    
C42   H20   S    
O8    C3    A    
C27   C32   A    
C5    C10   A    
C18   H6    S    
C36   C37   A    
C19   C24   A    
C9    C11   A    
O7    V2    S    
O4    V1    S    
O3    V1    S    
V1    O10   S    
C43   O16   A    
C33   C34   S    
C39   C43   S    
C40   C41   S    
C2    C36   S    
C35   C36   A    
O19   C46   A    
C27   C28   A    
C10   C14   A    
C15   C16   A    
C41   H18   S    
C19   C26   S    
C9    C10   A    
C17   I1    S    
O15   V3    S    
O11   V4    S    
