data_mof_unit_61303.cif
_audit_creation_date              2012-12-10T20:59:00-0500
_audit_creation_method            fapswitch 2.2
_symmetry_space_group_name_H-M    P1
_symmetry_Int_Tables_number       1
_space_group_crystal_system       triclinic
_cell_length_a                    13.64872
_cell_length_b                    15.088574
_cell_length_c                    15.858607
_cell_angle_alpha                 89.928364
_cell_angle_beta                  89.967226
_cell_angle_gamma                 83.102134
_cell_volume                      3242.27497591

loop_
_atom_site_label
_atom_site_type_symbol
_atom_type_description
_atom_site_fract_x
_atom_site_fract_y
_atom_site_fract_z
_atom_type_partial_charge
C1    C     C_R   0.500028 0.499963 0.661075 0.903930
C2    C     C_R   0.533769 0.949970 0.571621 0.247950
C3    C     C_1   0.500204 0.192900 0.499631 0.097024
C4    C     C_1   0.499797 0.807100 0.500369 0.097036
C5    C     C_R   0.686230 0.484229 0.499972 0.897406
C6    C     C_R   0.313770 0.515771 0.500028 0.897406
C7    C     C_1   0.210184 0.527844 0.500047 -0.179136
C8    C     C_1   0.789816 0.472156 0.499953 -0.179136
C9    C     C_2   0.018873 0.538470 0.500064 -0.159671
C10   C     C_2   0.981127 0.461530 0.499936 -0.159671
C11   C     C_1   0.877443 0.464219 0.499941 0.008813
C12   C     C_R   0.499971 0.500037 0.338925 0.903930
C13   C     C_1   0.122556 0.535781 0.500059 0.008814
C14   C     C_R   0.473621 0.426478 0.044850 -0.320107
C15   C     C_R   0.526384 0.573521 0.955149 -0.320107
C16   C     C_R   0.497696 0.502058 0.086972 0.099485
C17   C     C_R   0.502309 0.497941 0.913027 0.099485
C18   C     C_R   0.523620 0.576535 0.042825 0.234190
C19   C     C_R   0.476385 0.423464 0.957175 0.234192
C20   C     C_1   0.498458 0.500971 0.175864 -0.015698
C21   C     C_1   0.501545 0.499029 0.824136 -0.015699
C22   C     C_3   0.535332 0.286667 0.885198 -0.777381
C23   C     C_1   0.500773 0.499682 0.749370 -0.182571
C24   C     C_3   0.464672 0.713334 0.114798 -0.777383
C25   C     C_3   0.492745 0.877875 0.700491 -0.779949
C26   C     C_3   0.507301 0.122131 0.299525 -0.779956
C27   C     C_1   0.499228 0.500318 0.250630 -0.182571
C28   C     C_R   0.534623 0.043838 0.569447 -0.304356
C29   C     C_R   0.465382 0.956160 0.430552 -0.304360
C30   C     C_R   0.500644 0.094923 0.498738 0.020785
C31   C     C_R   0.499359 0.905077 0.501262 0.020776
C32   C     C_R   0.466240 0.050028 0.428377 0.247954
H1    H     H_    0.027261 0.397546 0.499829 0.160900
H2    H     H_    0.509220 0.231097 0.848987 0.237564
H3    H     H_    0.599112 0.686781 0.054279 0.222645
H4    H     H_    0.420753 0.741672 0.059989 0.233237
H5    H     H_    0.490782 0.768905 0.151007 0.237564
H6    H     H_    0.416929 0.678063 0.156779 0.252563
H7    H     H_    0.623506 0.929551 0.676453 0.222381
H8    H     H_    0.450727 0.939294 0.726873 0.234088
H9    H     H_    0.526667 0.836621 0.753301 0.238551
H10   H     H_    0.441316 0.838498 0.666783 0.250461
H11   H     H_    0.376545 0.070433 0.323519 0.222379
H12   H     H_    0.972739 0.602454 0.500171 0.160899
H13   H     H_    0.549349 0.060715 0.273165 0.234094
H14   H     H_    0.558700 0.161529 0.333248 0.250465
H15   H     H_    0.473392 0.163369 0.246700 0.238551
H16   H     H_    0.454088 0.369519 0.080140 0.154707
H17   H     H_    0.545917 0.630480 0.919860 0.154707
H18   H     H_    0.561121 0.077191 0.623886 0.148269
H19   H     H_    0.438885 0.922807 0.376111 0.148261
H20   H     H_    0.400894 0.313217 0.945722 0.222645
H21   H     H_    0.579253 0.258326 0.940005 0.233236
H22   H     H_    0.583073 0.321939 0.843217 0.252562
N1    N     N_1   0.500030 0.729450 0.499980 -0.089460
N2    N     N_1   0.499970 0.270550 0.500020 -0.089462
N3    N     N_2   0.451293 0.346658 0.913900 -0.300524
N4    N     N_2   0.548711 0.653341 0.086100 -0.300524
N5    N     N_2   0.569377 0.901116 0.644446 -0.307786
N6    N     N_2   0.430651 0.098880 0.355546 -0.307785
O1    O     O_R   0.500000 0.426350 0.621980 -0.606928
O2    O     O_R   0.500000 0.573650 0.378020 -0.606928
O3    O     O_R   0.499960 0.573690 0.621980 -0.608333
O4    O     O_R   0.500040 0.426310 0.378020 -0.608334
O5    O     O_R   0.640370 0.415730 0.499980 -0.611348
O6    O     O_R   0.359630 0.584270 0.500020 -0.611348
O7    O     O_R   0.640330 0.563060 0.499980 -0.602191
O8    O     O_R   0.359670 0.436940 0.500020 -0.602190
Zn1   Zn    Zn3+2 0.500030 0.401620 0.500000 0.980494
Zn2   Zn    Zn3+2 0.499970 0.598380 0.500000 0.980496

loop_
_geom_bond_atom_site_label_1
_geom_bond_atom_site_label_2
_ccdc_geom_bond_type
C25   H10   S    
C5    O7    A    
C15   C18   A    
C14   H16   S    
C6    C7    S    
C20   C27   T    
C10   H1    S    
C12   O2    A    
C9    C10   D    
C24   H6    S    
O3    Zn2   S    
C7    C13   T    
C16   C20   S    
O7    Zn2   S    
H7    N5    S    
C6    O8    A    
C22   N3    S    
C28   C30   A    
C24   H5    S    
C22   H22   S    
C24   H4    S    
O4    Zn1   S    
C19   N3    S    
C15   H17   S    
C30   C32   A    
C5    C8    S    
O6    Zn2   S    
C28   H18   S    
C26   H15   S    
C8    C11   T    
O5    Zn1   S    
C22   H21   S    
C1    O3    A    
C3    C30   S    
C5    O5    A    
C17   C19   A    
C1    C23   S    
C29   C32   A    
C21   C23   T    
C25   H8    S    
C29   H19   S    
C22   H2    S    
C14   C16   A    
C4    C31   S    
C10   C11   S    
C32   N6    S    
C12   C27   S    
O1    Zn1   S    
H20   N3    S    
N1    Zn2   S    
C24   N4    S    
H3    N4    S    
C6    O6    A    
C9    C13   S    
O2    Zn2   S    
C16   C18   A    
N2    Zn1   S    
C3    N2    T    
C25   H9    S    
C4    N1    T    
C15   C17   A    
C12   O4    A    
C26   H14   S    
C2    N5    S    
C2    C31   A    
C9    H12   S    
C2    C28   A    
C25   N5    S    
C26   H13   S    
C29   C31   A    
C26   N6    S    
C14   C19   A    
C18   N4    S    
C17   C21   S    
O8    Zn1   S    
H11   N6    S    
C1    O1    A    
