data_mof_unit_46752.cif
_audit_creation_date              2012-12-11T14:17:58-0500
_audit_creation_method            fapswitch 2.2
_symmetry_space_group_name_H-M    P1
_symmetry_Int_Tables_number       1
_space_group_crystal_system       triclinic
_cell_length_a                    11.136388
_cell_length_b                    11.103824
_cell_length_c                    18.684679
_cell_angle_alpha                 90.054484
_cell_angle_beta                  89.979708
_cell_angle_gamma                 120.839613
_cell_volume                      1983.79192541

loop_
_atom_site_label
_atom_site_type_symbol
_atom_type_description
_atom_site_fract_x
_atom_site_fract_y
_atom_site_fract_z
_atom_type_partial_charge
C1    C     C_R   0.520771 0.454748 0.145835 0.548080
C2    C     C_R   0.893044 0.355672 0.556530 -0.102097
C3    C     C_R   0.366326 0.919739 0.525079 -0.141734
C4    C     C_R   0.597659 0.603296 0.538574 -0.139410
C5    C     C_R   0.725401 0.967654 0.544069 0.358316
C6    C     C_R   0.913659 0.687579 0.593116 0.376515
C7    C     C_R   0.216679 0.394639 0.524249 0.386783
C8    C     C_R   0.014584 0.732133 0.453293 0.372761
C9    C     C_R   0.654750 0.878807 0.402720 0.414859
C10   C     C_R   0.286792 0.231599 0.444729 0.373947
C11   C     C_R   0.818562 0.957588 0.498804 -0.193767
C12   C     C_R   0.545360 0.066215 0.145961 0.542660
C13   C     C_R   0.981032 0.821249 0.565322 -0.159160
C14   C     C_R   0.114096 0.277026 0.488056 -0.126933
C15   C     C_R   0.035619 0.843649 0.496507 -0.212721
C16   C     C_R   0.780243 0.902800 0.430355 -0.157016
C17   C     C_R   0.149056 0.195113 0.448815 -0.153459
C18   C     C_R   0.545708 0.420444 0.362310 0.564654
C19   C     C_R   0.537323 0.050320 0.349591 0.584813
C20   C     C_R   0.878919 0.456306 0.362641 0.548942
C21   C     C_R   0.424903 0.545905 0.637599 0.596917
C22   C     C_R   0.044455 0.534880 0.652973 0.632099
C23   C     C_R   0.933895 0.479879 0.146023 0.545490
C24   C     C_R   0.460336 0.886637 0.637611 0.565579
C25   C     C_R   0.499958 0.008758 0.921616 -0.001798
C26   C     C_R   0.992653 0.490020 0.922018 0.001349
C27   C     C_R   0.510062 0.501680 0.921525 0.000791
C28   C     C_R   0.973541 0.494156 0.070944 0.003824
C29   C     C_R   0.520058 0.027217 0.070675 0.005751
C30   C     C_R   0.508020 0.479801 0.070511 0.003367
C31   C     C_R   0.382438 0.986728 0.963045 0.026042
C32   C     C_R   0.016741 0.397199 0.964272 0.025545
C33   C     C_R   0.605853 0.620300 0.963330 0.024184
C34   C     C_R   0.460628 0.519365 0.851813 0.561944
C35   C     C_R   0.022126 0.411595 0.039534 0.014969
C36   C     C_R   0.389030 0.980629 0.038378 0.013884
C37   C     C_R   0.593122 0.612258 0.038692 0.012276
C38   C     C_R   0.639498 0.072138 0.027788 -0.137119
C39   C     C_R   0.927271 0.565555 0.027379 -0.140307
C40   C     C_R   0.433999 0.359986 0.027191 -0.139201
C41   C     C_R   0.939726 0.566169 0.954177 -0.143354
C42   C     C_R   0.629060 0.060022 0.954549 -0.145940
C43   C     C_R   0.432331 0.371216 0.953958 -0.145519
C44   C     C_R   0.257977 0.968181 0.932239 -0.085482
C45   C     C_R   0.059465 0.539442 0.851991 0.547138
C46   C     C_R   0.037695 0.292180 0.934455 -0.086522
C47   C     C_R   0.712090 0.747173 0.932851 -0.087186
C48   C     C_R   0.073232 0.340956 0.081072 -0.092480
C49   C     C_R   0.265133 0.930562 0.078969 -0.092379
C50   C     C_R   0.667517 0.736282 0.079797 -0.092253
C51   C     C_R   0.138522 0.923851 0.973426 -0.138331
C52   C     C_R   0.082976 0.219977 0.976609 -0.137457
C53   C     C_R   0.787590 0.866867 0.974511 -0.140161
C54   C     C_R   0.102323 0.245263 0.049628 -0.127895
C55   C     C_R   0.141340 0.903358 0.046506 -0.129024
C56   C     C_R   0.481075 0.940928 0.851800 0.551201
C57   C     C_R   0.764396 0.862183 0.047695 -0.128406
C58   C     C_R   0.478775 0.924165 0.560852 0.015679
C59   C     C_R   0.940633 0.482623 0.592019 0.076521
C60   C     C_R   0.459650 0.531888 0.563777 0.027679
C61   C     C_R   0.904288 0.467911 0.441897 0.024587
C62   C     C_R   0.482691 0.952655 0.411501 0.042396
C63   C     C_R   0.526616 0.444094 0.437861 0.012656
C64   C     C_R   0.590975 0.932722 0.518668 -0.030498
C65   C     C_R   0.921445 0.581995 0.555777 -0.004596
C66   C     C_R   0.355671 0.428269 0.521146 0.001691
C67   C     C_R   0.371370 0.938441 0.451348 -0.079027
C68   C     C_R   0.945519 0.594054 0.481300 0.002254
C69   C     C_R   0.570837 0.913684 0.443956 -0.011683
C70   C     C_R   0.393061 0.362924 0.470081 0.012397
C71   C     C_R   0.860092 0.345123 0.482618 -0.170562
C72   C     C_R   0.628751 0.565055 0.473135 -0.164068
Cr1   Cr    Cr6+3 0.768550 0.541320 0.250660 1.070715
Cr2   Cr    Cr6+3 0.458680 0.227230 0.250660 1.079031
Cr3   Cr    Cr6+3 0.772770 0.231450 0.250660 1.041859
Cr4   Cr    Cr6+3 0.541320 0.768550 0.749340 1.089910
Cr5   Cr    Cr6+3 0.227230 0.458680 0.749340 1.046801
Cr6   Cr    Cr6+3 0.231450 0.772770 0.749340 1.051177
F1    F     F_    0.780367 0.033030 0.606999 -0.639150
F2    F     F_    0.861557 0.665816 0.660760 -0.622252
F3    F     F_    0.189136 0.492087 0.548157 -0.660640
F4    F     F_    0.082290 0.766092 0.389816 -0.613369
F5    F     F_    0.620584 0.833610 0.334044 -0.606438
F6    F     F_    0.315518 0.145569 0.409006 -0.657777
H1    H     H_    0.743112 0.117693 0.050731 0.151460
H2    H     H_    0.092280 0.359580 0.137867 0.144347
H3    H     H_    0.262097 0.910555 0.135744 0.149615
H4    H     H_    0.650807 0.737776 0.136706 0.162522
H5    H     H_    0.043330 0.904575 0.948055 0.106921
H6    H     H_    0.103662 0.144574 0.952081 0.104688
H7    H     H_    0.863721 0.963636 0.949385 0.105271
H8    H     H_    0.138044 0.189186 0.082185 0.126105
H9    H     H_    0.047900 0.868019 0.078297 0.127097
H10   H     H_    0.822916 0.955820 0.079847 0.128267
H11   H     H_    0.289763 0.942504 0.424930 0.270687
H12   H     H_    0.880440 0.621908 0.049795 0.149838
H13   H     H_    0.814663 0.244295 0.456122 0.127861
H14   H     H_    0.730648 0.630119 0.449694 0.132705
H15   H     H_    0.891378 0.270415 0.584449 0.206801
H16   H     H_    0.277018 0.906596 0.554559 0.155852
H17   H     H_    0.679082 0.690313 0.568190 0.182925
H18   H     H_    0.922987 0.997968 0.517132 0.137047
H19   H     H_    0.997263 0.908008 0.598727 0.166576
H20   H     H_    0.007447 0.245450 0.489073 0.139461
H21   H     H_    0.098459 0.948389 0.477220 0.164715
H22   H     H_    0.851383 0.888101 0.397172 0.159213
H23   H     H_    0.375903 0.255637 0.049862 0.150133
H24   H     H_    0.070351 0.106538 0.418815 0.136318
H25   H     H_    0.913742 0.631758 0.922825 0.140804
H26   H     H_    0.721434 0.084816 0.923787 0.135289
H27   H     H_    0.364684 0.278278 0.922804 0.132390
H28   H     H_    0.251899 0.991976 0.876812 0.138683
H29   H     H_    0.014702 0.260183 0.879169 0.139987
H30   H     H_    0.742032 0.755161 0.877310 0.149656
O1    O     O_R   0.910960 0.572410 0.171010 -0.514171
O2    O     O_R   0.528530 0.639750 0.824400 -0.503501
O3    O     O_R   0.111220 0.471470 0.824400 -0.524219
O4    O     O_R   0.360250 0.888780 0.824400 -0.511596
O5    O     O_R   0.909330 0.572400 0.331540 -0.418583
O6    O     O_R   0.427600 0.336930 0.331540 -0.425166
O7    O     O_R   0.663070 0.090670 0.331540 -0.496718
O8    O     O_R   0.572400 0.909330 0.668460 -0.422541
O9    O     O_R   0.336930 0.427600 0.668460 -0.494764
O10   O     O_R   0.090670 0.663070 0.668460 -0.475140
O11   O     O_R   0.638240 0.528520 0.324410 -0.488804
O12   O     O_R   0.427590 0.338550 0.171010 -0.521479
O13   O     O_R   0.471480 0.109720 0.324410 -0.446041
O14   O     O_R   0.890280 0.361760 0.324410 -0.490698
O15   O     O_R   0.528520 0.638240 0.675590 -0.488171
O16   O     O_R   0.109720 0.471480 0.675590 -0.465198
O17   O     O_R   0.361760 0.890280 0.675590 -0.509978
O18   O     O_3   0.666667 0.333333 0.250630 -0.322005
O19   O     O_3   0.333333 0.666667 0.749370 -0.301265
O20   O     O_R   0.661450 0.089040 0.171010 -0.506365
O21   O     O_R   0.572410 0.910960 0.828990 -0.509950
O22   O     O_R   0.338550 0.427590 0.828990 -0.517457
O23   O     O_R   0.089040 0.661450 0.828990 -0.501911
O24   O     O_R   0.639750 0.528530 0.175600 -0.504846
O25   O     O_R   0.471470 0.111220 0.175600 -0.516053
O26   O     O_R   0.888780 0.360250 0.175600 -0.509474

loop_
_geom_bond_atom_site_label_1
_geom_bond_atom_site_label_2
_ccdc_geom_bond_type
C25   C31   A    
C47   H30   S    
C26   C32   A    
Cr1   O5    S    
Cr2   O18   S    
C12   C29   S    
C49   H3    S    
C52   H6    S    
C61   C68   A    
C25   C56   S    
C55   H9    S    
Cr3   O20   S    
C39   C41   A    
C72   H14   S    
C27   C33   A    
C48   C54   A    
C71   H13   S    
C29   C36   A    
C43   H27   S    
C62   C67   A    
C8    F4    S    
Cr6   O4    S    
C9    C16   A    
C9    C69   A    
C20   O14   A    
Cr5   O3    S    
Cr3   O26   S    
C18   O11   A    
C18   C63   S    
Cr1   O24   S    
C19   C62   S    
C34   O2    A    
C46   C52   A    
C62   C69   A    
Cr3   O14   S    
C11   C16   A    
C19   O13   A    
C20   C61   S    
C26   C45   S    
C18   O6    A    
C14   H20   S    
C3    H16   S    
C7    C14   A    
C28   C35   A    
C29   C38   A    
C53   H7    S    
Cr5   O22   S    
C13   H19   S    
Cr6   O10   S    
C16   H22   S    
C47   C53   A    
C61   C71   A    
Cr1   O18   S    
C60   C66   A    
C41   H25   S    
C22   O16   A    
C67   H11   S    
C14   C17   A    
Cr5   O19   S    
C35   C48   A    
C24   O8    A    
Cr4   O21   S    
C52   C54   A    
C6    C65   A    
C27   C34   S    
C58   C64   A    
C31   C44   A    
C38   H1    S    
C32   C35   A    
C23   O26   A    
C1    O12   A    
C21   C60   S    
C17   H24   S    
C22   C59   S    
C53   C57   A    
C2    C59   A    
C28   C39   A    
C49   C55   A    
C33   C37   A    
C30   C37   A    
C21   O9    A    
Cr6   O17   S    
C3    C58   A    
C54   H8    S    
Cr5   O9    S    
Cr4   O15   S    
C6    F2    S    
Cr2   O13   S    
C63   C70   A    
C34   O22   A    
C65   C68   A    
C4    H17   S    
C4    C60   A    
C45   O23   A    
C12   O25   A    
C30   C40   A    
Cr2   O12   S    
C23   C28   S    
C21   O15   A    
C9    F5    S    
C40   H23   S    
C44   H28   S    
C44   C51   A    
C7    F3    S    
C2    H15   S    
C8    C68   A    
C8    C15   A    
C57   H10   S    
C13   C15   A    
C5    C11   A    
C33   C47   A    
C48   H2    S    
C5    F1    S    
C2    C71   A    
Cr6   O23   S    
C10   C70   A    
C4    C72   A    
C56   O21   A    
Cr2   O6    S    
Cr3   O18   S    
C45   O3    A    
C19   O7    A    
C46   H29   S    
Cr3   O7    S    
C50   C57   A    
C32   C46   A    
C3    C67   A    
C25   C42   A    
Cr4   O19   S    
C22   O10   A    
C50   H4    S    
C64   C69   A    
Cr2   O25   S    
Cr1   O1    S    
Cr4   O8    S    
C40   C43   A    
C15   H21   S    
C42   H26   S    
C51   H5    S    
C7    C66   A    
C56   O4    A    
C37   C50   A    
C24   O17   A    
C66   C70   A    
Cr1   O11   S    
C10   F6    S    
C1    C30   S    
Cr4   O2    S    
C11   H18   S    
C51   C55   A    
Cr5   O16   S    
Cr6   O19   S    
C39   H12   S    
C36   C49   A    
C23   O1    A    
C38   C42   A    
C27   C43   A    
C63   C72   A    
C5    C64   A    
C24   C58   S    
C31   C36   A    
C12   O20   A    
C10   C17   A    
C20   O5    A    
C59   C65   A    
C1    O24   A    
C26   C41   A    
C6    C13   A    
