data_mof_unit_30720.cif
_audit_creation_date              2013-03-05T16:33:10-0500
_audit_creation_method            fapswitch 2.2
_symmetry_space_group_name_H-M    P1
_symmetry_Int_Tables_number       1
_space_group_crystal_system       triclinic
_cell_length_a                    27.771527
_cell_length_b                    10.808781
_cell_length_c                    9.536203
_cell_angle_alpha                 90.111287
_cell_angle_beta                  89.75282
_cell_angle_gamma                 90.672755
_cell_volume                      2862.31355673

loop_
_atom_site_label
_atom_site_type_symbol
_atom_site_description
_atom_site_fract_x
_atom_site_fract_y
_atom_site_fract_z
_atom_type_partial_charge
O1    O     O_R   0.500000 0.319640 0.618810 -0.524472
O2    O     O_R   0.500010 0.319680 0.381230 -0.573472
C1    C     C_R   0.499390 0.262353 0.499793 0.842703
O3    O     O_R   0.430260 0.500000 0.618780 -0.592528
O4    O     O_R   0.430270 0.500040 0.381190 -0.598910
C2    C     C_R   0.407464 0.500157 0.500161 0.811712
Cu1   Cu    Cu3+1 0.500000 0.499980 0.640670 0.997754
Cu2   Cu    Cu3+1 0.500000 0.500020 0.359330 0.964930
O5    O     O_R   0.499990 0.680320 0.618770 -0.592924
O6    O     O_R   0.500000 0.680360 0.381190 -0.596510
O7    O     O_R   0.569730 0.499960 0.618810 -0.577919
O8    O     O_R   0.569740 0.500000 0.381220 -0.578842
C3    C     C_R   0.498838 0.737558 0.499943 0.797342
C4    C     C_R   0.592468 0.500924 0.500106 0.808496
C5    C     C_R   0.176999 0.402001 0.443847 0.531430
O9    O     O_2   0.201132 0.306149 0.387489 -0.523417
N1    N     N_R   0.201865 0.498647 0.502416 -0.477015
C6    C     C_R   0.178774 0.594055 0.567600 0.552587
C7    C     C_R   0.278887 0.531699 0.374382 0.140231
C8    C     C_R   0.329595 0.531015 0.377053 -0.204467
C9    C     C_R   0.328642 0.470430 0.621800 -0.199867
C10   C     C_R   0.278598 0.469134 0.620594 -0.113900
C11   C     C_R   0.253560 0.498959 0.498311 0.314505
C12   C     C_R   0.101732 0.501677 0.503127 -0.084221
C13   C     C_R   0.126581 0.402028 0.442098 0.002981
C14   C     C_R   0.100709 0.304864 0.379892 -0.121330
C15   C     C_R   0.127914 0.598238 0.569735 -0.137547
C16   C     C_R   0.354504 0.500541 0.499935 -0.067925
H1    H     H_    0.347060 0.446593 0.717742 0.168990
H2    H     H_    0.258995 0.445067 0.715318 0.149274
H3    H     H_    0.119052 0.228088 0.330772 0.196240
C17   C     C_R   0.645284 0.503463 0.501668 -0.037591
C18   C     C_R   0.973577 0.400200 0.450965 0.054476
C19   C     C_R   0.975381 0.617766 0.531385 0.026919
C20   C     C_R   0.949164 0.509089 0.493282 0.048466
C21   C     C_R   0.945981 0.292838 0.420172 -0.214126
C22   C     C_R   0.896079 0.292842 0.429124 -0.141279
C23   C     C_R   0.871704 0.400492 0.465930 -0.012467
C24   C     C_R   0.898109 0.509350 0.496150 -0.050892
C25   C     C_R   0.873319 0.618438 0.528393 -0.053478
C26   C     C_R   0.822713 0.616276 0.532544 0.546732
N2    N     N_R   0.797837 0.509036 0.504912 -0.468661
C27   C     C_R   0.821223 0.402200 0.471736 0.537211
C28   C     C_R   0.720527 0.445622 0.610602 -0.092796
C29   C     C_R   0.670283 0.443292 0.609014 -0.201328
C30   C     C_R   0.671117 0.568662 0.398467 -0.209335
C31   C     C_R   0.721299 0.571365 0.400344 -0.090335
C32   C     C_R   0.746192 0.509292 0.505903 0.344409
O10   O     O_2   0.795653 0.298368 0.442736 -0.526200
C33   C     C_R   0.024607 0.401954 0.441790 0.055133
C34   C     C_R   0.050612 0.503906 0.498459 0.079966
C35   C     C_R   0.025876 0.607261 0.552637 -0.022356
C36   C     C_R   0.050702 0.304375 0.380054 -0.219818
H4    H     H_    0.650964 0.393284 0.690417 0.178855
H5    H     H_    0.739556 0.397785 0.692787 0.150610
H6    H     H_    0.876632 0.207816 0.405873 0.186794
H7    H     H_    0.961945 0.205834 0.392256 0.134934
H8    H     H_    0.033457 0.227449 0.327639 0.143829
O11   O     O_2   0.205255 0.683939 0.629463 -0.478932
C37   C     C_R   0.102155 0.692182 0.639875 0.367985
H9    H     H_    0.350226 0.555408 0.284669 0.144410
C38   C     C_R   0.949655 0.731576 0.543890 0.082324
C39   C     C_R   0.899214 0.728583 0.548381 -0.172436
O12   O     O_2   0.798542 0.720307 0.564342 -0.529868
C40   C     C_R   0.052012 0.692277 0.634925 -0.290014
H10   H     H_    0.652555 0.619998 0.318730 0.144163
H11   H     H_    0.880051 0.814731 0.560806 0.189705
H12   H     H_    0.740904 0.621422 0.319638 0.146169
H13   H     H_    0.033758 0.760025 0.697750 0.192244
C41   C     C_R   0.478930 0.063174 0.614082 0.017124
C42   C     C_R   0.495331 0.129230 0.497312 -0.084125
C43   C     C_R   0.504472 0.064132 0.372420 -0.145845
H14   H     H_    0.514636 0.111965 0.276851 0.196903
C44   C     C_R   0.504177 0.935329 0.372655 -0.187339
H15   H     H_    0.514583 0.887381 0.277635 0.154520
C45   C     C_R   0.494182 0.870345 0.497325 -0.055454
C46   C     C_R   0.477519 0.936162 0.613655 -0.024956
C47   C     C_3   0.486732 0.925975 0.768131 -0.269053
C48   C     C_3   0.489541 0.069291 0.768506 0.557014
H16   H     H_    0.521660 0.880537 0.788885 0.191447
C49   C     C_R   0.542061 0.512977 0.072880 0.299208
N3    N     N_R   0.500300 0.500930 0.147930 -0.200247
C50   C     C_R   0.459136 0.474444 0.074683 -0.037906
H17   H     H_    0.425805 0.455181 0.129512 0.148786
C51   C     C_R   0.459126 0.474674 0.926136 -0.002613
H18   H     H_    0.425808 0.455694 0.871921 0.156783
N4    N     N_R   0.500310 0.500890 0.852020 -0.198658
C52   C     C_R   0.542033 0.512905 0.925553 0.327599
C53   C     C_3   0.576528 0.619090 0.918124 -0.509313
C54   C     C_3   0.576591 0.619645 0.077209 -0.530395
H19   H     H_    0.611684 0.592043 0.871851 0.216653
H20   H     H_    0.560468 0.702942 0.871584 0.207555
H21   H     H_    0.611914 0.592470 0.119977 0.207927
H22   H     H_    0.560793 0.704215 0.124338 0.207119
C55   C     C_3   0.250754 0.568003 0.244025 -0.376060
C56   C     C_3   0.281152 0.608978 0.116661 -0.439068
C57   C     C_3   0.249274 0.643890 0.993136 -0.692613
H23   H     H_    0.226762 0.563403 0.960131 0.250261
H24   H     H_    0.225494 0.721869 0.022242 0.281317
H25   H     H_    0.272219 0.672927 0.903035 0.253604
H26   H     H_    0.303748 0.690737 0.145178 0.235469
H27   H     H_    0.304866 0.532264 0.082632 0.224590
H28   H     H_    0.228028 0.487889 0.211369 0.228635
H29   H     H_    0.226392 0.644984 0.272964 0.214141
N5    N     N_R   0.125763 0.789269 0.716451 0.153902
O13   O     O_R   0.118082 0.799905 0.850570 -0.359400
O14   O     O_R   0.144963 0.881882 0.648528 -0.306814
C58   C     C_3   0.972764 0.859172 0.527413 -0.418630
C59   C     C_3   0.967413 0.938415 0.660919 -0.374987
C60   C     C_3   0.005532 0.041201 0.667045 -0.762838
H30   H     H_    0.042021 0.000952 0.675536 0.282192
H31   H     H_    0.004065 0.099378 0.571599 0.246358
H32   H     H_    0.999043 0.100570 0.760212 0.247480
H33   H     H_    0.931157 0.980918 0.662630 0.224492
H34   H     H_    0.970407 0.880657 0.756686 0.231683
H35   H     H_    0.010769 0.853885 0.492372 0.221760
H36   H     H_    0.954661 0.907818 0.439846 0.191401
C61   C     C_3   0.443683 0.863659 0.844478 -0.339763
C62   C     C_3   0.456199 0.832057 0.996635 -0.325259
C63   C     C_3   0.412337 0.781827 0.076025 -0.825698
H37   H     H_    0.384088 0.853500 0.082894 0.273420
H38   H     H_    0.397365 0.698722 0.022261 0.231288
H39   H     H_    0.422968 0.755527 0.183979 0.253697
H40   H     H_    0.484680 0.760946 0.997470 0.206734
H41   H     H_    0.470255 0.915094 0.052051 0.260505
H42   H     H_    0.411164 0.922459 0.840502 0.244869
H43   H     H_    0.434339 0.775761 0.789654 0.213861
N6    N     N_R   0.451725 0.131998 0.849594 0.116226
O15   O     O_R   0.453800 0.135541 0.985809 -0.362018
O16   O     O_R   0.417369 0.190750 0.786563 -0.390684
N7    N     N_R   0.538122 0.118155 0.798346 0.102446
O17   O     O_R   0.575449 0.074700 0.732362 -0.386172
O18   O     O_R   0.544405 0.207766 0.887993 -0.330392

loop_
_geom_bond_atom_site_label_1
_geom_bond_atom_site_label_2
_geom_bond_distance
_ccdc_geom_bond_type
C48   N6    1.472403 S    
C56   H27   1.111975 S    
C17   C29   1.404357 A    
C1    C42   1.442148 S    
C55   C56   1.538980 S    
C37   N5    1.431555 S    
C12   C15   1.416011 A    
N4    C52   1.361742 A    
N6    O15   1.300971 A    
C57   H23   1.111127 S    
Cu1   Cu2   2.682915 S    
C62   H40   1.109419 S    
C28   C29   1.395451 A    
Cu1   O7    1.946805 S    
N5    O14   1.301126 A    
N1    C11   1.435987 S    
C25   C39   1.396814 A    
C44   C45   1.407008 A    
Cu2   N3    2.015978 S    
C21   C22   1.388120 A    
C47   C61   1.545495 S    
C30   H10   1.078677 S    
C15   C37   1.414386 A    
C51   H18   1.079251 S    
C23   C24   1.409070 A    
O7    C4    1.293818 A    
C47   H16   1.111088 S    
C5    C13   1.400357 A    
C38   C58   1.522441 S    
C5    O9    1.349992 S    
C19   C38   1.434324 A    
C18   C21   1.414194 A    
C58   C59   1.540680 S    
N1    C6    1.367726 A    
C19   C20   1.422151 A    
C26   N2    1.368174 A    
C8    H9    1.080258 S    
O5    C3    1.292797 A    
C61   C62   1.533613 S    
C60   H30   1.110820 S    
C22   H6    1.083535 S    
C2    C16   1.470840 S    
C50   H17   1.079502 S    
C55   H28   1.110396 S    
C41   C42   1.395811 A    
C53   H19   1.111720 S    
C63   H39   1.110633 S    
C12   C34   1.421056 A    
C14   H3    1.083480 S    
C56   H26   1.111856 S    
C41   C46   1.372941 A    
O3    Cu1   1.948904 S    
C57   H24   1.110933 S    
C63   H38   1.110814 S    
C54   H22   1.111832 S    
C51   N4    1.369015 A    
C39   H11   1.083971 S    
C33   C36   1.412817 A    
C44   H15   1.082871 S    
C34   C35   1.414057 A    
C12   C13   1.409469 A    
C43   C44   1.392135 A    
C21   H7    1.076837 S    
C24   C25   1.405224 A    
C47   C48   1.550119 S    
C27   O10   1.349852 S    
C8    C16   1.405014 A    
C18   C33   1.419406 A    
C46   C47   1.500725 S    
C9    H1    1.083120 S    
C49   N3    1.365239 A    
O1    C1    1.291913 A    
C20   C24   1.418054 A    
C22   C23   1.396491 A    
C31   C32   1.400329 A    
C3    C45   1.442862 S    
Cu2   O8    1.948898 S    
C48   N7    1.471785 S    
C56   C57   1.527198 S    
C38   C39   1.401267 A    
C33   C34   1.417851 A    
N2    C32   1.434275 S    
C45   C46   1.396826 A    
C53   H20   1.109101 S    
C60   H32   1.110289 S    
C59   H33   1.111693 S    
C49   C54   1.491572 S    
C62   H41   1.108557 S    
O3    C2    1.298670 A    
C25   C26   1.405694 A    
C50   C51   1.416588 A    
C9    C16   1.400405 A    
O8    C4    1.299924 A    
C29   H4    1.083441 S    
N3    C50   1.369354 A    
N2    C27   1.367404 A    
N7    O17   1.302240 A    
C14   C36   1.388713 A    
C31   H12   1.082874 S    
C57   H25   1.111056 S    
C7    C55   1.525516 S    
C63   H37   1.110661 S    
C7    C11   1.416071 A    
C54   H21   1.107065 S    
C5    N1    1.365358 A    
C30   C31   1.393785 A    
C10   H2    1.083219 S    
C41   C48   1.504234 S    
O1    Cu1   1.959968 S    
C17   C30   1.401644 A    
C58   H36   1.112688 S    
O2    Cu2   1.960819 S    
C6    C15   1.413783 A    
C4    C17   1.466852 S    
C43   H14   1.083398 S    
N7    O18   1.301366 A    
O6    C3    1.289635 A    
N6    O16   1.302137 A    
C37   C40   1.393566 A    
O4    Cu2   1.946807 S    
C36   H8    1.077797 S    
N5    O13   1.300843 A    
C19   C35   1.423641 A    
C58   H35   1.107793 S    
C7    C8    1.408666 A    
O2    C1    1.290307 A    
C13   C14   1.398088 A    
C42   C43   1.405820 A    
C59   C60   1.526781 S    
C55   H29   1.112195 S    
C28   H5    1.082781 S    
O4    C2    1.296964 A    
C40   H13   1.075418 S    
C18   C20   1.422066 A    
C60   H31   1.108460 S    
C49   C52   1.404943 A    
C59   H34   1.111208 S    
Cu1   O5    1.960817 S    
C6    O11   1.348139 S    
C23   C27   1.403128 A    
Cu1   N4    2.015537 S    
C52   C53   1.487920 S    
Cu2   O6    1.959967 S    
C62   C63   1.526389 S    
C61   H43   1.112097 S    
C10   C11   1.400342 A    
C61   H42   1.111232 S    
C26   O12   1.349659 S    
C53   C54   1.517075 S    
C9    C10   1.389790 A    
C35   C40   1.404811 A    
C28   C32   1.401242 A    
