data_mof_unit_12102.cif
_audit_creation_date              2012-12-10T17:23:43-0500
_audit_creation_method            fapswitch 2.2
_symmetry_space_group_name_H-M    P1
_symmetry_Int_Tables_number       1
_space_group_crystal_system       triclinic
_cell_length_a                    9.569739
_cell_length_b                    10.886975
_cell_length_c                    17.381476
_cell_angle_alpha                 92.77675
_cell_angle_beta                  86.076163
_cell_angle_gamma                 90.622186
_cell_volume                      1804.48005163

loop_
_atom_site_label
_atom_site_type_symbol
_atom_type_description
_atom_site_fract_x
_atom_site_fract_y
_atom_site_fract_z
_atom_type_partial_charge
C1    C     C_R   0.500953 0.736920 0.495186 0.813675
C2    C     C_R   0.343335 0.484166 0.775655 -0.198100
C3    C     C_R   0.410929 0.515317 0.147578 -0.149370
C4    C     C_R   0.403921 0.510676 0.227292 -0.213489
C5    C     C_R   0.657662 0.502077 0.224158 -0.199149
C6    C     C_R   0.664557 0.506696 0.144127 -0.173320
C7    C     C_R   0.541312 0.511491 0.105424 0.193242
C8    C     C_2   0.452436 0.465882 0.977953 -0.232351
C9    C     C_2   0.551711 0.514915 0.021136 -0.231241
C10   C     C_R   0.527086 0.503621 0.266166 -0.026571
C11   C     C_R   0.273301 0.876309 0.432804 -0.147619
C12   C     C_R   0.481893 0.498809 0.649722 0.782860
C13   C     C_R   0.144085 0.932866 0.430546 -0.153421
C14   C     C_R   0.121384 0.046587 0.468534 -0.153417
C15   C     C_R   0.231862 0.109294 0.501600 -0.156730
C16   C     C_R   0.368940 0.059470 0.496221 0.067593
C17   C     C_R   0.382155 0.934371 0.472722 0.091203
C18   C     C_R   0.501334 0.870669 0.492136 -0.148449
C19   C     C_R   0.614395 0.934922 0.521433 -0.240524
C20   C     C_R   0.614182 0.062496 0.531278 0.084521
C21   C     C_R   0.492285 0.127639 0.514303 -0.151558
C22   C     C_R   0.866913 0.339543 0.395031 -0.175237
C23   C     C_R   0.497918 0.262493 0.506226 0.779392
C24   C     C_R   0.944973 0.263239 0.342604 -0.233943
C25   C     C_R   0.088970 0.263802 0.342375 -0.201665
C26   C     C_R   0.155598 0.340001 0.394969 -0.154576
C27   C     C_R   0.080388 0.421302 0.448324 0.191600
C28   C     C_R   0.930645 0.421239 0.448347 0.205642
C29   C     C_R   0.920834 0.575076 0.549053 -0.084114
C30   C     C_R   0.068941 0.575022 0.549042 -0.068326
C31   C     C_R   0.518132 0.500408 0.350263 0.769351
C32   C     C_R   0.473444 0.491146 0.733611 -0.030900
C33   C     C_R   0.597270 0.486388 0.772035 -0.215065
C34   C     C_R   0.591557 0.475262 0.851221 -0.151989
C35   C     C_R   0.461596 0.471720 0.893684 0.197261
C36   C     C_R   0.337645 0.474157 0.855375 -0.172904
Cu1   Cu    Cu3+1 0.359340 0.500010 0.500010 0.919769
Cu2   Cu    Cu3+1 0.640660 0.499990 0.499990 0.924407
H1    H     H_    0.699077 0.490449 0.740946 0.157105
H2    H     H_    0.765954 0.504980 0.112284 0.121983
H3    H     H_    0.703683 0.884446 0.538081 0.159247
H4    H     H_    0.286865 0.787346 0.402940 0.154862
H5    H     H_    0.060113 0.886418 0.401844 0.138253
H6    H     H_    0.018706 0.087586 0.471111 0.141816
H7    H     H_    0.205100 0.193384 0.534303 0.169328
H8    H     H_    0.861116 0.636569 0.589197 0.135777
H9    H     H_    0.757207 0.329476 0.391366 0.205468
H10   H     H_    0.892972 0.202130 0.302447 0.154276
H11   H     H_    0.301868 0.513656 0.258379 0.159467
H12   H     H_    0.149667 0.202770 0.302272 0.156632
H13   H     H_    0.265879 0.329307 0.392077 0.206784
H14   H     H_    0.120225 0.636531 0.589163 0.142474
H15   H     H_    0.754176 0.497312 0.252965 0.158647
H16   H     H_    0.644618 0.557711 0.994496 0.143655
H17   H     H_    0.236556 0.470170 0.887325 0.119912
H18   H     H_    0.314319 0.523978 0.119454 0.123339
H19   H     H_    0.246326 0.486455 0.747123 0.149780
H20   H     H_    0.359580 0.423327 0.004903 0.143575
H21   H     H_    0.689149 0.468221 0.878574 0.119652
N1    N     N_R   0.852190 0.498790 0.499250 -0.198374
N2    N     N_R   0.148060 0.498710 0.499220 -0.203625
O1    O     O_R   0.381190 0.680360 0.500010 -0.582835
O2    O     O_R   0.618760 0.680340 0.500000 -0.579361
O3    O     O_R   0.367440 0.500030 0.613600 -0.585927
O4    O     O_R   0.605010 0.500010 0.613590 -0.586303
O5    O     O_R   0.381240 0.319660 0.500000 -0.612150
O6    O     O_R   0.618810 0.319640 0.499990 -0.597437
O7    O     O_R   0.394990 0.499990 0.386410 -0.608882
O8    O     O_R   0.632560 0.499970 0.386400 -0.599497
C37   C     C_3   0.743685 0.121982 0.564085 -0.384434
C38   C     C_3   0.710880 0.182914 0.644659 -0.300811
C39   C     C_3   0.840392 0.247604 0.674278 -0.850316
H22   H     H_    0.928210 0.181816 0.674834 0.246367
H23   H     H_    0.873088 0.324306 0.636977 0.262081
H24   H     H_    0.816202 0.285474 0.734082 0.236155
H25   H     H_    0.625870 0.251145 0.643855 0.224185
H26   H     H_    0.675127 0.111423 0.685288 0.208416
H27   H     H_    0.825357 0.051764 0.569991 0.172999
H28   H     H_    0.794812 0.186833 0.523741 0.221231

loop_
_geom_bond_atom_site_label_1
_geom_bond_atom_site_label_2
_ccdc_geom_bond_type
C16   C21   A    
C37   H27   S    
C35   C36   A    
C13   H5    S    
C1    O1    A    
Cu1   O1    S    
C2    H19   S    
C26   C27   A    
C33   H1    S    
C23   O5    A    
C5    H15   S    
C18   C19   A    
C3    C7    A    
C5    C6    A    
C12   O3    A    
C15   C16   A    
Cu1   O7    S    
C11   H4    S    
C2    C32   A    
C34   C35   A    
C23   O6    A    
C25   H12   S    
C27   N2    A    
C8    H20   S    
C10   C31   S    
C19   C20   A    
C16   C17   A    
Cu2   O4    S    
C37   C38   S    
C29   C30   A    
C22   H9    S    
Cu2   O8    S    
C22   C28   A    
C13   C14   A    
C12   C32   S    
C20   C37   S    
C39   H24   S    
C1    O2    A    
C33   C34   A    
C28   N1    A    
C31   O7    A    
C24   H10   S    
C24   C25   A    
C39   H23   S    
C8    C9    D    
C25   C26   A    
C8    C35   S    
Cu1   Cu2   S    
C3    H18   S    
C29   N1    A    
C31   O8    A    
Cu1   O5    S    
C17   C18   A    
C1    C18   S    
C20   C21   A    
Cu2   N1    S    
C21   C23   S    
C34   H21   S    
C6    H2    S    
C15   H7    S    
C4    C10   A    
C3    C4    A    
C38   H26   S    
Cu1   O3    S    
C14   H6    S    
Cu2   O2    S    
C2    C36   A    
C7    C9    S    
C30   H14   S    
C11   C17   A    
C37   H28   S    
C39   H22   S    
Cu1   N2    S    
C6    C7    A    
C12   O4    A    
C4    H11   S    
C29   H8    S    
C32   C33   A    
C38   C39   S    
C36   H17   S    
C26   H13   S    
C11   C13   A    
C38   H25   S    
C22   C24   A    
C5    C10   A    
Cu2   O6    S    
C30   N2    A    
C27   C28   A    
C14   C15   A    
C9    H16   S    
C19   H3    S    
