data_mof_unit_39833.cif
_audit_creation_date              2012-12-10T18:33:46-0500
_audit_creation_method            fapswitch 2.2
_symmetry_space_group_name_H-M    P1
_symmetry_Int_Tables_number       1
_space_group_crystal_system       triclinic
_cell_length_a                    10.538361
_cell_length_b                    15.032549
_cell_length_c                    15.387509
_cell_angle_alpha                 82.2374
_cell_angle_beta                  89.609778
_cell_angle_gamma                 104.541858
_cell_volume                      2335.84187464

loop_
_atom_site_label
_atom_site_type_symbol
_atom_type_description
_atom_site_fract_x
_atom_site_fract_y
_atom_site_fract_z
_atom_type_partial_charge
C1    C     C_R   0.481601 0.441527 0.662592 0.904389
C2    C     C_R   0.398249 0.473269 0.049444 0.046874
C3    C     C_R   0.377981 0.378140 0.082327 -0.277987
C4    C     C_R   0.375829 0.589499 0.928855 -0.274219
C5    C     C_R   0.372421 0.311746 0.025877 0.460948
C6    C     C_R   0.389575 0.656808 0.985501 0.473025
C7    C     C_R   0.713178 0.847889 0.627344 0.359235
C8    C     C_R   0.288959 0.152784 0.370702 0.347957
C9    C     C_R   0.669268 0.755404 0.611417 0.371307
C10   C     C_R   0.330563 0.244751 0.388601 0.364463
C11   C     C_R   0.514872 0.794257 0.511512 -0.094383
C12   C     C_R   0.516416 0.558445 0.337220 0.910492
C13   C     C_R   0.486775 0.206021 0.487094 -0.072424
C14   C     C_R   0.547297 0.887229 0.529112 -0.116266
C15   C     C_R   0.455468 0.113450 0.468385 -0.116401
C16   C     C_R   0.742440 0.501131 0.498982 0.997268
C17   C     C_R   0.257599 0.498927 0.500875 1.009743
C18   C     C_R   0.652728 0.914877 0.585097 -0.017640
C19   C     C_R   0.350297 0.085947 0.412176 -0.011251
C20   C     C_R   0.479947 0.953289 0.491451 0.080916
C21   C     C_R   0.523531 0.047551 0.505354 0.081569
C22   C     C_R   0.635554 0.073915 0.554443 -0.310610
C23   C     C_R   0.431416 0.464665 0.811914 -0.216453
C24   C     C_R   0.368534 0.927093 0.441762 -0.307591
C25   C     C_R   0.698090 0.009293 0.595892 0.539636
C26   C     C_R   0.305979 0.991733 0.400410 0.538707
C27   C     C_3   0.932695 0.429402 0.459088 -0.321855
C28   C     C_3   0.067449 0.570751 0.540510 -0.319131
C29   C     C_3   0.009840 0.419034 0.543114 0.362062
C30   C     C_3   0.990300 0.581128 0.456491 0.365867
C31   C     C_3   0.122535 0.498560 0.500806 -0.279590
C32   C     C_3   0.877587 0.501591 0.498817 -0.278542
C33   C     C_3   0.047201 0.510007 0.417385 0.382527
C34   C     C_R   0.475805 0.525457 0.187660 -0.185905
C35   C     C_3   0.952980 0.490158 0.582208 0.371103
C36   C     C_R   0.456989 0.404620 0.756283 -0.157007
C37   C     C_R   0.503105 0.592491 0.244042 -0.169793
C38   C     C_R   0.413013 0.279852 0.878799 -0.084558
C39   C     C_R   0.454934 0.704059 0.127684 -0.072477
C40   C     C_R   0.450192 0.311122 0.790632 0.445533
C41   C     C_R   0.496869 0.684332 0.212432 0.430430
C42   C     C_R   0.400452 0.435264 0.901360 0.039336
C43   C     C_R   0.429499 0.543480 0.104082 0.051611
C44   C     C_R   0.393063 0.341453 0.935372 0.006601
C45   C     C_R   0.423293 0.635091 0.072434 0.009770
C46   C     C_R   0.389591 0.499349 0.958828 0.049770
Cl1   Cl    Cl    0.025965 0.311583 0.600670 -0.522090
Cl2   Cl    Cl    0.974294 0.688644 0.399013 -0.534909
Cl3   Cl    Cl    0.259465 0.330069 0.334436 -0.560616
Cl4   Cl    Cl    0.736594 0.669583 0.668673 -0.516032
Cl5   Cl    Cl    0.114443 0.524397 0.308257 -0.486971
Cl6   Cl    Cl    0.886072 0.475882 0.691366 -0.497132
H1    H     H_    0.556369 0.230641 0.534698 0.166594
H2    H     H_    0.450923 0.774606 0.104556 0.225666
H3    H     H_    0.364846 0.354014 0.151879 0.185453
H4    H     H_    0.351611 0.608418 0.862021 0.148501
H5    H     H_    0.865775 0.828706 0.692541 0.382600
H6    H     H_    0.139287 0.172975 0.302111 0.382031
H7    H     H_    0.342747 0.210031 0.123004 0.366351
H8    H     H_    0.354021 0.748964 0.893489 0.352634
H9    H     H_    0.610802 0.750674 0.292277 0.363228
H10   H     H_    0.557603 0.283545 0.700987 0.350414
H11   H     H_    0.823902 0.106020 0.647128 0.367327
H12   H     H_    0.445581 0.769397 0.463835 0.187293
H13   H     H_    0.181446 0.895260 0.347975 0.367952
H14   H     H_    0.679128 0.145403 0.560737 0.152632
H15   H     H_    0.325445 0.855743 0.434788 0.159566
H16   H     H_    0.875518 0.371995 0.425777 0.220937
H17   H     H_    0.124629 0.628140 0.573843 0.218713
H18   H     H_    0.493491 0.458587 0.209696 0.188487
H19   H     H_    0.442428 0.536222 0.784838 0.192172
H20   H     H_    0.408597 0.208192 0.903926 0.228247
N1    N     N_R   0.574200 0.731700 0.552740 -0.151602
N2    N     N_R   0.425800 0.268300 0.447260 -0.142284
O1    O     O_R   0.462600 0.383110 0.605620 -0.605378
O2    O     O_3   0.191883 0.126960 0.312073 -0.656524
O3    O     O_3   0.354917 0.218845 0.058154 -0.728901
O4    O     O_3   0.376642 0.745043 0.956097 -0.733877
O5    O     O_3   0.530548 0.756357 0.261333 -0.730316
O6    O     O_3   0.483056 0.249151 0.741808 -0.719138
O7    O     O_3   0.806321 0.038373 0.645157 -0.639331
O8    O     O_3   0.198359 0.962759 0.350580 -0.639540
O9    O     O_R   0.537400 0.616890 0.394380 -0.611568
O10   O     O_R   0.510210 0.531900 0.639510 -0.574007
O11   O     O_R   0.489790 0.468100 0.360490 -0.577169
O12   O     O_R   0.662240 0.425610 0.483080 -0.648837
O13   O     O_R   0.337760 0.574390 0.516920 -0.642742
O14   O     O_R   0.709860 0.574400 0.516970 -0.529326
O15   O     O_R   0.290140 0.425600 0.483030 -0.520749
O16   O     O_3   0.811583 0.873894 0.684970 -0.639589
Zn1   Zn    Zn3+2 0.468210 0.400660 0.477370 1.044931
Zn2   Zn    Zn3+2 0.531790 0.599340 0.522630 1.039844

loop_
_geom_bond_atom_site_label_1
_geom_bond_atom_site_label_2
_ccdc_geom_bond_type
C25   O7    S    
C6    C45   A    
C27   C29   S    
C34   C37   A    
C14   C18   A    
C28   H17   S    
H7    O3    S    
O11   Zn1   S    
H6    O2    S    
C39   C41   A    
C4    C46   A    
C27   C33   S    
C1    O10   A    
C15   C19   A    
O9    Zn2   S    
H8    O4    S    
C23   C42   A    
C9    N1    A    
C12   O11   A    
H11   O7    S    
C30   Cl2   S    
C24   C26   A    
O12   Zn1   S    
C11   C14   A    
C6    O4    S    
C39   H2    S    
C8    O2    S    
C42   C46   A    
C12   C37   S    
C19   C26   A    
C20   C24   A    
C22   H14   S    
C27   H16   S    
C24   H15   S    
C3    H3    S    
O14   Zn2   S    
C28   C35   S    
C22   C25   A    
C40   O6    S    
O15   Zn1   S    
C34   H18   S    
O1    Zn1   S    
C39   C45   A    
C26   O8    S    
O13   Zn2   S    
C4    H4    S    
C16   O12   A    
C18   C25   A    
C42   C44   A    
C13   H1    S    
C38   H20   S    
C8    C19   A    
H5    O16   S    
C9    Cl4   S    
C1    O1    A    
C32   C35   S    
C23   H19   S    
C36   C40   A    
C17   O15   A    
C4    C6    A    
C11   H12   S    
C11   N1    A    
C7    O16   S    
C2    C46   A    
C12   O9    A    
N2    Zn1   S    
C38   C44   A    
C30   C32   S    
C14   C20   A    
C2    C43   A    
C7    C18   A    
C31   C33   S    
C13   N2    A    
C43   C45   A    
C5    C44   A    
C29   Cl1   S    
C13   C15   A    
C17   C31   S    
C16   C32   S    
C5    O3    S    
H10   O6    S    
C7    C9    A    
C30   C33   S    
C27   C32   S    
C17   O13   A    
C28   C31   S    
C34   C43   A    
N1    Zn2   S    
C3    C5    A    
C41   O5    S    
C33   Cl5   S    
C29   C35   S    
C28   C30   S    
C2    C3    A    
C29   C31   S    
C38   C40   A    
C10   N2    A    
H13   O8    S    
H9    O5    S    
C37   C41   A    
C15   C21   A    
C20   C21   A    
C8    C10   A    
C23   C36   A    
C35   Cl6   S    
C16   O14   A    
O10   Zn2   S    
C21   C22   A    
C10   Cl3   S    
C1    C36   S    
