data_mof_unit_37649.cif
_audit_creation_date              2012-10-26T19:08:24-0400
_audit_creation_method            fapswitch 2.2
_symmetry_space_group_name_H-M    P1
_symmetry_Int_Tables_number       1
_space_group_crystal_system       triclinic
_cell_length_a                    14.692043
_cell_length_b                    14.630799
_cell_length_c                    19.339174
_cell_angle_alpha                 76.40984
_cell_angle_beta                  102.666966
_cell_angle_gamma                 115.383342
_cell_volume                      3617.1760469

loop_
_atom_site_label
_atom_site_type_symbol
_atom_type_description
_atom_site_fract_x
_atom_site_fract_y
_atom_site_fract_z
_atom_type_partial_charge
C1    C     C_R   0.880156 0.311192 0.512128 0.561152
C2    C     C_R   0.292354 0.823623 0.494350 -0.139328
C3    C     C_R   0.644498 0.066185 0.536067 -0.048275
C4    C     C_R   0.365192 0.912908 0.519827 -0.049440
C5    C     C_R   0.682204 0.991536 0.537916 -0.034866
C6    C     C_R   0.330792 0.984288 0.531664 -0.038789
C7    C     C_R   0.540631 0.035114 0.542520 -0.081460
C8    C     C_R   0.471177 0.934317 0.532317 -0.076840
C9    C     C_R   0.511432 0.858869 0.538858 0.297909
C10   C     C_R   0.504916 0.099332 0.563565 0.301076
C11   C     C_R   0.615889 0.888394 0.541544 0.402008
C12   C     C_R   0.119993 0.688440 0.488802 0.542587
C13   C     C_R   0.400945 0.075166 0.555789 0.400057
C14   C     C_R   0.708639 0.653966 0.367580 0.264553
C15   C     C_R   0.298396 0.355640 0.633941 0.272947
C16   C     C_R   0.000451 0.501376 0.632261 0.551813
C17   C     C_R   0.999750 0.498848 0.367907 0.570111
C18   C     C_R   0.796083 0.633861 0.395328 -0.022710
C19   C     C_R   0.207394 0.368054 0.605250 -0.016817
C20   C     C_R   0.715610 0.514039 0.491805 0.573965
C21   C     C_R   0.285076 0.491173 0.508956 0.545855
C22   C     C_R   0.630987 0.542307 0.473243 -0.055545
C23   C     C_R   0.813904 0.200496 0.521558 -0.004194
C24   C     C_R   0.373511 0.469398 0.527811 -0.064052
C25   C     C_R   0.623526 0.603643 0.405631 -0.010938
C26   C     C_R   0.383552 0.410180 0.596102 -0.014086
C27   C     C_R   0.550764 0.505676 0.516518 -0.033717
C28   C     C_R   0.454923 0.510652 0.484730 -0.033026
C29   C     C_R   0.442345 0.552261 0.410425 0.334585
C30   C     C_R   0.565760 0.469237 0.591283 0.349033
C31   C     C_R   0.528553 0.605011 0.373767 0.408768
C32   C     C_R   0.480554 0.415954 0.628934 0.415346
C33   C     C_R   0.043676 0.444939 0.761485 -0.187954
C34   C     C_R   0.188415 0.796525 0.491899 -0.016742
C35   C     C_R   0.982900 0.576031 0.240446 -0.193088
C36   C     C_R   0.047898 0.446336 0.834270 0.210317
C37   C     C_R   0.981528 0.577946 0.167438 0.209898
C38   C     C_R   0.005329 0.505084 0.854167 -0.000730
C39   C     C_R   0.001377 0.502826 0.146746 0.008632
C40   C     C_R   0.964245 0.565630 0.800087 0.340468
C41   C     C_R   0.017743 0.424468 0.198922 0.346344
C42   C     C_R   0.965014 0.567715 0.727519 0.241196
C43   C     C_R   0.018897 0.422736 0.271888 0.262144
C44   C     C_R   0.002276 0.504632 0.707951 -0.095217
C45   C     C_R   0.786124 0.020952 0.536912 -0.074285
C46   C     C_R   0.000568 0.498763 0.292419 -0.070325
C47   C     C_R   0.002634 0.504017 0.070721 0.394749
C48   C     C_R   0.004259 0.504388 0.930679 0.380067
C49   C     C_3   0.743305 0.714195 0.250341 -0.073631
C50   C     C_3   0.282917 0.313544 0.753945 -0.057164
C51   C     C_3   0.327412 0.602906 0.322668 0.003197
C52   C     C_3   0.684360 0.429624 0.682236 0.063727
C53   C     C_3   0.190674 0.420578 0.888913 -0.077778
C54   C     C_3   0.872141 0.654618 0.112084 -0.072510
C55   C     C_3   0.002039 0.726782 0.662696 -0.012997
C56   C     C_R   0.226211 0.962135 0.521597 -0.084693
C57   C     C_3   0.122522 0.342449 0.335861 -0.041341
C58   C     C_3   0.017629 0.889511 0.431389 -0.100604
C59   C     C_3   0.974535 0.131725 0.469931 -0.090049
C60   C     C_3   0.438682 0.717745 0.619256 -0.074763
C61   C     C_3   0.595571 0.141556 0.670825 -0.083984
C62   C     C_R   0.852502 0.124712 0.528777 0.250239
C63   C     C_R   0.154616 0.868667 0.501788 0.230521
C64   C     C_R   0.710356 0.170287 0.523931 -0.131089
Cu1   Cu    Cu3+1 0.081740 0.475680 0.518680 1.029744
Cu2   Cu    Cu3+1 0.918260 0.524320 0.481320 1.058659
F1    F     F_    0.516997 0.645143 0.303187 -0.612009
F2    F     F_    0.493884 0.381224 0.700435 -0.621890
F3    F     F_    0.284203 0.573659 0.460082 -0.601016
F4    F     F_    0.713822 0.432146 0.542531 -0.599205
F5    F     F_    0.925070 0.625173 0.817079 -0.582668
F6    F     F_    0.027902 0.346648 0.178891 -0.592337
F7    F     F_    0.651843 0.815247 0.546341 -0.608367
F8    F     F_    0.368940 0.140013 0.573664 -0.606817
H1    H     H_    0.071291 0.395190 0.746873 0.148561
H2    H     H_    0.827618 0.751431 0.256020 0.081720
H3    H     H_    0.714200 0.752720 0.199459 0.172123
H4    H     H_    0.200119 0.291566 0.751780 0.088488
H5    H     H_    0.325869 0.396821 0.756799 0.111708
H6    H     H_    0.307884 0.270853 0.804415 0.173478
H7    H     H_    0.339132 0.601574 0.268206 0.178038
H8    H     H_    0.374102 0.679653 0.339029 0.180124
H9    H     H_    0.246458 0.589891 0.319057 0.137294
H10   H     H_    0.634656 0.350048 0.673030 0.172901
H11   H     H_    0.678030 0.441700 0.735252 0.183341
H12   H     H_    0.972091 0.636176 0.256886 0.134710
H13   H     H_    0.763540 0.438794 0.683655 0.169872
H14   H     H_    0.220042 0.373981 0.934467 0.166553
H15   H     H_    0.227857 0.501446 0.898791 0.128874
H16   H     H_    0.212484 0.414198 0.839312 0.080078
H17   H     H_    0.812392 0.576903 0.105607 0.131692
H18   H     H_    0.859273 0.708529 0.063940 0.169300
H19   H     H_    0.864207 0.679876 0.159449 0.085701
H20   H     H_    0.969124 0.776018 0.622404 0.200382
H21   H     H_    0.064359 0.724223 0.640250 0.106889
H22   H     H_    0.033015 0.763069 0.712016 0.150059
H23   H     H_    0.140433 0.325672 0.631975 0.154521
H24   H     H_    0.118195 0.262850 0.349853 0.128265
H25   H     H_    0.163728 0.381076 0.383117 0.182596
H26   H     H_    0.167306 0.380653 0.289910 0.170190
H27   H     H_    0.934908 0.868334 0.428368 0.161173
H28   H     H_    0.028471 0.860043 0.387012 0.122381
H29   H     H_    0.055783 0.974641 0.423939 0.103592
H30   H     H_    0.057893 0.165355 0.469169 0.147150
H31   H     H_    0.939924 0.167740 0.420135 0.167085
H32   H     H_    0.947133 0.048068 0.470398 0.108567
H33   H     H_    0.398893 0.754948 0.638453 0.098334
H34   H     H_    0.863711 0.673201 0.369192 0.122056
H35   H     H_    0.512858 0.728055 0.653536 0.156441
H36   H     H_    0.390689 0.634359 0.625076 0.142803
H37   H     H_    0.620401 0.077870 0.676253 0.103758
H38   H     H_    0.530269 0.115810 0.701045 0.165366
H39   H     H_    0.660709 0.202988 0.696107 0.128306
H40   H     H_    0.314432 0.773097 0.475931 0.232338
H41   H     H_    0.681020 0.229071 0.514028 0.224401
H42   H     H_    0.816376 0.963415 0.542686 0.187624
H43   H     H_    0.199271 0.015737 0.531293 0.185966
H44   H     H_    0.715907 0.631907 0.245353 0.111051
N1    N     N_R   0.937079 0.531579 0.950102 -0.131280
N2    N     N_R   0.069697 0.476604 0.051553 -0.152524
N3    N     N_R   0.936308 0.531510 0.018743 -0.180237
N4    N     N_R   0.070599 0.477060 0.982879 -0.174781
N5    N     N_R   0.795420 0.560800 0.453240 -0.250935
N6    N     N_R   0.204580 0.439200 0.546760 -0.271580
O1    O     O_R   0.977910 0.338110 0.524620 -0.455287
O2    O     O_3   0.302986 0.285623 0.695574 -0.465378
O3    O     O_3   0.344685 0.521894 0.372226 -0.567210
O4    O     O_3   0.664745 0.504583 0.627498 -0.488236
O5    O     O_3   0.084081 0.382052 0.885775 -0.520893
O6    O     O_3   0.970837 0.658341 0.116695 -0.527935
O7    O     O_3   0.924532 0.628280 0.675915 -0.488421
O8    O     O_3   0.022618 0.338757 0.321584 -0.552586
O9    O     O_3   0.052278 0.844801 0.498954 -0.571959
O10   O     O_3   0.955780 0.151694 0.532146 -0.543690
O11   O     O_3   0.451558 0.754975 0.546348 -0.523011
O12   O     O_R   0.022090 0.661890 0.475380 -0.474557
O13   O     O_3   0.570389 0.180798 0.598537 -0.523656
O14   O     O_R   0.839850 0.379180 0.493080 -0.464738
O15   O     O_R   0.160150 0.620820 0.506920 -0.453973
O16   O     O_R   0.069040 0.479450 0.615630 -0.542067
O17   O     O_R   0.930960 0.520550 0.384370 -0.533012
O18   O     O_R   0.930990 0.520520 0.584090 -0.402343
O19   O     O_R   0.069010 0.479480 0.415910 -0.443435
O20   O     O_3   0.707255 0.727828 0.307533 -0.486457

loop_
_geom_bond_atom_site_label_1
_geom_bond_atom_site_label_2
_ccdc_geom_bond_type
C25   C31   A    
C7    C10   A    
C30   C32   A    
C26   C32   A    
C40   F5    S    
C56   H43   S    
C14   C18   A    
C57   O8    S    
C16   O18   A    
C4    C8    A    
C50   H5    S    
C52   O4    S    
C60   O11   S    
C7    C8    A    
C39   C41   A    
Cu2   O17   S    
C3    C64   A    
C15   C19   A    
C59   H31   S    
C59   H30   S    
C63   O9    S    
C56   C63   A    
C28   C29   A    
C35   C37   A    
C1    O1    A    
C5    C11   A    
C3    C7    A    
C48   N4    A    
Cu1   O19   S    
C35   H12   S    
C47   N3    A    
C57   H25   S    
C49   O20   S    
C45   C62   A    
C33   C36   A    
C37   O6    S    
C17   O17   A    
Cu1   N6    S    
C52   H10   S    
C54   H19   S    
C60   H35   S    
Cu1   O16   S    
C33   H1    S    
C23   C62   A    
C8    C9    A    
C20   N5    A    
C22   C25   A    
C42   O7    S    
C50   O2    S    
C10   O13   S    
C16   C44   S    
C38   C48   S    
C18   N5    A    
C32   F2    S    
C2    C34   A    
C40   C42   A    
C64   H41   S    
C27   C30   A    
C41   C43   A    
C20   F4    S    
C16   O16   A    
C42   C44   A    
C55   H20   S    
C50   H4    S    
N2    N4    A    
C48   N1    A    
C14   O20   S    
N1    N3    A    
C58   O9    S    
C19   H23   S    
C54   O6    S    
C30   O4    S    
C19   N6    A    
C49   H2    S    
C59   H32   S    
C23   C64   A    
C17   C46   S    
C55   H21   S    
C11   F7    S    
C6    C56   A    
C61   H38   S    
C15   C26   A    
C57   H26   S    
C5    C45   A    
C15   O2    S    
C21   F3    S    
Cu1   O1    S    
C2    C4    A    
C54   H18   S    
C49   H44   S    
Cu2   O14   S    
C12   O15   A    
C58   H27   S    
C9    C11   A    
C51   H8    S    
C60   H33   S    
C41   F6    S    
C58   H28   S    
C9    O11   S    
C4    C6    A    
C47   N2    A    
C20   C22   A    
C1    C23   S    
C55   O7    S    
C22   C27   A    
C29   O3    S    
C53   H15   S    
Cu2   O12   S    
C53   O5    S    
C12   C34   S    
C61   H37   S    
C51   H9    S    
C53   H16   S    
C39   C47   S    
C51   H7    S    
C52   H11   S    
C33   C44   A    
C52   H13   S    
C24   C28   A    
C24   C26   A    
C55   H22   S    
C3    C5    A    
C10   C13   A    
C50   H6    S    
Cu2   O18   S    
C59   O10   S    
C17   O19   A    
C51   O3    S    
C62   O10   S    
C21   N6    A    
C36   C38   A    
C54   H17   S    
C37   C39   A    
C36   O5    S    
C6    C13   A    
C38   C40   A    
C2    H40   S    
C45   H42   S    
C61   O13   S    
C57   H24   S    
C34   C63   A    
C49   H3    S    
C43   O8    S    
C53   H14   S    
C14   C25   A    
C43   C46   A    
C18   H34   S    
C60   H36   S    
C31   F1    S    
C61   H39   S    
Cu1   O15   S    
C13   F8    S    
C29   C31   A    
Cu1   Cu2   S    
C12   O12   A    
C21   C24   A    
C27   C28   A    
Cu2   N5    S    
C58   H29   S    
C35   C46   A    
C1    O14   A    
