data_mof_unit_43683.cif
_audit_creation_date              2012-12-10T18:18:15-0500
_audit_creation_method            fapswitch 2.2
_symmetry_space_group_name_H-M    P1
_symmetry_Int_Tables_number       1
_space_group_crystal_system       triclinic
_cell_length_a                    14.026361
_cell_length_b                    15.012283
_cell_length_c                    15.489366
_cell_angle_alpha                 90.037755
_cell_angle_beta                  67.684266
_cell_angle_gamma                 90.020445
_cell_volume                      3017.28652898

loop_
_atom_site_label
_atom_site_type_symbol
_atom_type_description
_atom_site_fract_x
_atom_site_fract_y
_atom_site_fract_z
_atom_type_partial_charge
C1    C     C_R   0.500124 0.673517 0.499683 0.902186
C2    C     C_R   0.500353 0.769398 0.499152 -0.078267
C3    C     C_R   0.586303 0.184826 0.501306 -0.253019
C4    C     C_R   0.413855 0.815152 0.498307 -0.251734
C5    C     C_R   0.587105 0.092690 0.500936 0.117483
C6    C     C_R   0.413106 0.907286 0.498550 0.117255
C7    C     C_R   0.499998 0.046329 0.499998 0.062034
C8    C     C_R   0.500223 0.953648 0.499464 0.061991
C9    C     C_R   0.412662 0.092633 0.499608 0.116265
C10   C     C_R   0.587541 0.907343 0.499898 0.116547
C11   C     C_R   0.673499 0.046320 0.501336 -0.211029
C12   C     C_R   0.499898 0.326478 0.500262 0.902410
C13   C     C_R   0.326729 0.953654 0.498109 -0.210557
C14   C     C_R   0.673734 0.953769 0.500774 -0.205661
C15   C     C_R   0.326487 0.046205 0.498687 -0.205218
C16   C     C_R   0.435691 0.501477 0.676296 0.889763
C17   C     C_R   0.564268 0.500796 0.323704 0.889567
C18   C     C_R   0.179001 0.441786 0.555500 -0.043479
C19   C     C_R   0.821075 0.558040 0.444256 -0.043728
C20   C     C_R   0.225601 0.558487 0.444676 -0.048402
C21   C     C_R   0.774200 0.442019 0.555836 -0.045476
C22   C     C_R   0.125369 0.560841 0.442740 0.000027
C23   C     C_R   0.370823 0.529392 0.109040 -0.234896
C24   C     C_R   0.874343 0.439887 0.557961 0.000173
C25   C     C_R   0.050515 0.500258 0.500069 0.019906
C26   C     C_R   0.949365 0.500105 0.500214 0.018278
C27   C     C_R   0.077178 0.439941 0.557481 -0.064763
C28   C     C_R   0.922793 0.560174 0.442544 -0.064108
C29   C     C_R   0.098715 0.621973 0.385457 0.146248
C30   C     C_R   0.900639 0.379444 0.616028 0.150864
C31   C     C_R   0.997495 0.620756 0.385126 0.000716
C32   C     C_R   0.002312 0.379688 0.615268 0.001521
C33   C     C_R   0.395119 0.510901 0.777743 -0.083671
C34   C     C_R   0.606239 0.588765 0.905289 -0.229960
C35   C     C_R   0.603360 0.514116 0.222892 -0.085657
C36   C     C_R   0.255825 0.507509 0.929732 0.006795
C37   C     C_R   0.729727 0.573142 0.079529 0.005712
C38   C     C_R   0.290286 0.501337 0.832542 -0.226275
C39   C     C_R   0.702354 0.546915 0.172577 -0.223390
C40   C     C_R   0.464551 0.531185 0.819429 -0.262589
C41   C     C_R   0.533048 0.505719 0.179981 -0.258588
C42   C     C_R   0.432739 0.540149 0.915802 0.081656
C43   C     C_R   0.553985 0.539578 0.091060 0.081326
C44   C     C_R   0.327471 0.524367 0.972242 0.114109
C45   C     C_R   0.297469 0.523367 0.069316 -0.215371
C46   C     C_R   0.655348 0.569883 0.038043 0.111661
C47   C     C_R   0.505471 0.557190 0.957076 0.081109
C48   C     C_R   0.476512 0.541383 0.053308 0.083685
C49   C     C_3   0.178388 0.688439 0.325993 -0.915660
C50   C     C_3   0.819710 0.315387 0.678230 -0.912194
C51   C     C_1   0.969948 0.681765 0.325705 0.137886
C52   C     C_1   0.030180 0.317942 0.673863 0.138991
C53   C     C_1   0.147558 0.492974 0.983883 0.157965
C54   C     C_1   0.832995 0.606102 0.029781 0.161794
C55   C     C_R   0.679086 0.596375 0.945578 -0.218624
C56   C     C_R   0.413151 0.184772 0.499988 -0.249050
C57   C     C_R   0.586992 0.815208 0.499662 -0.249654
C58   C     C_R   0.499749 0.230585 0.500595 -0.079656
H1    H     H_    0.217723 0.514009 0.115258 0.164696
H2    H     H_    0.235939 0.486777 0.799933 0.165841
H3    H     H_    0.342184 0.526862 0.184226 0.146763
H4    H     H_    0.629809 0.611306 0.834045 0.150833
H5    H     H_    0.346170 0.220612 0.499619 0.164853
H6    H     H_    0.653944 0.779368 0.500100 0.164361
H7    H     H_    0.653152 0.220706 0.502000 0.161558
H8    H     H_    0.346991 0.779270 0.497648 0.161411
H9    H     H_    0.740633 0.081587 0.502055 0.149554
H10   H     H_    0.259595 0.918385 0.497391 0.149490
H11   H     H_    0.741036 0.918547 0.501090 0.152315
H12   H     H_    0.754759 0.621500 0.902977 0.160989
H13   H     H_    0.259177 0.081426 0.498389 0.152649
H14   H     H_    0.245518 0.652419 0.275608 0.235143
H15   H     H_    0.149853 0.733770 0.284795 0.260588
H16   H     H_    0.204330 0.731039 0.371547 0.232683
H17   H     H_    0.753644 0.353640 0.727497 0.239556
H18   H     H_    0.792416 0.271488 0.634591 0.230900
H19   H     H_    0.847531 0.271324 0.720982 0.259114
H20   H     H_    0.202935 0.397080 0.598177 0.142127
H21   H     H_    0.797208 0.602540 0.401361 0.141377
H22   H     H_    0.285617 0.603005 0.402323 0.150926
H23   H     H_    0.714111 0.397652 0.598340 0.151121
H24   H     H_    0.460792 0.472879 0.218056 0.161858
H25   H     H_    0.545152 0.535239 0.775552 0.164237
H26   H     H_    0.757109 0.554067 0.206197 0.166389
N1    N     N_R   0.249980 0.499930 0.499960 -0.107795
N2    N     N_R   0.750020 0.500070 0.500040 -0.108615
N3    N     N_1   0.947818 0.730335 0.278344 -0.202743
N4    N     N_1   0.052580 0.268744 0.720528 -0.205190
N5    N     N_1   0.060936 0.481173 0.027295 -0.186266
N6    N     N_1   0.915612 0.632639 0.989943 -0.182861
O1    O     O_R   0.419720 0.632140 0.499980 -0.626056
O2    O     O_R   0.580280 0.367860 0.500020 -0.625615
O3    O     O_R   0.580270 0.632160 0.499970 -0.627359
O4    O     O_R   0.419730 0.367840 0.500030 -0.626117
O5    O     O_R   0.373870 0.499980 0.632250 -0.614270
O6    O     O_R   0.626130 0.500020 0.367750 -0.613919
O7    O     O_R   0.534420 0.500000 0.632240 -0.624056
O8    O     O_R   0.465580 0.500000 0.367760 -0.621707
Zn1   Zn    Zn3+2 0.392800 0.499980 0.500010 0.943497
Zn2   Zn    Zn3+2 0.607200 0.500020 0.499990 0.942492

loop_
_geom_bond_atom_site_label_1
_geom_bond_atom_site_label_2
_ccdc_geom_bond_type
C30   C32   A    
C23   C45   A    
C22   C29   A    
C2    C4    A    
C19   N2    A    
C2    C57   A    
C7    C8    A    
C29   C49   S    
C31   C51   S    
C24   C26   A    
C39   H26   S    
C5    C11   A    
C11   C14   A    
O5    Zn1   S    
C16   O7    A    
C34   H4    S    
C1    C2    S    
C32   C52   S    
C36   C53   S    
C22   C25   A    
C46   C55   A    
N2    Zn2   S    
C17   O8    A    
C12   C58   S    
C40   C42   A    
C30   C50   S    
C34   C55   A    
C1    O1    A    
C41   C43   A    
C40   H25   S    
C12   O4    A    
C3    H7    S    
C42   C44   A    
C11   H9    S    
C37   C39   A    
C18   N1    A    
C20   H22   S    
C33   C40   A    
C52   N4    T    
C10   C57   A    
C4    C6    A    
C10   C14   A    
C51   N3    T    
C17   O6    A    
C6    C8    A    
C25   C26   A    
C49   H14   S    
C35   C39   A    
N1    Zn1   S    
C50   H18   S    
C16   C33   S    
C47   C48   A    
C18   H20   S    
C20   N1    A    
C56   H5    S    
C9    C56   A    
C19   H21   S    
C19   C28   A    
O3    Zn2   S    
C38   H2    S    
C37   C54   S    
C8    C10   A    
C21   H23   S    
C13   C15   A    
C53   N5    T    
C14   H11   S    
C49   H15   S    
C36   C44   A    
C50   H19   S    
O7    Zn2   S    
C44   C45   A    
O2    Zn2   S    
C57   H6    S    
C5    C7    A    
C43   C48   A    
C7    C9    A    
C21   N2    A    
C45   H1    S    
C16   O5    A    
C23   C48   A    
C27   C32   A    
C12   O2    A    
C28   C31   A    
C18   C27   A    
C20   C22   A    
C3    C5    A    
C54   N6    T    
C25   C27   A    
C15   H13   S    
C26   C28   A    
C33   C38   A    
C36   C38   A    
C9    C15   A    
C29   C31   A    
C50   H17   S    
C6    C13   A    
C4    H8    S    
O4    Zn1   S    
C41   H24   S    
O6    Zn2   S    
C56   C58   A    
C42   C47   A    
C35   C41   A    
C43   C46   A    
C24   C30   A    
C55   H12   S    
C3    C58   A    
C23   H3    S    
C1    O3    A    
O8    Zn1   S    
C21   C24   A    
C49   H16   S    
C34   C47   A    
C17   C35   S    
O1    Zn1   S    
C37   C46   A    
C13   H10   S    
