data_mof_unit_64481.cif
_audit_creation_date              2012-12-10T17:19:23-0500
_audit_creation_method            fapswitch 2.2
_symmetry_space_group_name_H-M    P1
_symmetry_Int_Tables_number       1
_space_group_crystal_system       triclinic
_cell_length_a                    18.717342
_cell_length_b                    18.703449
_cell_length_c                    18.803383
_cell_angle_alpha                 109.368413
_cell_angle_beta                  109.530348
_cell_angle_gamma                 109.188052
_cell_volume                      5087.64282346

loop_
_atom_site_label
_atom_site_type_symbol
_atom_type_description
_atom_site_fract_x
_atom_site_fract_y
_atom_site_fract_z
_atom_type_partial_charge
C1    C     C_R   0.381096 0.381060 0.500045 0.780481
C2    C     C_3   0.809841 0.504243 0.812756 0.121980
C3    C     C_3   0.844594 0.592744 0.811670 -0.109746
C4    C     C_3   0.727609 0.484095 0.823091 -0.373421
C5    C     C_R   0.242778 0.322371 0.501048 -0.176973
C6    C     C_R   0.177820 0.257405 0.499382 -0.178011
C7    C     C_R   0.185672 0.185590 0.499685 -0.007288
C8    C     C_R   0.257784 0.178044 0.500117 -0.183634
C9    C     C_R   0.321254 0.241540 0.498810 -0.185029
C10   C     C_R   0.314167 0.314118 0.500023 -0.008759
C11   C     C_R   0.298422 0.571945 0.334466 -0.208523
C12   C     C_R   0.618694 0.499065 0.619295 0.762313
C13   C     C_R   0.235171 0.574182 0.271024 -0.003132
C14   C     C_R   0.183865 0.502365 0.185844 -0.042433
C15   C     C_R   0.196633 0.430190 0.165264 -0.199779
C16   C     C_R   0.261161 0.429472 0.228469 -0.172484
C17   C     C_R   0.312310 0.500314 0.313427 -0.046054
C18   C     C_R   0.757595 0.757099 0.579058 -0.182513
C19   C     C_R   0.822461 0.820456 0.579005 -0.176467
C20   C     C_R   0.814351 0.814044 0.500041 -0.010209
C21   C     C_R   0.742085 0.743365 0.421129 -0.180954
C22   C     C_R   0.678709 0.678516 0.421157 -0.177230
C23   C     C_R   0.619041 0.618918 0.500097 0.783831
C24   C     C_R   0.686020 0.685763 0.500118 -0.010112
C25   C     C_R   0.997846 0.381027 0.878850 0.783031
C26   C     C_R   0.878054 0.503210 0.880907 0.767662
C27   C     C_R   0.997237 0.619093 0.116366 0.801212
C28   C     C_R   0.116662 0.501057 0.117727 0.796279
C29   C     C_R   0.000772 0.881243 0.381966 0.776094
C30   C     C_R   0.118838 0.118724 0.499810 0.774863
C31   C     C_R   0.999177 0.118764 0.618038 0.779120
C32   C     C_R   0.881161 0.881022 0.499953 0.777037
C33   C     C_R   0.077489 0.321037 0.820102 -0.181304
C34   C     C_R   0.380023 0.499903 0.380390 0.794686
C35   C     C_R   0.077779 0.256160 0.757017 -0.177509
C36   C     C_R   0.998754 0.185842 0.684443 -0.010498
C37   C     C_R   0.919398 0.179833 0.675746 -0.177553
C38   C     C_R   0.919056 0.243207 0.740308 -0.181190
C39   C     C_R   0.998122 0.314175 0.812183 -0.009694
C40   C     C_R   0.036052 0.772593 0.201676 -0.155981
C41   C     C_R   0.036033 0.836455 0.265909 -0.212663
C42   C     C_R   0.001228 0.814893 0.315701 0.009329
C43   C     C_R   0.965456 0.729583 0.300931 -0.198447
C44   C     C_R   0.963057 0.665068 0.234886 -0.170796
C45   C     C_3   0.709970 0.428107 0.649776 -0.358192
C46   C     C_R   0.998394 0.686307 0.184865 -0.004407
C47   C     C_3   0.781296 0.430296 0.723058 -0.431386
C48   C     C_3   0.771084 0.589926 0.739277 -0.416254
C49   C     C_3   0.657042 0.484411 0.751538 -0.390939
C50   C     C_3   0.687671 0.499866 0.688199 0.142366
Cu1   Cu    Cu3+1 0.500370 0.438230 0.438520 0.931709
Cu2   Cu    Cu3+1 0.499630 0.561770 0.561480 0.934456
Cu3   Cu    Cu3+1 0.935490 0.438190 0.997300 0.938426
Cu4   Cu    Cu3+1 0.059110 0.561720 0.997220 0.925021
Cu5   Cu    Cu3+1 0.937870 0.999900 0.437760 0.942137
Cu6   Cu    Cu3+1 0.062130 0.999920 0.562070 0.937550
H1    H     H_    0.733201 0.438230 0.604774 0.173765
H2    H     H_    0.744206 0.530672 0.888666 0.152855
H3    H     H_    0.756197 0.642277 0.766146 0.175751
H4    H     H_    0.236701 0.378179 0.501621 0.138508
H5    H     H_    0.122359 0.263809 0.499408 0.138639
H6    H     H_    0.264078 0.122455 0.500007 0.133143
H7    H     H_    0.376497 0.234911 0.498356 0.132580
H8    H     H_    0.337901 0.627082 0.400018 0.157846
H9    H     H_    0.157200 0.374825 0.099892 0.133406
H10   H     H_    0.650548 0.362673 0.611725 0.167943
H11   H     H_    0.270436 0.373237 0.211133 0.152312
H12   H     H_    0.763852 0.762847 0.640385 0.135773
H13   H     H_    0.878055 0.875115 0.640317 0.139845
H14   H     H_    0.735584 0.737765 0.359783 0.138415
H15   H     H_    0.623341 0.623607 0.359849 0.138233
H16   H     H_    0.138891 0.375650 0.875716 0.137088
H17   H     H_    0.139443 0.261450 0.764016 0.139666
H18   H     H_    0.857991 0.125451 0.619942 0.139139
H19   H     H_    0.857420 0.237754 0.733607 0.133519
H20   H     H_    0.065685 0.790649 0.165434 0.156337
H21   H     H_    0.755893 0.366057 0.720366 0.170534
H22   H     H_    0.064291 0.902761 0.277752 0.120192
H23   H     H_    0.938411 0.712916 0.339581 0.125560
H24   H     H_    0.934734 0.599076 0.223766 0.148838
H25   H     H_    0.838147 0.440356 0.712578 0.158713
H26   H     H_    0.792956 0.602151 0.694104 0.138135
H27   H     H_    0.894470 0.595470 0.791226 0.132003
H28   H     H_    0.642683 0.535945 0.782012 0.173132
H29   H     H_    0.595493 0.420941 0.715096 0.151727
H30   H     H_    0.700155 0.418486 0.817206 0.182561
O1    O     O_R   0.410130 0.357660 0.448070 -0.587448
O2    O     O_R   0.049990 0.461930 0.907530 -0.586233
O3    O     O_R   0.854450 0.447820 0.906640 -0.593939
O4    O     O_R   0.958850 0.552130 0.906580 -0.599067
O5    O     O_R   0.944620 0.537990 0.086990 -0.595198
O6    O     O_R   0.049020 0.642300 0.086930 -0.587122
O7    O     O_R   0.035760 0.447780 0.087940 -0.580565
O8    O     O_R   0.140150 0.552090 0.087880 -0.593365
O9    O     O_R   0.948110 0.909780 0.357760 -0.582001
O10   O     O_R   0.053050 0.909790 0.462730 -0.590145
O11   O     O_R   0.037720 0.090080 0.447430 -0.585702
O12   O     O_R   0.409500 0.461990 0.551910 -0.585933
O13   O     O_R   0.142660 0.090100 0.552410 -0.587090
O14   O     O_R   0.946950 0.090030 0.537090 -0.586298
O15   O     O_R   0.051890 0.090040 0.642060 -0.585643
O16   O     O_R   0.857350 0.909730 0.447410 -0.586153
O17   O     O_R   0.962280 0.909740 0.552390 -0.586155
O18   O     O_R   0.590970 0.447820 0.538740 -0.595808
O19   O     O_R   0.590340 0.552140 0.642570 -0.594174
O20   O     O_R   0.590500 0.538010 0.448090 -0.585389
O21   O     O_R   0.589870 0.642340 0.551930 -0.584558
O22   O     O_R   0.409660 0.447860 0.357430 -0.589636
O23   O     O_R   0.409030 0.552180 0.461260 -0.590062
O24   O     O_R   0.945590 0.357610 0.907590 -0.584398
C51   C     C_R   0.889233 0.675839 0.898939 0.114869
C52   C     C_R   0.979728 0.732345 0.940472 -0.105785
C53   C     C_R   0.021336 0.811587 0.017060 -0.158748
C54   C     C_R   0.973442 0.835728 0.053451 -0.120858
C55   C     C_R   0.883936 0.780448 0.013572 -0.125252
C56   C     C_R   0.841862 0.701405 0.936611 -0.165312
H31   H     H_    0.018308 0.715648 0.913165 0.116458
H32   H     H_    0.090837 0.854405 0.048184 0.122065
H33   H     H_    0.005785 0.897135 0.112774 0.125872
H34   H     H_    0.846787 0.799466 0.041621 0.132364
H35   H     H_    0.771982 0.662429 0.905425 0.126328
C57   C     C_R   0.223645 0.651566 0.296466 0.074491
C58   C     C_R   0.188919 0.667671 0.351861 -0.171158
C59   C     C_R   0.183927 0.744071 0.381356 -0.119939
C60   C     C_R   0.213948 0.804923 0.356119 -0.094677
C61   C     C_R   0.247906 0.788950 0.300399 -0.148027
C62   C     C_R   0.253211 0.712720 0.270934 -0.103717
H36   H     H_    0.166560 0.621489 0.372759 0.132619
H37   H     H_    0.157178 0.756326 0.424100 0.137526
H38   H     H_    0.210537 0.864278 0.379439 0.130190
H39   H     H_    0.270877 0.836040 0.280715 0.121485
H40   H     H_    0.281711 0.702110 0.229596 0.135111

loop_
_geom_bond_atom_site_label_1
_geom_bond_atom_site_label_2
_ccdc_geom_bond_type
Cu3   O24   S    
C1    O1    A    
Cu5   Cu6   S    
C61   C62   A    
C29   C42   S    
C58   C59   A    
C41   C42   A    
C35   C36   A    
C37   H18   S    
C54   C55   A    
C7    C8    A    
Cu3   Cu4   S    
C26   O3    A    
C40   C46   A    
Cu5   O16   S    
C45   H1    S    
C33   C39   A    
C18   C24   A    
C5    C6    A    
C31   O15   A    
C49   H28   S    
C36   C37   A    
Cu6   O15   S    
C12   O18   A    
C31   C36   S    
C52   H31   S    
C4    H30   S    
C18   H12   S    
C15   C16   A    
C15   H9    S    
C3    C48   S    
C28   O8    A    
C18   C19   A    
C3    H27   S    
C57   C62   A    
C62   H40   S    
C33   H16   S    
C60   H38   S    
C11   C17   A    
C19   C20   A    
Cu2   O21   S    
C3    C51   S    
C8    C9    A    
Cu5   O14   S    
Cu3   O5    S    
C23   C24   S    
C27   O5    A    
C51   C56   A    
C9    C10   A    
C54   H33   S    
C5    H4    S    
C48   C50   S    
C7    C30   S    
C21   C22   A    
C52   C53   A    
C44   C46   A    
C38   H19   S    
C45   C47   S    
C38   C39   A    
C56   H35   S    
Cu3   O7    S    
Cu1   Cu2   S    
C49   H29   S    
C44   H24   S    
Cu5   O9    S    
C11   H8    S    
Cu1   O1    S    
C41   H22   S    
C29   O9    A    
C16   C17   A    
Cu1   O18   S    
C23   O20   A    
C30   O13   A    
C25   O2    A    
C40   H20   S    
C28   O7    A    
C2    C4    S    
C43   C44   A    
Cu4   O6    S    
C37   C38   A    
C30   O11   A    
C23   O21   A    
Cu5   O11   S    
C32   O17   A    
C27   O6    A    
C2    C26   S    
C16   H11   S    
C31   O14   A    
C25   O24   A    
C27   C46   S    
C40   C41   A    
Cu2   O19   S    
Cu1   O22   S    
Cu3   O3    S    
C60   C61   A    
C22   C24   A    
C19   H13   S    
C42   C43   A    
C47   H21   S    
C22   H15   S    
C6    H5    S    
C48   H3    S    
C53   C54   A    
C20   C32   S    
Cu6   O10   S    
C35   H17   S    
C51   C52   A    
C9    H7    S    
C1    C10   S    
Cu6   O17   S    
C1    O12   A    
C29   O10   A    
C12   C50   S    
C55   H34   S    
Cu4   O4    S    
C6    C7    A    
Cu2   O23   S    
C2    C47   S    
C26   O4    A    
C21   H14   S    
C4    C49   S    
C34   O22   A    
C2    C3    S    
C5    C10   A    
C25   C39   S    
Cu4   O2    S    
C13   C57   S    
C11   C13   A    
C58   H36   S    
C12   O19   A    
C61   H39   S    
Cu1   O20   S    
Cu2   O12   S    
C33   C35   A    
C48   H26   S    
C59   H37   S    
C32   O16   A    
C47   H25   S    
Cu4   O8    S    
C53   H32   S    
C20   C21   A    
C49   C50   S    
C17   C34   S    
C4    H2    S    
C45   H10   S    
C34   O23   A    
C14   C15   A    
C45   C50   S    
Cu6   O13   S    
C14   C28   S    
C57   C58   A    
C13   C14   A    
C43   H23   S    
C55   C56   A    
C8    H6    S    
C59   C60   A    
