data_mof_unit_26554.cif
_audit_creation_date              2013-03-05T16:41:45-0500
_audit_creation_method            fapswitch 2.2
_symmetry_space_group_name_H-M    P1
_symmetry_Int_Tables_number       1
_space_group_crystal_system       triclinic
_cell_length_a                    10.682731
_cell_length_b                    10.681342
_cell_length_c                    9.859602
_cell_angle_alpha                 90.450602
_cell_angle_beta                  89.801084
_cell_angle_gamma                 90.158176
_cell_volume                      1124.99301791

loop_
_atom_site_label
_atom_site_type_symbol
_atom_site_description
_atom_site_fract_x
_atom_site_fract_y
_atom_site_fract_z
_atom_type_partial_charge
O1    O     O_R   0.500020 0.316790 0.614690 -0.612574
O2    O     O_R   0.500000 0.316760 0.385350 -0.608135
C1    C     C_R   0.503936 0.259886 0.499431 0.917252
O3    O     O_R   0.316770 0.500020 0.614690 -0.625893
O4    O     O_R   0.316760 0.499980 0.385350 -0.610702
C2    C     C_R   0.260381 0.507373 0.500708 0.888293
Zn1   Zn    Zn3+2 0.500010 0.500020 0.653130 0.965819
Zn2   Zn    Zn3+2 0.499990 0.499980 0.346870 0.989370
O5    O     O_R   0.500000 0.683240 0.614650 -0.639989
O6    O     O_R   0.499980 0.683210 0.385310 -0.608405
O7    O     O_R   0.683240 0.500020 0.614650 -0.621888
O8    O     O_R   0.683230 0.499980 0.385310 -0.624238
C3    C     C_R   0.505723 0.740153 0.500437 0.859035
C4    C     C_R   0.739450 0.506438 0.499736 0.860108
H1    H     H_    0.112946 0.381743 0.340285 0.204231
C5    C     C_R   0.127068 0.682844 0.683653 -0.283951
C6    C     C_R   0.060052 0.763228 0.770202 0.329919
C7    C     C_R   0.930292 0.770507 0.757822 -0.173754
C8    C     C_R   0.867336 0.693504 0.666236 -0.235231
H2    H     H_    0.767182 0.705252 0.658646 0.179321
C9    C     C_R   0.933018 0.604735 0.586317 0.103591
C10   C     C_R   0.064355 0.601876 0.591483 0.061058
C11   C     C_R   0.127806 0.518925 0.501884 -0.092681
C12   C     C_R   0.063908 0.443783 0.409168 -0.181876
C13   C     C_R   0.936346 0.443101 0.408377 -0.186811
C14   C     C_R   0.871449 0.519873 0.498452 -0.087703
C15   C     C_R   0.532839 0.065576 0.620876 0.067926
C16   C     C_R   0.525636 0.128714 0.498591 -0.120735
C17   C     C_R   0.545741 0.063776 0.376465 -0.129670
C18   C     C_R   0.547144 0.934226 0.377457 -0.125543
H3    H     H_    0.552066 0.884437 0.281439 0.210747
C19   C     C_R   0.529734 0.871390 0.500866 -0.169606
C20   C     C_R   0.538320 0.937810 0.622962 0.051252
C21   C     C_3   0.459715 0.932567 0.749602 0.191898
C22   C     C_3   0.451061 0.074116 0.743409 -0.441829
H4    H     H_    0.369312 0.882519 0.735789 0.130277
H5    H     H_    0.497962 0.124414 0.828420 0.250195
C23   C     C_R   0.446335 0.403294 0.070497 0.147200
N1    N     N_R   0.499160 0.499140 0.142800 -0.140919
C24   C     C_R   0.566697 0.586404 0.072483 -0.040124
C25   C     C_R   0.567789 0.585450 0.928368 -0.041745
H6    H     H_    0.621546 0.654797 0.874154 0.176286
N2    N     N_R   0.499160 0.499180 0.857150 -0.116545
C26   C     C_R   0.443974 0.405039 0.928059 0.168398
C27   C     C_3   0.309590 0.367210 0.922811 -0.526300
C28   C     C_3   0.313290 0.360300 0.077132 0.086578
N3    N     N_R   0.530166 0.892575 0.868710 0.223822
O9    O     O_R   0.651272 0.905530 0.872916 -0.439477
O10   O     O_R   0.470193 0.869280 0.980679 -0.317381
H7    H     H_    0.355263 0.107355 0.719082 0.180719
H8    H     H_    0.618283 0.657849 0.127174 0.165500
H9    H     H_    0.248620 0.443635 0.885274 0.211224
H10   H     H_    0.295475 0.275720 0.870942 0.230360
H11   H     H_    0.249398 0.427243 0.129382 0.136774
N4    N     N_R   0.303346 0.231698 0.126888 0.246353
O11   O     O_R   0.375646 0.143710 0.079191 -0.355311
O12   O     O_R   0.220967 0.204052 0.219294 -0.381194
H12   H     H_    0.227795 0.686849 0.688980 0.185587
N5    N     N_R   0.123744 0.835663 0.872047 0.200692
O13   O     O_R   0.225319 0.792680 0.926824 -0.356838
O14   O     O_R   0.073164 0.936701 0.922189 -0.341786
H13   H     H_    0.877416 0.834529 0.821010 0.228875
H14   H     H_    0.888032 0.379596 0.339810 0.176497
H15   H     H_    0.550983 0.111674 0.280222 0.213676

loop_
_geom_bond_atom_site_label_1
_geom_bond_atom_site_label_2
_geom_bond_distance
_ccdc_geom_bond_type
C28   N4    1.465689 S    
O1    C1    1.285125 A    
O4    Zn2   1.992533 S    
Zn1   O7    1.992532 S    
C9    C14   1.411754 A    
C23   C26   1.404969 A    
C17   C18   1.383996 A    
Zn2   N1    2.012049 S    
Zn1   N2    2.011635 S    
C24   H8    1.081709 S    
C25   H6    1.079778 S    
C3    C19   1.424345 S    
C8    H2    1.080522 S    
Zn2   O8    1.995147 S    
C20   C21   1.503619 S    
C11   C12   1.391241 A    
C19   C20   1.395673 A    
C28   H11   1.112210 S    
N4    O11   1.302119 A    
C6    C7    1.394418 A    
C17   H15   1.082792 S    
C27   H10   1.109549 S    
N5    O13   1.300246 A    
N3    O10   1.299867 A    
C5    H12   1.078218 S    
C9    C10   1.404570 A    
C15   C20   1.366451 A    
C18   C19   1.405756 A    
C25   N2    1.367244 A    
C16   C17   1.401079 A    
O4    C2    1.287130 A    
C4    C14   1.417017 S    
C6    N5    1.435098 S    
O3    Zn1   1.995148 S    
C2    C11   1.421968 S    
Zn2   O6    1.990574 S    
C24   C25   1.420873 A    
C22   H5    1.111999 S    
O8    C4    1.281226 A    
O2    C1    1.283428 A    
C22   H7    1.111739 S    
C21   H4    1.110811 S    
N4    O12   1.299614 A    
N2    C26   1.361028 A    
C18   H3    1.083387 S    
O7    C4    1.282670 A    
N5    O14   1.301564 A    
C23   C28   1.493798 S    
N1    C24   1.368569 A    
C23   N1    1.364872 A    
C12   C13   1.362765 A    
O3    C2    1.279983 A    
C21   C22   1.516726 S    
C13   H14   1.084810 S    
C15   C16   1.388566 A    
Zn1   O5    1.996398 S    
C7    C8    1.390574 A    
O5    C3    1.285096 A    
C10   C11   1.418371 A    
C1    C16   1.420737 S    
O1    Zn1   1.990573 S    
C7    H13   1.080661 S    
C21   N3    1.464179 S    
C27   H9    1.112179 S    
C15   C22   1.490796 S    
C13   C14   1.388966 A    
C27   C28   1.524570 S    
H1    C12   1.080368 S    
O2    Zn2   1.996398 S    
C26   C27   1.491253 S    
N3    O9    1.301510 A    
C5    C10   1.418199 A    
C5    C6    1.401984 A    
C8    C9    1.414327 A    
O6    C3    1.285139 A    
