data_mof_unit_6974.cif
_audit_creation_date              2012-10-26T20:13:54-0400
_audit_creation_method            fapswitch 2.2
_symmetry_space_group_name_H-M    P1
_symmetry_Int_Tables_number       1
_space_group_crystal_system       triclinic
_cell_length_a                    8.722732
_cell_length_b                    10.830102
_cell_length_c                    9.554846
_cell_angle_alpha                 90.682342
_cell_angle_beta                  97.834908
_cell_angle_gamma                 90.081529
_cell_volume                      894.134233712

loop_
_atom_site_label
_atom_site_type_symbol
_atom_type_description
_atom_site_fract_x
_atom_site_fract_y
_atom_site_fract_z
_atom_type_partial_charge
C1    C     C_R   0.492815 0.262680 0.498064 0.551483
C2    C     C_R   0.632368 0.525498 0.943200 0.159439
C3    C     C_3   0.724128 0.641798 0.950096 -0.282790
C4    C     C_R   0.203920 0.499877 0.463879 0.541210
C5    C     C_3   0.723088 0.643308 0.108731 -0.277041
C6    C     C_R   0.500127 0.737433 0.500466 0.551501
C7    C     C_R   0.796110 0.499879 0.536169 0.546325
C8    C     C_2   0.038114 0.498257 0.444124 -0.161311
C9    C     C_2   0.961996 0.500474 0.556141 -0.155268
C10   C     C_R   0.586972 0.066769 0.597755 0.044332
C11   C     C_R   0.489843 0.129213 0.494088 0.053975
C12   C     C_R   0.411972 0.930905 0.385067 -0.145416
C13   C     C_R   0.402787 0.060308 0.382582 -0.036482
C14   C     C_3   0.286390 0.118529 0.269880 -0.251517
C15   C     C_3   0.143678 0.164158 0.333054 -0.281385
C16   C     C_3   0.022631 0.218335 0.220138 -0.453231
C17   C     C_R   0.499219 0.870531 0.498157 -0.000121
C18   C     C_R   0.592623 0.939954 0.599503 -0.032861
C19   C     C_3   0.612103 0.936317 0.757004 -0.234553
C20   C     C_3   0.604846 0.076472 0.755476 0.107421
C21   C     C_R   0.632116 0.526262 0.090507 0.157480
C22   C     C_R   0.374208 0.461451 0.058082 -0.021959
C23   C     C_R   0.374192 0.461380 0.909500 0.002092
Cu1   Cu    Cu3+1 0.499990 0.499980 0.640670 0.956003
Cu2   Cu    Cu3+1 0.500010 0.500020 0.359330 0.919366
H1    H     H_    0.978519 0.494464 0.336696 0.116978
H2    H     H_    0.728429 0.902010 0.801277 0.086122
H3    H     H_    0.713377 0.124289 0.802029 0.108881
H4    H     H_    0.271476 0.431821 0.099823 0.109634
H5    H     H_    0.070983 0.299018 0.170371 0.146721
H6    H     H_    0.983830 0.147720 0.137573 0.146672
H7    H     H_    0.920766 0.249303 0.269314 0.152669
H8    H     H_    0.090703 0.085699 0.383445 0.165042
H9    H     H_    0.177631 0.235782 0.415485 0.175963
H10   H     H_    0.339751 0.194150 0.215961 0.172077
H11   H     H_    0.247190 0.049532 0.185308 0.130909
H12   H     H_    0.271461 0.431303 0.841465 0.122580
H13   H     H_    0.494576 0.125483 0.908427 0.313456
H14   H     H_    0.841101 0.627323 0.919019 0.124083
H15   H     H_    0.656876 0.717994 0.896104 0.141988
H16   H     H_    0.839864 0.630165 0.169018 0.121238
H17   H     H_    0.656181 0.721479 0.146201 0.152267
H18   H     H_    0.021680 0.503387 0.663724 0.116483
H19   H     H_    0.342663 0.876687 0.303602 0.124659
H20   H     H_    0.512501 0.891847 0.798161 0.166280
N1    N     N_R   0.500980 0.500930 0.148050 -0.232526
N2    N     N_R   0.500990 0.500890 0.852140 -0.228938
O1    O     O_R   0.500000 0.319640 0.618810 -0.451574
O2    O     O_R   0.500020 0.319680 0.381230 -0.521989
O3    O     O_R   0.274830 0.499980 0.591380 -0.508746
O4    O     O_R   0.274850 0.500020 0.353800 -0.513098
O5    O     O_R   0.499980 0.680320 0.618770 -0.501617
O6    O     O_R   0.500000 0.680360 0.381190 -0.505903
O7    O     O_R   0.725150 0.499980 0.646200 -0.503845
O8    O     O_R   0.725170 0.500020 0.408620 -0.499826
O9    O     O_3   0.470587 0.121350 0.803951 -0.683331

loop_
_geom_bond_atom_site_label_1
_geom_bond_atom_site_label_2
_ccdc_geom_bond_type
C12   C17   A    
Cu1   O5    S    
C5    H17   S    
C19   H20   S    
C1    O1    A    
C22   H4    S    
C2    N2    A    
C16   H7    S    
H13   O9    S    
C8    H1    S    
C15   H9    S    
C20   H3    S    
C19   C20   S    
C1    C11   S    
C7    O8    A    
C4    C8    S    
C2    C21   A    
Cu2   O4    S    
C2    C3    S    
C3    H14   S    
C12   H19   S    
C23   H12   S    
C13   C14   S    
C12   C13   A    
C16   H6    S    
Cu1   O3    S    
C11   C13   A    
C1    O2    A    
C10   C18   A    
C22   N1    A    
Cu2   O6    S    
C3    H15   S    
C17   C18   A    
C20   O9    S    
C14   H11   S    
Cu2   O2    S    
C9    H18   S    
C23   N2    A    
C10   C11   A    
C4    O4    A    
Cu1   O7    S    
C15   C16   S    
Cu1   O1    S    
C19   H2    S    
Cu1   Cu2   S    
C21   N1    A    
C4    O3    A    
C14   H10   S    
C7    C9    S    
C6    C17   S    
C5    H16   S    
C22   C23   A    
C18   C19   S    
C6    O6    A    
C7    O7    A    
C6    O5    A    
C14   C15   S    
Cu1   N2    S    
C16   H5    S    
Cu2   N1    S    
C15   H8    S    
Cu2   O8    S    
C10   C20   S    
C8    C9    D    
C3    C5    S    
C5    C21   S    
