data_mof_unit_7600.cif
_audit_creation_date              2012-12-10T17:03:56-0500
_audit_creation_method            fapswitch 2.2
_symmetry_space_group_name_H-M    P1
_symmetry_Int_Tables_number       1
_space_group_crystal_system       triclinic
_cell_length_a                    9.792794
_cell_length_b                    11.046088
_cell_length_c                    15.712032
_cell_angle_alpha                 94.669568
_cell_angle_beta                  78.969655
_cell_angle_gamma                 111.307423
_cell_volume                      1554.04164538

loop_
_atom_site_label
_atom_site_type_symbol
_atom_type_description
_atom_site_fract_x
_atom_site_fract_y
_atom_site_fract_z
_atom_type_partial_charge
C1    C     C_R   0.556189 0.745454 0.506149 0.862502
C2    C     C_R   0.443845 0.254550 0.493794 0.853480
C3    C     C_R   0.318783 0.501405 0.084458 0.604804
C4    C     C_R   0.669968 0.653421 0.932923 0.603257
C5    C     C_R   0.214950 0.467402 0.029437 -0.078788
C6    C     C_R   0.773519 0.687533 0.988261 -0.091674
C7    C     C_2   0.587944 0.884585 0.509458 -0.309542
C8    C     C_2   0.412169 0.115420 0.490350 -0.308335
C9    C     C_2   0.484415 0.930553 0.498214 -0.132176
C10   C     C_2   0.515802 0.069462 0.501416 -0.137303
C11   C     C_2   0.923314 0.490123 0.492371 -0.005085
C12   C     C_2   0.076673 0.509843 0.507658 0.004091
C13   C     C_R   0.410482 0.486188 0.663454 0.874863
C14   C     C_R   0.589969 0.516938 0.336779 0.860627
C15   C     C_R   0.355155 0.480611 0.758067 -0.280978
C16   C     C_R   0.647611 0.547572 0.244066 -0.261350
C17   C     C_R   0.152655 0.426311 0.882508 0.372921
C18   C     C_R   0.842629 0.669060 0.128415 0.289480
C19   C     C_R   0.202387 0.435273 0.792348 0.556620
C20   C     C_R   0.796487 0.624149 0.214299 0.542799
C21   C     C_R   0.458215 0.520523 0.814336 -0.203797
C22   C     C_R   0.545753 0.513349 0.187372 -0.190210
C23   C     C_R   0.413638 0.524954 0.904569 0.053866
C24   C     C_R   0.583098 0.566784 0.104440 0.057862
C25   C     C_R   0.258993 0.472262 0.939121 -0.159640
C26   C     C_R   0.734720 0.641159 0.073245 -0.130703
C27   C     C_R   0.520086 0.573011 0.961372 -0.074216
C28   C     C_R   0.473423 0.544519 0.050993 -0.089644
Cu1   Cu    Cu3+1 0.362980 0.479380 0.485080 1.022653
Cu2   Cu    Cu3+1 0.637020 0.520620 0.514920 1.018874
H1    H     H_    0.099165 0.436796 0.059473 0.234910
H2    H     H_    0.884897 0.750958 0.962688 0.242172
H3    H     H_    0.436716 0.443076 0.209415 0.236588
H4    H     H_    0.573900 0.543064 0.786495 0.249587
H5    H     H_    0.624774 0.134517 0.512993 0.186946
H6    H     H_    0.375482 0.865501 0.486573 0.190662
H7    H     H_    0.303402 0.050093 0.478751 0.167689
H8    H     H_    0.696673 0.949906 0.521121 0.166942
H9    H     H_    0.121832 0.577709 0.557922 0.167867
H10   H     H_    0.878133 0.422206 0.442138 0.165011
H11   H     H_    0.111720 0.384667 0.415214 0.215204
H12   H     H_    0.888316 0.615406 0.584745 0.217150
N1    N     N_2   0.842890 0.551600 0.537350 -0.274754
N2    N     N_2   0.157110 0.448400 0.462650 -0.270992
O1    O     O_R   0.426810 0.668300 0.492040 -0.587400
O2    O     O_R   0.573190 0.331700 0.507960 -0.590325
O3    O     O_R   0.658240 0.703130 0.517240 -0.557594
O4    O     O_R   0.341760 0.296870 0.482760 -0.566732
O5    O     O_R   0.319390 0.472820 0.610170 -0.519297
O6    O     O_R   0.680610 0.527180 0.389830 -0.519686
O7    O     O_R   0.550820 0.507640 0.635370 -0.578467
O8    O     O_R   0.449180 0.492360 0.364630 -0.565441
F1    F     F_    0.894978 0.658433 0.269984 -0.600360
F2    F     F_    0.102317 0.395223 0.737610 -0.594182
S1    S     S_3+6 0.958429 0.350982 0.922584 0.059323
O9    O     O_2   0.935212 0.239576 0.979375 -0.273649
O10   O     O_2   0.902223 0.448138 0.975525 -0.299864
O11   O     O_3   0.859095 0.293776 0.842297 -0.425997
H13   H     H_    0.753870 0.260589 0.871792 0.375275
S2    S     S_3+6 0.033370 0.765548 0.093147 0.075096
O12   O     O_2   0.127616 0.774959 0.160260 -0.168462
O13   O     O_2   0.094135 0.707342 0.011717 -0.242914
O14   O     O_3   0.045393 0.915962 0.071315 -0.494200
H14   H     H_    0.998841 0.947216 0.125991 0.352659
F3    F     F_    0.265091 0.504508 0.170574 -0.645134
F4    F     F_    0.715784 0.712498 0.854787 -0.652890

loop_
_geom_bond_atom_site_label_1
_geom_bond_atom_site_label_2
_ccdc_geom_bond_type
C13   O5    A    
C9    H6    S    
C6    H2    S    
Cu2   O7    S    
C11   N1    D    
C10   H5    S    
C14   C16   S    
C23   C27   A    
C9    C10   S    
C17   S1    S    
C18   C26   A    
C16   C20   A    
S1    O9    D    
C17   C25   A    
C12   H9    S    
C23   C25   A    
Cu2   O6    S    
C12   N2    D    
S1    O10   D    
Cu1   O5    S    
C2    O2    A    
C15   C19   A    
C1    O1    A    
Cu1   Cu2   S    
S2    O12   D    
S2    O14   S    
C5    C25   A    
C2    C8    S    
C19   F2    S    
C4    C6    A    
C3    C28   A    
C17   C19   A    
C7    H8    S    
C24   C26   A    
C18   C20   A    
C13   C15   S    
Cu1   N2    S    
C11   H10   S    
C3    F3    S    
H11   N2    S    
C22   C24   A    
Cu2   N1    S    
C8    H7    S    
C14   O6    A    
Cu1   O4    S    
O14   H14   S    
C3    C5    A    
Cu2   O3    S    
C15   C21   A    
C4    C27   A    
C4    F4    S    
S2    O13   D    
H12   N1    S    
S1    O11   S    
C18   S2    S    
C27   C28   A    
C7    C9    D    
C22   H3    S    
C6    C26   A    
C1    O3    A    
C1    C7    S    
C16   C22   A    
C21   H4    S    
C2    O4    A    
O11   H13   S    
C13   O7    A    
C21   C23   A    
Cu2   O2    S    
C8    C10   D    
C14   O8    A    
C24   C28   A    
C11   C12   S    
Cu1   O1    S    
C20   F1    S    
C5    H1    S    
Cu1   O8    S    
