data_mof_unit_29528.cif
_audit_creation_date              2012-10-26T21:13:38-0400
_audit_creation_method            fapswitch 2.2
_symmetry_space_group_name_H-M    P1
_symmetry_Int_Tables_number       1
_space_group_crystal_system       triclinic
_cell_length_a                    9.127115
_cell_length_b                    10.914917
_cell_length_c                    9.602237
_cell_angle_alpha                 90.293041
_cell_angle_beta                  90.421237
_cell_angle_gamma                 88.432343
_cell_volume                      956.195769716

loop_
_atom_site_label
_atom_site_type_symbol
_atom_type_description
_atom_site_fract_x
_atom_site_fract_y
_atom_site_fract_z
_atom_type_partial_charge
C1    C     C_R   0.503790 0.262624 0.499465 0.549468
C2    C     C_R   0.624194 0.522746 0.927766 0.205715
C3    C     C_3   0.711937 0.632333 0.913330 0.132346
C4    C     C_R   0.220917 0.497004 0.499490 0.544868
C5    C     C_3   0.701334 0.648093 0.071510 -0.113191
C6    C     C_R   0.495972 0.737806 0.500227 0.529798
C7    C     C_R   0.779255 0.497110 0.500232 0.542444
C8    C     C_1   0.065652 0.493625 0.498823 -0.088323
C9    C     C_1   0.934640 0.493941 0.499876 -0.066126
C10   C     C_R   0.452408 0.067630 0.613670 0.053439
C11   C     C_R   0.499531 0.129725 0.497286 -0.020913
C12   C     C_R   0.521073 0.934540 0.375288 -0.172458
C13   C     C_R   0.529187 0.062234 0.375358 -0.181413
C14   C     C_3   0.850932 0.654836 0.149744 -0.217891
C15   C     C_3   0.848495 0.757089 0.260629 -0.315648
C16   C     C_3   0.001879 0.783938 0.315585 -0.462147
C17   C     C_3   0.347250 0.896893 0.857525 -0.203049
C18   C     C_3   0.194795 0.952796 0.815828 -0.246402
C19   C     C_3   0.087303 0.954176 0.937004 -0.463293
C20   C     C_3   0.475868 0.162683 0.977575 -0.003654
C21   C     C_3   0.352703 0.177229 0.083102 -0.383618
C22   C     C_3   0.919028 0.686579 0.794194 -0.031568
C23   C     C_R   0.486211 0.871794 0.498131 -0.015302
C24   C     C_3   0.080678 0.652566 0.789888 -0.353903
C25   C     C_R   0.438880 0.941699 0.613275 -0.020014
C26   C     C_3   0.477082 0.935439 0.765346 -0.098657
C27   C     C_3   0.506201 0.072959 0.760447 0.170575
C28   C     C_R   0.624549 0.526692 0.074973 0.138495
C29   C     C_R   0.378851 0.470562 0.072918 -0.045325
C30   C     C_R   0.379758 0.468387 0.924948 -0.024073
Cu1   Cu    Cu3+1 0.499990 0.499980 0.640670 0.958823
Cu2   Cu    Cu3+1 0.500010 0.500020 0.359330 0.911286
H1    H     H_    0.565985 0.107073 0.282352 0.125916
H2    H     H_    0.067221 0.827978 0.233771 0.148250
H3    H     H_    0.993662 0.847188 0.406325 0.137274
H4    H     H_    0.802147 0.843213 0.214851 0.144621
H5    H     H_    0.778685 0.730894 0.348920 0.193887
H6    H     H_    0.882211 0.565364 0.197193 0.175002
H7    H     H_    0.940070 0.676599 0.077204 0.180761
H8    H     H_    0.086691 0.863933 0.988920 0.140154
H9    H     H_    0.116852 0.024142 0.015118 0.157263
H10   H     H_    0.975338 0.978188 0.898196 0.122478
H11   H     H_    0.200217 0.047879 0.777597 0.223929
H12   H     H_    0.654087 0.703486 0.850534 0.097037
H13   H     H_    0.148845 0.900113 0.727754 0.130406
H14   H     H_    0.342089 0.795522 0.852839 0.130884
H15   H     H_    0.373621 0.919815 0.967360 0.144269
H16   H     H_    0.542096 0.246509 0.977734 0.156112
H17   H     H_    0.548768 0.084230 0.010972 0.090871
H18   H     H_    0.322938 0.086520 0.123943 0.121617
H19   H     H_    0.388549 0.233452 0.172012 0.150111
H20   H     H_    0.254510 0.223044 0.035502 0.161263
H21   H     H_    0.903311 0.777251 0.845609 0.108044
H22   H     H_    0.874650 0.692770 0.686377 0.149338
H23   H     H_    0.623571 0.724862 0.098549 0.090574
H24   H     H_    0.091995 0.552312 0.775154 0.200041
H25   H     H_    0.134773 0.698958 0.702628 0.117480
H26   H     H_    0.134427 0.674651 0.890376 0.116927
H27   H     H_    0.549374 0.885157 0.280878 0.121541
H28   H     H_    0.579777 0.882399 0.785554 0.064387
H29   H     H_    0.624449 0.096478 0.765554 0.079838
H30   H     H_    0.279946 0.446751 0.126362 0.126599
H31   H     H_    0.282940 0.439913 0.870130 0.141131
H32   H     H_    0.060141 0.698674 0.348405 0.167679
N1    N     N_R   0.500920 0.500930 0.147930 -0.251870
N2    N     N_R   0.500930 0.500890 0.852020 -0.264721
O1    O     O_R   0.500000 0.319640 0.618810 -0.461337
O2    O     O_3   0.850696 0.592692 0.866464 -0.561704
O3    O     O_R   0.500020 0.319680 0.381230 -0.519736
O4    O     O_R   0.288380 0.499980 0.618770 -0.516561
O5    O     O_R   0.288400 0.500020 0.381190 -0.505981
O6    O     O_R   0.499980 0.680320 0.618770 -0.518331
O7    O     O_R   0.500000 0.680360 0.381190 -0.508021
O8    O     O_R   0.711600 0.499980 0.618810 -0.461405
O9    O     O_R   0.711620 0.500020 0.381230 -0.510527
O10   O     O_3   0.413338 0.147271 0.843964 -0.545779

loop_
_geom_bond_atom_site_label_1
_geom_bond_atom_site_label_2
_ccdc_geom_bond_type
C10   C27   S    
Cu1   N2    S    
C3    O2    S    
C1    C11   S    
C4    C8    S    
Cu2   O9    S    
C4    O4    A    
C22   H22   S    
Cu1   O1    S    
C12   C23   A    
C26   C27   S    
C29   C30   A    
C17   C26   S    
C16   H3    S    
C15   C16   S    
C20   O10   S    
C18   C19   S    
C15   H5    S    
C27   H29   S    
C16   H2    S    
C14   H7    S    
C12   H27   S    
Cu1   O4    S    
C8    C9    T    
C7    O8    A    
C19   H10   S    
C23   C25   A    
C30   H31   S    
C21   H18   S    
Cu2   O5    S    
C3    H12   S    
C17   H14   S    
C10   C11   A    
Cu2   O7    S    
C24   H25   S    
Cu1   O8    S    
C7    O9    A    
C3    C5    S    
C25   C26   S    
C1    O3    A    
C6    O6    A    
C13   H1    S    
C20   H17   S    
C14   H6    S    
C5    C28   S    
Cu1   Cu2   S    
C17   C18   S    
C30   N2    A    
C12   C13   A    
C22   O2    S    
C5    C14   S    
C20   H16   S    
C29   N1    A    
C22   H21   S    
C10   C25   A    
Cu1   O6    S    
C22   C24   S    
C27   O10   S    
C18   H13   S    
C15   H4    S    
C21   H19   S    
C6    O7    A    
C7    C9    S    
C29   H30   S    
C5    H23   S    
C17   H15   S    
C2    N2    A    
Cu2   O3    S    
C24   H24   S    
C2    C3    S    
C18   H11   S    
C11   C13   A    
C6    C23   S    
C1    O1    A    
C28   N1    A    
C4    O5    A    
C19   H8    S    
C20   C21   S    
C24   H26   S    
C14   C15   S    
C2    C28   A    
C16   H32   S    
C26   H28   S    
C21   H20   S    
C19   H9    S    
Cu2   N1    S    
