data_mof_unit_43800.cif
_audit_creation_date              2013-03-05T15:44:58-0500
_audit_creation_method            fapswitch 2.2
_symmetry_space_group_name_H-M    P1
_symmetry_Int_Tables_number       1
_space_group_crystal_system       triclinic
_cell_length_a                    19.522103
_cell_length_b                    6.967871
_cell_length_c                    19.342083
_cell_angle_alpha                 90.000622
_cell_angle_beta                  95.993424
_cell_angle_gamma                 90.001594
_cell_volume                      2616.67345658

loop_
_atom_site_label
_atom_site_type_symbol
_atom_site_description
_atom_site_fract_x
_atom_site_fract_y
_atom_site_fract_z
_atom_type_partial_charge
O1    O     O_R   0.673510 0.377480 0.186100 -0.584063
O2    O     O_R   0.326490 0.622520 0.813900 -0.582824
O3    O     O_R   0.826490 0.877480 0.313900 -0.583463
O4    O     O_R   0.173510 0.122520 0.686100 -0.583249
O5    O     O_R   0.807790 0.705750 0.184090 -0.574405
O6    O     O_R   0.192210 0.294250 0.815910 -0.574452
O7    O     O_R   0.692210 0.205750 0.315910 -0.574346
O8    O     O_R   0.307790 0.794250 0.684090 -0.574418
C1    C     C_1   0.478198 0.994693 0.521275 0.030850
C2    C     C_1   0.521818 0.005679 0.478753 0.031295
C3    C     C_1   0.021828 0.494518 0.978757 0.031116
C4    C     C_1   0.978210 0.505514 0.021281 0.031067
C5    C     C_R   0.830967 0.538300 0.166354 0.990971
C6    C     C_R   0.169055 0.461706 0.833668 0.987339
C7    C     C_R   0.669049 0.038306 0.333662 0.989205
C8    C     C_R   0.330956 0.961719 0.666344 0.988830
O9    O     O_R   0.672870 0.707110 0.178120 -0.583823
O10   O     O_R   0.327130 0.292890 0.821880 -0.585056
O11   O     O_R   0.827130 0.207110 0.321880 -0.584313
O12   O     O_R   0.172870 0.792890 0.678120 -0.584320
O13   O     O_R   0.690610 0.878650 0.307880 -0.577561
O14   O     O_R   0.309390 0.121350 0.692120 -0.577138
O15   O     O_R   0.809390 0.378650 0.192120 -0.577787
O16   O     O_R   0.190610 0.621350 0.807880 -0.576839
C9    C     C_R   0.647573 0.538670 0.161568 1.035686
C10   C     C_R   0.352309 0.461376 0.838559 1.032913
C11   C     C_R   0.852378 0.038656 0.338484 1.034294
C12   C     C_R   0.147631 0.961347 0.661506 1.034087
C13   C     C_1   0.383015 0.971776 0.614394 -0.261093
C14   C     C_1   0.617000 0.028400 0.385626 -0.262393
C15   C     C_1   0.117005 0.471686 0.885629 -0.262302
C16   C     C_1   0.883027 0.528333 0.114402 -0.261441
O17   O     O_3   0.755980 0.544260 0.292580 -0.249674
O18   O     O_3   0.244020 0.455740 0.707420 -0.249328
O19   O     O_3   0.744020 0.044260 0.207420 -0.249897
O20   O     O_3   0.255980 0.955740 0.792580 -0.249561
V1    V     V_3+5 0.748890 0.818640 0.242100 1.227695
V2    V     V_3+5 0.251110 0.181360 0.757900 1.227304
V3    V     V_3+5 0.751110 0.318640 0.257900 1.227536
V4    V     V_3+5 0.248890 0.681360 0.742100 1.227610
C17   C     C_R   0.085161 0.968530 0.610294 -0.336806
C18   C     C_R   0.914851 0.031508 0.389697 -0.336906
C19   C     C_R   0.414761 0.468777 0.889771 -0.336302
C20   C     C_R   0.585086 0.531687 0.110349 -0.337612
C21   C     C_1   0.426499 0.981860 0.571716 0.087572
C22   C     C_1   0.573518 0.018462 0.428311 0.088625
C23   C     C_1   0.073524 0.481700 0.928312 0.088383
C24   C     C_1   0.926512 0.518329 0.071723 0.088110
C25   C     C_R   0.037046 0.098138 0.421081 0.368944
C26   C     C_R   0.962936 0.902255 0.578948 0.368886
C27   C     C_R   0.462983 0.599513 0.078843 0.369374
C28   C     C_R   0.537239 0.405488 0.920798 0.368333
C29   C     C_R   0.978777 0.096242 0.370933 -0.037143
C30   C     C_R   0.021203 0.904180 0.629098 -0.037223
C31   C     C_R   0.521289 0.598009 0.128950 -0.037196
C32   C     C_R   0.478946 0.407276 0.870669 -0.037885
C33   C     C_R   0.909317 0.964764 0.457619 0.326329
C34   C     C_R   0.090725 0.034960 0.542339 0.326228
C35   C     C_R   0.590480 0.463672 0.042554 0.327073
C36   C     C_R   0.408985 0.532827 0.957978 0.325595
C37   C     C_R   0.967638 0.965835 0.509242 -0.180775
C38   C     C_R   0.032378 0.034189 0.490748 -0.180706
C39   C     C_R   0.532300 0.466356 0.990775 -0.180938
C40   C     C_R   0.467504 0.533950 0.009354 -0.180332
N1    N     N_R   0.157044 0.099712 0.526696 0.243831
O21   O     O_R   0.203315 0.974370 0.513467 -0.349566
O22   O     O_R   0.175815 0.275523 0.541246 -0.331399
N2    N     N_R   0.843095 0.898915 0.473147 0.244082
O23   O     O_R   0.824884 0.722496 0.458938 -0.331176
O24   O     O_R   0.796388 0.023500 0.485877 -0.350364
N3    N     N_R   0.342102 0.590436 0.974380 0.242382
O25   O     O_R   0.298673 0.460588 0.990670 -0.344374
O26   O     O_R   0.319843 0.762171 0.957978 -0.333173
N4    N     N_R   0.656139 0.392066 0.027598 0.245573
O27   O     O_R   0.671188 0.212367 0.039436 -0.330122
O28   O     O_R   0.705222 0.512315 0.017910 -0.354767
C41   C     C_3   0.014623 0.842678 0.703929 -0.378317
C42   C     C_3   0.010341 0.017831 0.751456 -0.263298
C43   C     C_3   0.010122 0.957670 0.827297 -0.836012
H1    H     H_    0.965813 0.861374 0.833440 0.276540
H2    H     H_    0.058835 0.882257 0.845440 0.254335
H3    H     H_    0.005696 0.086929 0.860120 0.253063
H4    H     H_    0.054783 0.115104 0.747399 0.188450
H5    H     H_    0.962415 0.099282 0.735153 0.250072
H6    H     H_    0.968611 0.751697 0.707883 0.238195
H7    H     H_    0.058631 0.750023 0.723524 0.180015
C44   C     C_3   0.985330 0.158156 0.296140 -0.378219
C45   C     C_3   0.989687 0.983246 0.248511 -0.263018
C46   C     C_3   0.989724 0.043736 0.172684 -0.836605
H8    H     H_    0.940883 0.118642 0.154637 0.254198
H9    H     H_    0.033876 0.140589 0.166520 0.276551
H10   H     H_    0.994290 0.914669 0.139798 0.253164
H11   H     H_    0.037704 0.902080 0.264697 0.250172
H12   H     H_    0.945348 0.885615 0.252595 0.188134
H13   H     H_    0.941288 0.250747 0.276602 0.179973
H14   H     H_    0.031303 0.249343 0.292241 0.238069
C47   C     C_3   0.485675 0.348513 0.795592 -0.379184
C48   C     C_3   0.489626 0.525261 0.748785 -0.263965
C49   C     C_3   0.490102 0.467453 0.672728 -0.835856
H15   H     H_    0.534710 0.372535 0.666291 0.276769
H16   H     H_    0.441636 0.391267 0.654236 0.254480
H17   H     H_    0.494197 0.597818 0.640397 0.252613
H18   H     H_    0.444946 0.621424 0.753158 0.189272
H19   H     H_    0.537352 0.607188 0.765478 0.249841
H20   H     H_    0.531864 0.258584 0.791280 0.238577
H21   H     H_    0.441836 0.255713 0.775599 0.179436
C50   C     C_3   0.514861 0.661879 0.203556 -0.377570
C51   C     C_3   0.510246 0.488121 0.251682 -0.262217
C52   C     C_3   0.510236 0.550277 0.327331 -0.836563
H22   H     H_    0.559200 0.624770 0.345214 0.254047
H23   H     H_    0.466244 0.647947 0.333195 0.276466
H24   H     H_    0.505424 0.422003 0.360554 0.253433
H25   H     H_    0.462141 0.407139 0.235696 0.250332
H26   H     H_    0.554470 0.389870 0.247905 0.187440
H27   H     H_    0.559038 0.754301 0.222823 0.180267
H28   H     H_    0.469041 0.753906 0.207175 0.237623
N5    N     N_R   0.101126 0.164094 0.399903 0.246378
O29   O     O_R   0.139349 0.047137 0.368210 -0.320233
O30   O     O_R   0.114734 0.346938 0.400672 -0.331217
N6    N     N_R   0.898780 0.837190 0.600214 0.246372
O31   O     O_R   0.885059 0.654430 0.599951 -0.331168
O32   O     O_R   0.860540 0.955162 0.631450 -0.320167
N7    N     N_R   0.399283 0.669796 0.099557 0.246398
O33   O     O_R   0.361351 0.558377 0.133811 -0.320820
O34   O     O_R   0.385987 0.852699 0.095806 -0.331307
N8    N     N_R   0.601903 0.346770 0.898947 0.246287
O35   O     O_R   0.616623 0.164995 0.896045 -0.330309
O36   O     O_R   0.640181 0.471436 0.870881 -0.319533

loop_
_geom_bond_atom_site_label_1
_geom_bond_atom_site_label_2
_geom_bond_distance
_ccdc_geom_bond_type
C34   C38   1.433853 A    
C44   C45   1.535455 S    
C1    C21   1.477882 S    
N8    O35   1.301288 A    
O5    V1    1.862611 S    
C27   N7    1.432092 S    
C5    C16   1.503575 S    
C3    C23   1.477882 S    
O10   C10   1.300307 A    
C6    C15   1.503562 S    
C4    C24   1.477881 S    
N5    O30   1.301203 A    
C47   C48   1.535225 S    
N7    O33   1.300958 A    
C41   C42   1.535426 S    
C5    O15   1.306562 A    
O17   V3    1.707956 S    
N4    O28   1.301063 A    
C26   N6    1.432103 S    
O19   V1    1.707974 S    
C17   C34   1.408368 A    
C52   H23   1.110843 S    
C18   C29   1.409677 A    
O12   V4    1.988558 S    
C25   C29   1.415827 A    
N7    O34   1.301128 A    
C20   C35   1.408552 A    
C51   H26   1.110226 S    
C48   H18   1.110123 S    
O14   V2    1.841313 S    
C12   C17   1.489538 S    
C51   C52   1.525976 S    
C9    C20   1.489805 S    
C6    O16   1.306549 A    
C42   H4    1.110168 S    
C25   N5    1.432093 S    
N2    O23   1.300995 A    
N1    O22   1.300998 A    
C44   H13   1.109280 S    
C2    C22   1.477876 S    
C8    O14   1.306462 A    
C50   C51   1.535577 S    
O6    V2    1.862611 S    
C46   H9    1.110864 S    
O11   C11   1.300304 A    
C1    C2    1.246476 T    
O5    C5    1.310030 A    
C30   C41   1.527716 S    
C47   H20   1.108327 S    
O7    C7    1.309957 A    
C41   H6    1.108553 S    
O8    C8    1.310118 A    
C15   C23   1.246331 T    
O1    C9    1.301109 A    
C16   C24   1.246329 T    
C32   C47   1.527577 S    
C18   C33   1.408382 A    
O4    C12   1.300958 A    
N6    O32   1.300862 A    
C10   C19   1.489312 S    
C50   H28   1.108754 S    
C45   H12   1.110191 S    
N4    O27   1.300968 A    
O20   V4    2.144613 S    
O2    C10   1.300823 A    
C52   H24   1.110518 S    
C43   H2    1.110839 S    
C28   N8    1.432160 S    
C42   C43   1.526095 S    
O12   C12   1.300304 A    
C36   N3    1.432883 S    
C8    C13   1.503562 S    
O17   V1    2.144638 S    
C43   H1    1.110849 S    
C13   C21   1.246323 T    
C51   H25   1.111431 S    
O19   V3    2.144612 S    
O2    V4    1.988071 S    
O6    C6    1.310040 A    
C34   N1    1.432867 S    
C49   H15   1.110847 S    
C44   H14   1.108589 S    
C29   C44   1.527724 S    
O9    V1    1.988519 S    
C46   H10   1.110483 S    
C35   N4    1.432869 S    
C50   H27   1.109157 S    
O11   V3    1.988559 S    
C19   C36   1.408334 A    
C47   H21   1.109485 S    
C49   H16   1.110961 S    
O4    V2    1.988043 S    
C41   H7    1.109312 S    
C48   C49   1.526201 S    
O18   V4    1.707956 S    
C33   N2    1.432863 S    
N6    O31   1.301213 A    
C7    C14   1.503569 S    
N3    O26   1.301012 A    
C45   H11   1.111445 S    
N8    O36   1.300898 A    
C25   C38   1.431180 A    
O18   V2    2.144638 S    
C14   C22   1.246335 T    
C27   C40   1.431006 A    
C28   C39   1.431214 A    
C43   H3    1.110472 S    
C3    C4    1.246475 T    
C33   C37   1.433863 A    
C35   C39   1.433836 A    
C36   C40   1.433722 A    
O9    C9    1.300316 A    
O20   V2    1.707975 S    
O10   V2    1.988518 S    
N3    O25   1.300938 A    
C26   C30   1.415840 A    
C52   H22   1.110720 S    
C11   C18   1.489581 S    
C48   H19   1.111469 S    
O3    C11   1.300981 A    
O16   V4    1.841302 S    
C20   C31   1.409872 A    
C27   C31   1.415843 A    
C37   C38   1.430573 A    
C17   C30   1.409652 A    
O1    V3    1.988072 S    
C39   C40   1.430402 A    
C42   H5    1.111453 S    
C19   C32   1.409585 A    
C7    O13   1.306628 A    
C49   H17   1.110417 S    
O13   V1    1.841313 S    
C45   C46   1.526085 S    
O3    V1    1.988043 S    
N2    O24   1.300970 A    
N1    O21   1.300956 A    
C31   C50   1.527729 S    
C26   C37   1.431194 A    
O7    V3    1.862594 S    
O8    V4    1.862595 S    
C46   H8    1.110816 S    
N5    O29   1.300872 A    
O15   V3    1.841302 S    
C28   C32   1.415943 A    
