data_mof_unit_18715.cif
_audit_creation_date              2012-12-10T20:30:59-0500
_audit_creation_method            fapswitch 2.2
_symmetry_space_group_name_H-M    P1
_symmetry_Int_Tables_number       1
_space_group_crystal_system       triclinic
_cell_length_a                    14.948614
_cell_length_b                    10.67892
_cell_length_c                    9.876813
_cell_angle_alpha                 90.066093
_cell_angle_beta                  90.039939
_cell_angle_gamma                 90.055052
_cell_volume                      1576.6834058

loop_
_atom_site_label
_atom_site_type_symbol
_atom_type_description
_atom_site_fract_x
_atom_site_fract_y
_atom_site_fract_z
_atom_type_partial_charge
C1    C     C_R   0.502462 0.260107 0.500056 0.875694
C2    C     C_R   0.907041 0.561873 0.395216 0.120889
C3    C     C_R   0.953667 0.377944 0.708996 -0.227289
C4    C     C_R   0.046634 0.375912 0.707593 -0.191015
C5    C     C_R   0.093193 0.436745 0.603823 0.109894
C6    C     C_R   0.046642 0.500361 0.500297 0.044145
C7    C     C_R   0.093211 0.563380 0.396384 0.121009
C8    C     C_R   0.046663 0.624897 0.293033 -0.209596
C9    C     C_R   0.953685 0.623552 0.292044 -0.220033
C10   C     C_R   0.185711 0.435052 0.601341 -0.196444
C11   C     C_R   0.231232 0.499444 0.499731 -0.079098
C12   C     C_R   0.326843 0.499791 0.499956 0.890092
C13   C     C_R   0.185740 0.563811 0.398053 -0.278056
C14   C     C_R   0.505479 0.064164 0.622973 0.140538
C15   C     C_R   0.514989 0.128657 0.501518 -0.105057
C16   C     C_R   0.539511 0.064731 0.383193 -0.227596
C17   C     C_R   0.539088 0.935175 0.383181 -0.229268
C18   C     C_R   0.513995 0.871629 0.501418 -0.104508
C19   C     C_R   0.504627 0.936494 0.622800 0.150434
C20   C     C_3   0.431306 0.930487 0.725511 -0.511010
C21   C     C_3   0.432830 0.072336 0.726565 -0.483414
C22   C     C_R   0.425732 0.534765 0.071321 0.131859
C23   C     C_R   0.501963 0.739987 0.500088 0.876489
C24   C     C_R   0.575656 0.472473 0.071867 -0.129333
C25   C     C_R   0.575603 0.472206 0.928139 -0.122152
C26   C     C_R   0.425926 0.535960 0.928652 0.054245
C27   C     C_3   0.335279 0.474182 0.924822 0.294679
C28   C     C_3   0.336037 0.473886 0.078483 -0.531113
C29   C     C_R   0.673208 0.500139 0.500047 0.890579
C30   C     C_R   0.814464 0.560184 0.395230 -0.267113
C31   C     C_R   0.768918 0.500454 0.500259 -0.064281
C32   C     C_R   0.814463 0.441109 0.605579 -0.262059
C33   C     C_R   0.907036 0.439675 0.605831 0.120963
C34   C     C_R   0.953582 0.500721 0.500506 0.062486
H1    H     H_    0.777771 0.606776 0.314968 0.152368
H2    H     H_    0.553025 0.885762 0.289697 0.171625
H3    H     H_    0.368229 0.891256 0.683352 0.194957
H4    H     H_    0.453949 0.888294 0.822497 0.202412
H5    H     H_    0.370450 0.115213 0.686341 0.195185
H6    H     H_    0.457149 0.112451 0.823792 0.204238
H7    H     H_    0.636272 0.448527 0.125632 0.149042
H8    H     H_    0.636143 0.447927 0.874422 0.147724
H9    H     H_    0.338329 0.378164 0.881285 0.105419
H10   H     H_    0.285026 0.536294 0.124103 0.208608
H11   H     H_    0.777774 0.394352 0.685721 0.146705
H12   H     H_    0.338863 0.378277 0.122770 0.185533
H13   H     H_    0.918269 0.330863 0.790045 0.146701
H14   H     H_    0.082087 0.327371 0.787594 0.155162
H15   H     H_    0.222386 0.383246 0.677646 0.169258
H16   H     H_    0.222404 0.615465 0.321725 0.147716
H17   H     H_    0.082127 0.673181 0.212854 0.148462
H18   H     H_    0.918299 0.670834 0.211113 0.147195
H19   H     H_    0.553543 0.113888 0.289680 0.171289
N1    N     N_R   0.499390 0.499140 0.142800 -0.094283
N2    N     N_R   0.499390 0.499180 0.857150 -0.122058
O1    O     O_R   0.500010 0.316790 0.614690 -0.622702
O2    O     O_R   0.500000 0.316760 0.385350 -0.620120
O3    O     O_R   0.367850 0.499990 0.614680 -0.614282
O4    O     O_R   0.367840 0.499950 0.385340 -0.619475
O5    O     O_R   0.500000 0.683240 0.614650 -0.619765
O6    O     O_R   0.499990 0.683210 0.385310 -0.621275
O7    O     O_R   0.632160 0.500050 0.614660 -0.628295
O8    O     O_R   0.632150 0.500010 0.385320 -0.632617
Zn1   Zn    Zn3+2 0.500010 0.500020 0.653130 0.938550
Zn2   Zn    Zn3+2 0.499990 0.499980 0.346870 0.940381
O9    O     O_3   0.261533 0.542807 0.870791 -0.593023
C35   C     C_3   0.275826 0.673497 0.862303 0.145409
H20   H     H_    0.329647 0.694324 0.788119 0.162227
H21   H     H_    0.293342 0.713589 0.962937 0.122669
C36   C     C_3   0.190490 0.736091 0.813077 -0.842306
H22   H     H_    0.134766 0.716038 0.884229 0.258133
H23   H     H_    0.200671 0.838987 0.807316 0.201583
H24   H     H_    0.172491 0.700591 0.710859 0.266088

loop_
_geom_bond_atom_site_label_1
_geom_bond_atom_site_label_2
_ccdc_geom_bond_type
O8    Zn2   S    
C11   C13   A    
C32   H11   S    
C19   C20   S    
C26   N2    A    
C29   O8    A    
C7    C8    A    
C22   N1    A    
N1    Zn2   S    
C28   H12   S    
C26   C27   S    
C30   H1    S    
C14   C21   S    
C1    O1    A    
C5    C6    A    
C3    C33   A    
C24   N1    A    
C15   C16   A    
C18   C19   A    
C16   H19   S    
O7    Zn1   S    
C12   O4    A    
C16   C17   A    
O1    Zn1   S    
C36   H22   S    
C1    C15   S    
C17   H2    S    
C12   O3    A    
C2    C34   A    
O9    C35   S    
C22   C28   S    
C24   H7    S    
C9    H18   S    
C17   C18   A    
O3    Zn1   S    
C23   O5    A    
C35   H20   S    
C24   C25   A    
C8    C9    A    
C28   H10   S    
C6    C34   A    
C35   H21   S    
C1    O2    A    
C20   H4    S    
C31   C32   A    
C21   H5    S    
C23   O6    A    
N2    Zn1   S    
C36   H24   S    
C33   C34   A    
C8    H17   S    
C3    C4    A    
C4    H14   S    
C27   H9    S    
C29   O7    A    
C14   C19   A    
C25   N2    A    
O2    Zn2   S    
C4    C5    A    
C25   H8    S    
C11   C12   S    
C6    C7    A    
C2    C30   A    
O5    Zn1   S    
C35   C36   S    
C32   C33   A    
C5    C10   A    
C29   C31   S    
C27   O9    S    
O4    Zn2   S    
C20   H3    S    
C10   H15   S    
C30   C31   A    
C21   H6    S    
C18   C23   S    
C3    H13   S    
C10   C11   A    
C13   H16   S    
O6    Zn2   S    
C7    C13   A    
C20   C21   S    
C22   C26   A    
C27   C28   S    
C14   C15   A    
C36   H23   S    
C2    C9    A    
