data_mof_unit_60556.cif
_audit_creation_date              2012-12-10T18:19:10-0500
_audit_creation_method            fapswitch 2.2
_symmetry_space_group_name_H-M    P1
_symmetry_Int_Tables_number       1
_space_group_crystal_system       triclinic
_cell_length_a                    18.445241
_cell_length_b                    18.618118
_cell_length_c                    18.610414
_cell_angle_alpha                 109.550402
_cell_angle_beta                  109.150598
_cell_angle_gamma                 109.236572
_cell_volume                      4948.52298518

loop_
_atom_site_label
_atom_site_type_symbol
_atom_type_description
_atom_site_fract_x
_atom_site_fract_y
_atom_site_fract_z
_atom_type_partial_charge
C1    C     C_R   0.622421 0.500739 0.621011 0.852105
C2    C     C_R   0.377578 0.499260 0.378989 0.852013
C3    C     C_3   0.339618 0.242129 0.508440 -0.398467
C4    C     C_3   0.660560 0.758097 0.491933 -0.398278
C5    C     C_3   0.311999 0.310921 0.502011 0.176450
C6    C     C_3   0.687971 0.689075 0.497959 0.176441
C7    C     C_3   0.189859 0.188041 0.498716 0.177263
C8    C     C_3   0.810138 0.811936 0.501261 0.177231
C9    C     C_3   0.151900 0.194177 0.414275 -0.374494
C10   C     C_3   0.848176 0.805511 0.585507 -0.374317
C11   C     C_3   0.266266 0.168167 0.504108 -0.397126
C12   C     C_3   0.733942 0.832050 0.496285 -0.397374
C13   C     C_3   0.767281 0.595684 0.754847 -0.381467
C14   C     C_3   0.232725 0.404313 0.245143 -0.381415
C15   C     C_3   0.840256 0.596767 0.825820 -0.351610
C16   C     C_3   0.159750 0.403229 0.174169 -0.351652
C17   C     C_3   0.648316 0.464127 0.737958 -0.438061
C18   C     C_3   0.351688 0.535890 0.262055 -0.438048
C19   C     C_3   0.726454 0.442273 0.651042 -0.381667
C20   C     C_3   0.273533 0.557712 0.348957 -0.381679
C21   C     C_3   0.689991 0.500458 0.689417 0.097503
C22   C     C_3   0.310008 0.499541 0.310583 0.097542
C23   C     C_R   0.380113 0.378966 0.501792 0.828923
C24   C     C_R   0.619856 0.621034 0.498179 0.828929
C25   C     C_3   0.809432 0.503668 0.814964 0.033990
C26   C     C_3   0.190568 0.496331 0.185036 0.033991
C27   C     C_3   0.719034 0.468622 0.814821 0.365534
C28   C     C_3   0.280971 0.531390 0.185188 0.365506
C29   C     C_3   0.794761 0.441838 0.725047 -0.519977
C30   C     C_3   0.205228 0.558149 0.274952 -0.519961
C31   C     C_3   0.999436 0.310592 0.809546 0.167824
C32   C     C_3   0.000563 0.689407 0.190453 0.167769
C33   C     C_R   0.997080 0.118649 0.621102 0.829849
C34   C     C_R   0.002920 0.881351 0.378897 0.829781
C35   C     C_R   0.121412 0.119566 0.498218 0.828437
C36   C     C_R   0.878589 0.880408 0.501758 0.828457
C37   C     C_R   0.000266 0.621134 0.121962 0.864375
C38   C     C_R   0.999734 0.378866 0.878038 0.864378
C39   C     C_R   0.878406 0.503625 0.882603 0.889381
C40   C     C_R   0.121594 0.496375 0.117397 0.889378
C41   C     C_3   0.903918 0.178745 0.657280 -0.381320
C42   C     C_3   0.096086 0.821268 0.342712 -0.381334
C43   C     C_3   0.024368 0.180652 0.773883 -0.396377
C44   C     C_3   0.975611 0.819335 0.226109 -0.396342
C45   C     C_3   0.065570 0.350508 0.780745 -0.348165
C46   C     C_3   0.934444 0.649491 0.219268 -0.348161
C47   C     C_3   0.025062 0.253173 0.844838 -0.391769
C48   C     C_3   0.974917 0.746813 0.155154 -0.391733
C49   C     C_3   0.905622 0.252229 0.728589 -0.425644
C50   C     C_3   0.094383 0.747783 0.271404 -0.425620
C51   C     C_3   0.996991 0.187157 0.688864 0.180930
C52   C     C_3   0.003008 0.812842 0.311136 0.180942
C53   C     C_3   0.063769 0.277347 0.709225 -0.428373
C54   C     C_3   0.936245 0.722653 0.290788 -0.428387
C55   C     C_3   0.297051 0.350057 0.580477 -0.364607
C56   C     C_3   0.702631 0.649982 0.419267 -0.364653
C57   C     C_3   0.226281 0.276870 0.579549 -0.412645
C58   C     C_3   0.773409 0.723166 0.420199 -0.412558
C59   C     C_3   0.224766 0.265411 0.415445 -0.418135
C60   C     C_3   0.775297 0.734302 0.584349 -0.418281
H1    H     H_    0.133713 0.392847 0.837504 0.228658
H2    H     H_    0.866297 0.607145 0.162515 0.228658
H3    H     H_    0.352019 0.213393 0.453881 0.182700
H4    H     H_    0.648359 0.786810 0.546658 0.182769
H5    H     H_    0.401985 0.273925 0.570980 0.155602
H6    H     H_    0.598131 0.726507 0.429517 0.155557
H7    H     H_    0.294561 0.162351 0.563339 0.189092
H8    H     H_    0.705608 0.838087 0.437211 0.189010
H9    H     H_    0.241101 0.104658 0.445815 0.147602
H10   H     H_    0.759327 0.895510 0.554750 0.147568
H11   H     H_    0.233266 0.235214 0.358272 0.177865
H12   H     H_    0.766999 0.764470 0.641679 0.177736
H13   H     H_    0.123287 0.130041 0.355136 0.159400
H14   H     H_    0.877011 0.869595 0.644803 0.159576
H15   H     H_    0.743713 0.637858 0.786645 0.224511
H16   H     H_    0.256302 0.362148 0.213347 0.224539
H17   H     H_    0.794627 0.624149 0.719571 0.139231
H18   H     H_    0.205376 0.375837 0.280411 0.139198
H19   H     H_    0.900357 0.618589 0.819015 0.175692
H20   H     H_    0.099644 0.381394 0.180964 0.175701
H21   H     H_    0.130925 0.284550 0.731643 0.174702
H22   H     H_    0.869086 0.715441 0.268377 0.174693
H23   H     H_    0.616588 0.501305 0.761046 0.235014
H24   H     H_    0.383432 0.498728 0.238974 0.235039
H25   H     H_    0.672021 0.373816 0.602536 0.182560
H26   H     H_    0.327960 0.626170 0.397471 0.182564
H27   H     H_    0.757762 0.467832 0.616526 0.180904
H28   H     H_    0.242220 0.532140 0.383463 0.180895
H29   H     H_    0.857791 0.462831 0.723228 0.191622
H30   H     H_    0.142195 0.537147 0.276763 0.191626
H31   H     H_    0.771291 0.373846 0.714152 0.164067
H32   H     H_    0.228695 0.626143 0.285853 0.164058
H33   H     H_    0.594682 0.394832 0.691727 0.115903
H34   H     H_    0.405312 0.605189 0.308292 0.115881
H35   H     H_    0.697176 0.400596 0.803464 0.086760
H36   H     H_    0.302822 0.599415 0.196544 0.086749
H37   H     H_    0.856494 0.222536 0.746828 0.182391
H38   H     H_    0.143500 0.777476 0.253156 0.182395
H39   H     H_    0.854877 0.113783 0.641841 0.151308
H40   H     H_    0.145116 0.886229 0.358140 0.151291
H41   H     H_    0.045156 0.283363 0.649089 0.164058
H42   H     H_    0.954873 0.716645 0.350930 0.164060
H43   H     H_    0.882234 0.183402 0.596492 0.184726
H44   H     H_    0.117784 0.816620 0.403504 0.184729
H45   H     H_    0.885872 0.292537 0.702474 0.150181
H46   H     H_    0.114146 0.707484 0.297524 0.150180
H47   H     H_    0.048130 0.392100 0.755190 0.162913
H48   H     H_    0.951897 0.607907 0.244827 0.162906
H49   H     H_    0.977610 0.115388 0.759972 0.154543
H50   H     H_    0.022358 0.884598 0.240009 0.154537
H51   H     H_    0.977894 0.222757 0.864660 0.175494
H52   H     H_    0.022074 0.777228 0.135321 0.175482
H53   H     H_    0.091729 0.293940 0.903875 0.210421
H54   H     H_    0.908245 0.706037 0.096123 0.210626
H55   H     H_    0.359741 0.384945 0.643486 0.179974
H56   H     H_    0.639860 0.615280 0.356378 0.179849
H57   H     H_    0.255465 0.274567 0.640899 0.182226
H58   H     H_    0.744150 0.725668 0.358985 0.182391
H59   H     H_    0.171983 0.291376 0.577866 0.154652
H60   H     H_    0.827558 0.708502 0.421576 0.154537
H61   H     H_    0.204963 0.314250 0.408762 0.149116
H62   H     H_    0.794955 0.685299 0.590748 0.149223
O1    O     O_R   0.592570 0.552270 0.644860 -0.621333
O2    O     O_R   0.407430 0.447730 0.355140 -0.621337
O3    O     O_R   0.947720 0.540390 0.092600 -0.594129
O4    O     O_R   0.052280 0.459610 0.907400 -0.594129
O5    O     O_R   0.959660 0.552230 0.907350 -0.644053
O6    O     O_R   0.040340 0.447770 0.092650 -0.644053
O7    O     O_R   0.855120 0.447750 0.907440 -0.597469
O8    O     O_R   0.144880 0.552250 0.092560 -0.597463
O9    O     O_R   0.592650 0.447750 0.540350 -0.631544
O10   O     O_R   0.407350 0.552250 0.459650 -0.631568
O11   O     O_R   0.407370 0.459660 0.552260 -0.628304
O12   O     O_R   0.592630 0.540340 0.447740 -0.628289
O13   O     O_R   0.407450 0.355140 0.447760 -0.630422
O14   O     O_R   0.592550 0.644860 0.552240 -0.630431
O15   O     O_R   0.052270 0.092540 0.644860 -0.626494
O16   O     O_R   0.947730 0.907460 0.355140 -0.626516
O17   O     O_R   0.947710 0.092600 0.540380 -0.630249
O18   O     O_R   0.052290 0.907400 0.459620 -0.630264
O19   O     O_R   0.144880 0.092570 0.552230 -0.625990
O20   O     O_R   0.855120 0.907430 0.447770 -0.625985
O21   O     O_R   0.040310 0.092630 0.447750 -0.631016
O22   O     O_R   0.959690 0.907370 0.552250 -0.631038
O23   O     O_R   0.052260 0.644880 0.092510 -0.645257
O24   O     O_R   0.947740 0.355120 0.907490 -0.645260
Zn1   Zn    Zn3+2 0.499940 0.569790 0.569780 0.935743
Zn2   Zn    Zn3+2 0.500060 0.430210 0.430220 0.935773
Zn3   Zn    Zn3+2 0.069820 0.999960 0.569760 0.926870
Zn4   Zn    Zn3+2 0.930180 0.000040 0.430240 0.926866
Zn5   Zn    Zn3+2 0.069800 0.569760 0.999940 0.976261
Zn6   Zn    Zn3+2 0.930200 0.430240 0.000060 0.976260
H63   H     H_    0.858743 0.645479 0.892120 0.213858
H64   H     H_    0.141275 0.354526 0.107870 0.213788
S1    S     S_3+6 0.721995 0.529744 0.915512 -0.031016
O25   O     O_2   0.633704 0.481598 0.907194 -0.293096
O26   O     O_2   0.791471 0.536978 0.991959 -0.340706
O27   O     O_3   0.741293 0.630637 0.933487 -0.609416
H65   H     H_    0.741162 0.658469 0.989034 0.377171
S2    S     S_3+6 0.278020 0.470271 0.084502 -0.030967
O28   O     O_2   0.208511 0.462994 0.008046 -0.340895
O29   O     O_2   0.366296 0.518442 0.092804 -0.292907
O30   O     O_3   0.258778 0.369398 0.066561 -0.609280
H66   H     H_    0.258565 0.341441 0.010837 0.377078
H67   H     H_    0.091452 0.187688 0.799151 0.193481
H68   H     H_    0.908523 0.812289 0.200847 0.193513
H69   H     H_    0.275375 0.398457 0.576537 0.178480
H70   H     H_    0.724172 0.601430 0.422917 0.178646
H71   H     H_    0.098183 0.210438 0.409612 0.182029
H72   H     H_    0.901740 0.789071 0.589858 0.181920

loop_
_geom_bond_atom_site_label_1
_geom_bond_atom_site_label_2
_ccdc_geom_bond_type
C59   H61   S    
C1    C21   S    
S1    O26   D    
C27   H35   S    
O30   H66   S    
C55   H69   S    
C30   H30   S    
C26   C40   S    
C29   H29   S    
O19   Zn3   S    
C20   C30   S    
O16   Zn4   S    
C7    C11   S    
C12   H8    S    
C46   H2    S    
C48   H54   S    
C19   C21   S    
C19   H27   S    
C47   H53   S    
C15   C25   S    
C60   H12   S    
C40   O6    A    
C58   H58   S    
C53   H21   S    
C8    C36   S    
C34   O18   A    
C36   O20   A    
C38   O24   A    
C12   H10   S    
C34   C52   S    
O5    Zn5   S    
C9    H71   S    
O6    Zn6   S    
O21   Zn4   S    
C15   H19   S    
C13   H15   S    
C33   O15   A    
C20   H26   S    
C2    C22   S    
C2    O10   A    
C41   H39   S    
O11   Zn1   S    
C4    C12   S    
C43   C47   S    
C46   C54   S    
C57   H59   S    
C8    C58   S    
C44   C52   S    
C45   C53   S    
C31   C47   S    
S1    O27   S    
C27   S1    S    
C32   C48   S    
O15   Zn3   S    
C3    H5    S    
C9    H13   S    
C31   C49   S    
C41   C49   S    
C38   O4    A    
C11   H7    S    
S1    O25   D    
C37   O3    A    
C43   H67   S    
C25   C29   S    
C13   H17   S    
C50   H38   S    
C39   O5    A    
C5    C59   S    
C17   C27   S    
S2    O30   S    
C6    C60   S    
C7    C35   S    
C18   C28   S    
O7    Zn6   S    
C4    C6    S    
C53   H41   S    
C23   O11   A    
C49   H45   S    
C39   O7    A    
C1    O9    A    
C34   O16   A    
C17   C21   S    
C41   H43   S    
C46   H48   S    
C16   H20   S    
C14   H16   S    
C10   C60   S    
C1    O1    A    
C37   O23   A    
O22   Zn3   S    
O3    Zn6   S    
C42   H40   S    
O2    Zn2   S    
O4    Zn5   S    
C18   H24   S    
C5    C23   S    
C8    C12   S    
C6    C24   S    
C56   H70   S    
C58   H60   S    
C56   H56   S    
C13   C21   S    
O9    Zn2   S    
C44   H68   S    
C32   C37   S    
C60   H62   S    
C14   C22   S    
C32   C50   S    
O23   Zn5   S    
C42   C50   S    
O24   Zn6   S    
C30   H32   S    
C48   H52   S    
C41   C51   S    
C35   O19   A    
C26   C30   S    
C3    H3    S    
C13   C15   S    
C28   S2    S    
C16   H64   S    
O27   H65   S    
C18   H34   S    
C14   C16   S    
C33   C51   S    
C20   C22   S    
C19   C29   S    
C3    C5    S    
C29   H31   S    
C57   H57   S    
C24   O12   A    
C7    C9    S    
C40   O8    A    
C42   C52   S    
C54   H22   S    
C18   C22   S    
O10   Zn1   S    
C32   C46   S    
C5    C55   S    
S2    O29   D    
O1    Zn1   S    
C19   H25   S    
C16   C26   S    
C42   H44   S    
C24   O14   A    
C11   H9    S    
C2    O2    A    
C25   C27   S    
O12   Zn2   S    
C4    H4    S    
O17   Zn4   S    
C26   C28   S    
C31   C38   S    
C23   O13   A    
C28   H36   S    
C54   H42   S    
S2    O28   D    
O20   Zn4   S    
C55   C57   S    
C36   O22   A    
C17   H23   S    
C6    C56   S    
C4    H6    S    
C10   H14   S    
C43   C51   S    
C55   H55   S    
C33   O17   A    
C47   H51   S    
C10   H72   S    
C20   H28   S    
C45   H1    S    
C56   C58   S    
C52   C54   S    
C14   H18   S    
C15   H63   S    
O14   Zn1   S    
C3    C11   S    
C49   H37   S    
C44   C48   S    
C17   H33   S    
C8    C10   S    
O13   Zn2   S    
C31   C45   S    
C59   H11   S    
O8    Zn5   S    
C50   H46   S    
C43   H49   S    
C51   C53   S    
C9    C59   S    
O18   Zn3   S    
C7    C57   S    
C25   C39   S    
C45   H47   S    
C35   O21   A    
C44   H50   S    
