data_mof_unit_23146.cif
_audit_creation_date              2012-10-26T17:10:30-0400
_audit_creation_method            fapswitch 2.2
_symmetry_space_group_name_H-M    P1
_symmetry_Int_Tables_number       1
_space_group_crystal_system       triclinic
_cell_length_a                    16.881336
_cell_length_b                    16.901073
_cell_length_c                    16.853927
_cell_angle_alpha                 67.402167
_cell_angle_beta                  67.536099
_cell_angle_gamma                 67.365739
_cell_volume                      3939.70086121

loop_
_atom_site_label
_atom_site_type_symbol
_atom_type_description
_atom_site_fract_x
_atom_site_fract_y
_atom_site_fract_z
_atom_type_partial_charge
C1    C     C_R   0.588792 0.041893 0.588617 0.023112
C2    C     C_R   0.169272 0.431374 0.982665 0.559197
C3    C     C_R   0.565734 0.025073 0.828876 0.556667
C4    C     C_R   0.434263 0.974935 0.171123 0.556668
C5    C     C_R   0.434710 0.171096 0.973104 0.556892
C6    C     C_R   0.565290 0.828904 0.026896 0.556903
C7    C     C_R   0.973024 0.434814 0.171092 0.556835
C8    C     C_R   0.026976 0.565186 0.828908 0.556835
C9    C     C_R   0.171088 0.975213 0.434154 0.557019
C10   C     C_R   0.828912 0.024775 0.565850 0.557018
C11   C     C_R   0.542679 0.021168 0.542910 0.030378
C12   C     C_R   0.411199 0.958085 0.411400 0.023110
C13   C     C_R   0.457291 0.978809 0.457129 0.030380
C14   C     C_R   0.011297 0.543992 0.548534 0.028806
C15   C     C_R   0.988686 0.456016 0.451469 0.028806
C16   C     C_R   0.543530 0.548940 0.011364 0.028409
C17   C     C_R   0.456470 0.451060 0.988635 0.028409
C18   C     C_R   0.552322 0.931670 0.553666 -0.116344
C19   C     C_R   0.447649 0.068308 0.446373 -0.116342
C20   C     C_R   0.070410 0.538950 0.464239 -0.126445
C21   C     C_R   0.929572 0.461059 0.535763 -0.126448
C22   C     C_R   0.539430 0.464403 0.070380 -0.126621
C23   C     C_R   0.019950 0.594938 0.597524 0.024059
C24   C     C_R   0.460571 0.535597 0.929619 -0.126622
C25   C     C_R   0.509825 0.910483 0.510995 -0.135891
C26   C     C_R   0.490150 0.089494 0.489040 -0.135888
C27   C     C_R   0.496037 0.415647 0.059060 -0.125340
C28   C     C_R   0.503963 0.584354 0.940938 -0.125340
C29   C     C_R   0.059141 0.495079 0.415862 -0.125251
C30   C     C_R   0.940840 0.504929 0.584140 -0.125254
C31   C     C_R   0.547611 0.045299 0.677994 -0.010735
C32   C     C_R   0.452378 0.954728 0.322007 -0.010740
C33   C     C_R   0.002213 0.688680 0.564134 -0.010909
C34   C     C_R   0.980035 0.405067 0.402479 0.024060
C35   C     C_R   0.997774 0.311325 0.435870 -0.010912
C36   C     C_R   0.688407 0.564712 0.001869 -0.010806
C37   C     C_R   0.311593 0.435288 0.998130 -0.010807
C38   C     C_R   0.321492 0.956160 0.452360 -0.011807
C39   C     C_R   0.678512 0.043777 0.547657 -0.011808
C40   C     C_R   0.449726 0.320480 0.957707 -0.010593
C41   C     C_R   0.550274 0.679520 0.042293 -0.010593
C42   C     C_R   0.957320 0.449596 0.320866 -0.012138
C43   C     C_R   0.042669 0.550407 0.679136 -0.012138
C44   C     C_R   0.600920 0.036557 0.730979 -0.011696
C45   C     C_R   0.594612 0.598047 0.019686 0.024361
C46   C     C_R   0.399076 0.963456 0.269021 -0.011697
C47   C     C_R   0.018883 0.735655 0.607755 -0.009429
C48   C     C_R   0.981111 0.264347 0.392246 -0.009431
C49   C     C_R   0.735604 0.607926 0.018677 -0.009016
C50   C     C_R   0.264396 0.392074 0.981322 -0.009016
C51   C     C_R   0.268833 0.964054 0.399033 -0.011855
C52   C     C_R   0.731168 0.035920 0.600973 -0.011857
C53   C     C_R   0.398028 0.268093 0.963451 -0.010580
C54   C     C_R   0.601972 0.731906 0.036548 -0.010580
C55   C     C_R   0.963183 0.398092 0.268218 -0.010643
C56   C     C_R   0.405388 0.401953 0.980313 0.024360
C57   C     C_R   0.036813 0.601909 0.731782 -0.010644
C58   C     C_R   0.691329 0.032225 0.691347 -0.170679
C59   C     C_R   0.308670 0.967775 0.308653 -0.170678
C60   C     C_R   0.031967 0.692313 0.692720 -0.168988
C61   C     C_R   0.968032 0.307687 0.307280 -0.168985
C62   C     C_R   0.692424 0.692688 0.031768 -0.169904
C63   C     C_R   0.307576 0.307312 0.968231 -0.169905
C64   C     C_3   0.447289 0.058901 0.714919 -0.370047
C65   C     C_3   0.552692 0.941193 0.285070 -0.370057
C66   C     C_3   0.960707 0.737758 0.486335 -0.372360
C67   C     C_R   0.017400 0.830698 0.568633 0.560461
C68   C     C_3   0.039273 0.262250 0.513675 -0.372358
C69   C     C_3   0.737314 0.487439 0.960039 -0.372110
C70   C     C_3   0.262687 0.512561 0.039960 -0.372111
C71   C     C_3   0.283847 0.945144 0.552453 -0.370213
C72   C     C_3   0.716176 0.054703 0.447578 -0.370221
C73   C     C_3   0.550886 0.291557 0.926225 -0.373101
C74   C     C_3   0.449114 0.708442 0.073775 -0.373100
C75   C     C_3   0.925754 0.550766 0.292003 -0.373463
C76   C     C_3   0.074232 0.449237 0.707998 -0.373463
C77   C     C_R   0.982599 0.169302 0.431367 0.560475
C78   C     C_R   0.830728 0.568626 0.017335 0.559197
Cu1   Cu    Cu3+1 0.995180 0.995180 0.424630 0.889144
Cu2   Cu    Cu3+1 0.004820 0.004820 0.575370 0.889148
Cu3   Cu    Cu3+1 0.995180 0.424630 0.995180 0.889153
Cu4   Cu    Cu3+1 0.004820 0.575370 0.004820 0.889153
Cu5   Cu    Cu3+1 0.424630 0.995180 0.995180 0.890986
Cu6   Cu    Cu3+1 0.575370 0.004820 0.004820 0.890979
H1    H     H_    0.482342 0.158765 0.480251 0.106122
H2    H     H_    0.570350 0.436262 0.124602 0.109814
H3    H     H_    0.875293 0.430578 0.563963 0.110053
H4    H     H_    0.124689 0.569430 0.436039 0.110053
H5    H     H_    0.731943 0.023963 0.732092 0.156249
H6    H     H_    0.268054 0.976046 0.267905 0.156250
H7    H     H_    0.035101 0.730157 0.730222 0.155221
H8    H     H_    0.964904 0.269841 0.269776 0.155222
H9    H     H_    0.730395 0.729930 0.035005 0.154318
H10   H     H_    0.269605 0.270070 0.964995 0.154318
H11   H     H_    0.416561 0.113085 0.748361 0.144519
H12   H     H_    0.517641 0.841213 0.519776 0.106119
H13   H     H_    0.412782 0.080712 0.662779 0.120062
H14   H     H_    0.432725 0.995680 0.761894 0.151829
H15   H     H_    0.587201 0.919434 0.337198 0.120072
H16   H     H_    0.583459 0.886999 0.251639 0.144534
H17   H     H_    0.567210 0.004429 0.238083 0.151820
H18   H     H_    0.012093 0.757908 0.423801 0.147462
H19   H     H_    0.929953 0.697451 0.474571 0.123992
H20   H     H_    0.904882 0.796944 0.500711 0.145746
H21   H     H_    0.070017 0.302560 0.525446 0.123993
H22   H     H_    0.987886 0.242095 0.576205 0.147464
H23   H     H_    0.894350 0.509288 0.648831 0.107726
H24   H     H_    0.095104 0.203067 0.499299 0.145759
H25   H     H_    0.757491 0.424687 0.011413 0.147265
H26   H     H_    0.696839 0.476279 0.928883 0.123613
H27   H     H_    0.796475 0.501904 0.904335 0.147164
H28   H     H_    0.303162 0.523721 0.071115 0.123614
H29   H     H_    0.242509 0.575313 0.988586 0.147265
H30   H     H_    0.203526 0.498096 0.095665 0.147165
H31   H     H_    0.335219 0.925409 0.587283 0.120887
H32   H     H_    0.236303 0.008891 0.565279 0.147271
H33   H     H_    0.251019 0.890521 0.584576 0.148386
H34   H     H_    0.105632 0.490720 0.351171 0.107726
H35   H     H_    0.664824 0.074354 0.412747 0.120901
H36   H     H_    0.748977 0.109348 0.415401 0.148400
H37   H     H_    0.763746 0.990941 0.434814 0.147253
H38   H     H_    0.574043 0.256153 0.874443 0.144137
H39   H     H_    0.578906 0.349580 0.893580 0.122384
H40   H     H_    0.578590 0.248015 0.983711 0.145050
H41   H     H_    0.421095 0.650419 0.106421 0.122383
H42   H     H_    0.425957 0.743847 0.125557 0.144139
H43   H     H_    0.421410 0.751984 0.016289 0.145052
H44   H     H_    0.874272 0.574181 0.256029 0.145489
H45   H     H_    0.507635 0.649165 0.894438 0.109767
H46   H     H_    0.892814 0.578700 0.350215 0.122803
H47   H     H_    0.983162 0.578289 0.248914 0.142455
H48   H     H_    0.107166 0.421303 0.649785 0.122803
H49   H     H_    0.125718 0.425819 0.743968 0.145488
H50   H     H_    0.016823 0.421716 0.751091 0.142455
H51   H     H_    0.492365 0.350836 0.105561 0.109765
H52   H     H_    0.407147 0.121549 0.404931 0.110127
H53   H     H_    0.592829 0.878429 0.595103 0.110128
H54   H     H_    0.429650 0.563739 0.875397 0.109813
O1    O     O_R   0.124540 0.978640 0.385460 -0.508405
O2    O     O_R   0.124540 0.385460 0.978640 -0.512834
O3    O     O_R   0.021360 0.875460 0.614540 -0.512146
O4    O     O_R   0.978640 0.124540 0.385460 -0.512135
O5    O     O_R   0.013780 0.867370 0.487190 -0.514613
O6    O     O_R   0.986220 0.132630 0.512810 -0.514607
O7    O     O_R   0.867370 0.487190 0.013780 -0.514810
O8    O     O_R   0.132630 0.512810 0.986220 -0.514810
O9    O     O_R   0.487190 0.013780 0.867370 -0.515208
O10   O     O_R   0.512810 0.986220 0.132630 -0.515216
O11   O     O_R   0.512810 0.132630 0.986220 -0.511532
O12   O     O_R   0.875460 0.021360 0.614540 -0.508402
O13   O     O_R   0.487190 0.867370 0.013780 -0.511525
O14   O     O_R   0.986220 0.512810 0.132630 -0.516137
O15   O     O_R   0.013780 0.487190 0.867370 -0.516138
O16   O     O_R   0.132630 0.986220 0.512810 -0.519872
O17   O     O_R   0.867370 0.013780 0.487190 -0.519879
O18   O     O_R   0.978640 0.385460 0.124540 -0.509520
O19   O     O_R   0.021360 0.614540 0.875460 -0.509520
O20   O     O_R   0.385460 0.124540 0.978640 -0.512118
O21   O     O_R   0.614540 0.875460 0.021360 -0.512111
O22   O     O_R   0.614540 0.021360 0.875460 -0.511261
O23   O     O_R   0.385460 0.978640 0.124540 -0.511259
O24   O     O_R   0.875460 0.614540 0.021360 -0.512835

loop_
_geom_bond_atom_site_label_1
_geom_bond_atom_site_label_2
_ccdc_geom_bond_type
C16   C28   A    
Cu3   O2    S    
Cu1   O1    S    
C21   H3    S    
C11   C18   A    
C3    O9    A    
C72   H37   S    
C40   C56   A    
C66   H18   S    
C34   C42   A    
C7    C55   S    
C10   C52   S    
C6    O21   A    
Cu6   O22   S    
C5    O11   A    
C4    C46   S    
C70   H30   S    
Cu2   O12   S    
C63   H10   S    
C42   C75   S    
Cu3   O18   S    
C28   H45   S    
C5    C53   S    
C14   C30   A    
C34   C35   A    
C30   H23   S    
C64   H11   S    
C74   H41   S    
C35   C48   A    
C4    O10   A    
C55   C61   A    
C1    C31   A    
Cu3   O15   S    
C49   C78   S    
C75   H44   S    
C19   C26   A    
C77   O4    A    
C53   C63   A    
C2    C50   S    
C78   O7    A    
C41   C74   S    
C37   C56   A    
C69   H25   S    
Cu1   O5    S    
C7    O18   A    
Cu5   Cu6   S    
C44   C58   A    
C23   C33   A    
C9    C51   S    
C39   C72   S    
C65   H17   S    
C15   C34   S    
C75   H46   S    
Cu6   O11   S    
C64   H14   S    
C39   C52   A    
C47   C60   A    
C67   O5    A    
C37   C70   S    
C12   C32   A    
C12   C38   A    
C50   C63   A    
C13   C25   A    
C18   C25   A    
C68   H22   S    
C6    C54   S    
C8    O19   A    
C66   H19   S    
C47   C67   S    
Cu4   O8    S    
Cu6   O21   S    
C75   H47   S    
C33   C66   S    
C15   C29   A    
Cu5   O13   S    
C20   C29   A    
Cu6   O10   S    
C70   H29   S    
C3    C44   S    
C17   C24   A    
C31   C44   A    
C71   H33   S    
C17   C27   A    
C14   C20   A    
C65   H15   S    
Cu4   O19   S    
C76   H50   S    
C57   C60   A    
C38   C51   A    
Cu4   O24   S    
C11   C26   A    
Cu2   O6    S    
C19   H52   S    
Cu3   Cu4   S    
Cu1   Cu2   S    
C59   H6    S    
C48   C77   S    
C16   C45   S    
C18   H53   S    
C66   H20   S    
C42   C55   A    
C69   H26   S    
C1    C39   A    
C74   H43   S    
C73   H40   S    
C72   H36   S    
C71   H31   S    
C36   C45   A    
Cu2   O16   S    
C8    O15   A    
C17   C56   S    
C52   C58   A    
C25   H12   S    
Cu5   O9    S    
C6    O13   A    
C64   H13   S    
C9    O16   A    
C5    O20   A    
Cu3   O7    S    
C22   C27   A    
C3    O22   A    
C33   C47   A    
C51   C59   A    
C68   H21   S    
C67   O3    A    
C69   H27   S    
C36   C69   S    
C29   H34   S    
C60   H7    S    
C43   C76   S    
C38   C71   S    
C16   C22   A    
C49   C62   A    
C23   C43   A    
C32   C46   A    
C31   C64   S    
C73   H38   S    
C24   C28   A    
C65   H16   S    
C10   O17   A    
C76   H49   S    
C40   C53   A    
C78   O24   A    
C14   C23   S    
C2    O8    A    
C54   C62   A    
C21   C30   A    
C24   H54   S    
C77   O6    A    
C2    O2    A    
C76   H48   S    
C10   O12   A    
C37   C50   A    
C9    O1    A    
C48   C61   A    
C74   H42   S    
Cu5   O20   S    
C35   C68   S    
C26   H1    S    
C20   H4    S    
C72   H35   S    
C61   H8    S    
C71   H32   S    
C22   H2    S    
Cu5   O23   S    
C70   H28   S    
C58   H5    S    
C41   C54   A    
C43   C57   A    
Cu1   O17   S    
C7    O14   A    
Cu1   O4    S    
C15   C21   A    
C12   C13   S    
C46   C59   A    
Cu2   O3    S    
C62   H9    S    
C13   C19   A    
C41   C45   A    
C4    O23   A    
C1    C11   S    
C68   H24   S    
C40   C73   S    
C27   H51   S    
C8    C57   S    
Cu4   O14   S    
C36   C49   A    
C32   C65   S    
C73   H39   S    
