data_mof_unit_6552.cif
_audit_creation_date              2012-12-10T20:25:40-0500
_audit_creation_method            fapswitch 2.2
_symmetry_space_group_name_H-M    P1
_symmetry_Int_Tables_number       1
_space_group_crystal_system       triclinic
_cell_length_a                    8.580453
_cell_length_b                    10.6788
_cell_length_c                    9.863307
_cell_angle_alpha                 90.685714
_cell_angle_beta                  97.495026
_cell_angle_gamma                 89.760341
_cell_volume                      895.975484575

loop_
_atom_site_label
_atom_site_type_symbol
_atom_type_description
_atom_site_fract_x
_atom_site_fract_y
_atom_site_fract_z
_atom_type_partial_charge
C1    C     C_R   0.496522 0.259811 0.498817 0.877425
C2    C     C_R   0.437857 0.933474 0.371892 -0.150338
C3    C     C_R   0.458038 0.871322 0.497902 -0.156430
C4    C     C_R   0.445498 0.939192 0.618554 0.162546
C5    C     C_3   0.536936 0.934049 0.759424 0.300965
C6    C     C_3   0.562908 0.074178 0.750063 -0.533691
C7    C     C_R   0.432261 0.403932 0.062142 0.209239
C8    C     C_R   0.585969 0.584768 0.082931 -0.108562
C9    C     C_R   0.587751 0.583647 0.938960 -0.007895
C10   C     C_R   0.433067 0.403513 0.919992 0.184933
C11   C     C_3   0.267146 0.359911 0.893812 -0.465729
C12   C     C_R   0.201547 0.502750 0.465501 1.014759
C13   C     C_3   0.265167 0.362526 0.047885 -0.473728
C14   C     C_R   0.491142 0.740156 0.499973 0.968292
C15   C     C_R   0.797951 0.506991 0.534277 0.875239
C16   C     C_2   0.037532 0.494012 0.450597 -0.528063
C17   C     C_2   0.957257 0.541130 0.546611 0.266211
C18   C     C_R   0.460523 0.066453 0.616199 0.051242
C19   C     C_R   0.470623 0.128504 0.494934 -0.110085
C20   C     C_R   0.443377 0.062959 0.370357 -0.184074
H1    H     H_    0.984557 0.430788 0.370210 0.148499
H2    H     H_    0.654435 0.653648 0.893068 0.181013
H3    H     H_    0.187311 0.429304 0.838358 0.259821
H4    H     H_    0.258128 0.263819 0.849036 0.223822
H5    H     H_    0.185539 0.435427 0.082135 0.229688
H6    H     H_    0.252911 0.268040 0.091318 0.215673
H7    H     H_    0.438175 0.110022 0.273154 0.193570
H8    H     H_    0.430721 0.882827 0.275593 0.220700
H9    H     H_    0.646127 0.877307 0.766053 0.106778
H10   H     H_    0.510738 0.133221 0.826099 0.245803
H11   H     H_    0.686352 0.098266 0.738168 0.177221
H12   H     H_    0.651429 0.655521 0.145574 0.181774
N1    N     N_R   0.498950 0.499140 0.142680 -0.121625
N2    N     N_R   0.498950 0.499180 0.857030 -0.101392
O1    O     O_R   0.500020 0.316790 0.614690 -0.627244
O2    O     O_R   0.500000 0.316760 0.385350 -0.629755
O3    O     O_R   0.271760 0.500010 0.587850 -0.571784
O4    O     O_R   0.271740 0.499970 0.358500 -0.629333
O5    O     O_R   0.500000 0.683240 0.614650 -0.567245
O6    O     O_R   0.499980 0.683210 0.385310 -0.631167
O7    O     O_R   0.728260 0.500030 0.641500 -0.596857
O8    O     O_R   0.728240 0.499990 0.412150 -0.634494
Zn1   Zn    Zn3+2 0.500010 0.500020 0.653130 1.035368
Zn2   Zn    Zn3+2 0.499990 0.499980 0.346870 0.966866
S1    S     S_3+6 0.014589 0.673384 0.652145 0.054270
O9    O     O_2   0.048154 0.633240 0.798373 -0.311297
O10   O     O_2   0.155694 0.736925 0.609031 -0.265925
O11   O     O_3   0.864616 0.776055 0.638630 -0.604763
H13   H     H_    0.908315 0.852602 0.686812 0.382980
S2    S     S_3+6 0.415175 0.900159 0.889138 0.021702
O12   O     O_2   0.514553 0.907885 0.026143 -0.362393
O13   O     O_2   0.282716 0.993265 0.885135 -0.300530
O14   O     O_3   0.338972 0.756234 0.865557 -0.468575
H14   H     H_    0.296310 0.737744 0.951752 0.386573

loop_
_geom_bond_atom_site_label_1
_geom_bond_atom_site_label_2
_ccdc_geom_bond_type
O3    Zn1   S    
C7    C10   A    
S2    O13   D    
O4    Zn2   S    
C16   H1    S    
C20   H7    S    
C11   C13   S    
C15   O8    A    
C19   C20   A    
O6    Zn2   S    
C4    C18   A    
C6    H11   S    
C8    C9    A    
C5    S2    S    
C10   N2    A    
O14   H14   S    
O7    Zn1   S    
C15   O7    A    
C9    N2    A    
C3    C14   S    
O8    Zn2   S    
C11   H3    S    
O11   H13   S    
C6    H10   S    
C17   S1    S    
C2    C3    A    
C5    H9    S    
C8    N1    A    
S1    O10   D    
C12   O4    A    
C5    C6    S    
C6    C18   S    
C13   H6    S    
O2    Zn2   S    
S2    O14   S    
C1    C19   S    
C10   C11   S    
C7    N1    A    
C14   O6    A    
C3    C4    A    
C8    H12   S    
C16   C17   D    
C11   H4    S    
C7    C13   S    
O1    Zn1   S    
C1    O1    A    
C9    H2    S    
S1    O11   S    
C12   O3    A    
C15   C17   S    
C18   C19   A    
C2    H8    S    
S2    O12   D    
C14   O5    A    
S1    O9    D    
N1    Zn2   S    
C2    C20   A    
O5    Zn1   S    
N2    Zn1   S    
C12   C16   S    
C1    O2    A    
C4    C5    S    
C13   H5    S    
