data_mof_unit_20441.cif
_audit_creation_date              2012-12-10T16:50:07-0500
_audit_creation_method            fapswitch 2.2
_symmetry_space_group_name_H-M    P1
_symmetry_Int_Tables_number       1
_space_group_crystal_system       triclinic
_cell_length_a                    23.475661
_cell_length_b                    8.687662
_cell_length_c                    7.506957
_cell_angle_alpha                 103.611261
_cell_angle_beta                  93.996373
_cell_angle_gamma                 93.247387
_cell_volume                      1480.19666127

loop_
_atom_site_label
_atom_site_type_symbol
_atom_type_description
_atom_site_fract_x
_atom_site_fract_y
_atom_site_fract_z
_atom_type_partial_charge
C1    C     C_R   0.497886 0.199643 0.452870 0.854801
C2    C     C_R   0.502069 0.800356 0.547139 0.853912
C3    C     C_R   0.236779 0.562938 0.390031 0.545546
C4    C     C_R   0.755876 0.447890 0.327617 0.543526
C5    C     C_R   0.296435 0.565127 0.386682 -0.302417
C6    C     C_R   0.696286 0.444684 0.330055 -0.269198
C7    C     C_R   0.329089 0.497291 0.507690 -0.092056
C8    C     C_R   0.671350 0.506900 0.493735 -0.101142
C9    C     C_R   0.301975 0.426858 0.632434 -0.201161
C10   C     C_R   0.706576 0.574668 0.654889 -0.210317
C11   C     C_R   0.242674 0.423328 0.635320 -0.210137
C12   C     C_R   0.765780 0.578076 0.653305 -0.178907
C13   C     C_R   0.210165 0.493678 0.517114 0.269273
C14   C     C_R   0.791098 0.511584 0.492115 0.233228
C15   C     C_2   0.495729 0.031023 0.427410 -0.362284
C16   C     C_2   0.504150 0.968974 0.572633 -0.359774
C17   C     C_R   0.391272 0.499088 0.502405 0.798348
C18   C     C_R   0.608862 0.501798 0.497769 0.803309
C19   C     C_R   0.886349 0.646057 0.562551 0.537206
C20   C     C_R   0.115948 0.357799 0.445705 0.545213
C21   C     C_R   0.876129 0.365055 0.441725 0.612843
C22   C     C_R   0.126334 0.631866 0.604391 0.601868
C23   C     C_R   0.935907 0.359448 0.436826 -0.124045
C24   C     C_R   0.066439 0.638821 0.601243 -0.105324
C25   C     C_R   0.971057 0.500966 0.510095 -0.087880
C26   C     C_R   0.031272 0.499247 0.517347 -0.075505
C27   C     C_R   0.946078 0.644209 0.577699 -0.045394
C28   C     C_R   0.056224 0.357363 0.441906 -0.063571
C29   C     C_R   0.961516 0.217648 0.360959 0.485955
C30   C     C_R   0.040781 0.780721 0.676166 0.478979
C31   C     C_R   0.021206 0.218499 0.363557 -0.288728
C32   C     C_R   0.980995 0.782237 0.660952 -0.244175
Cu1   Cu    Cu3+1 0.506340 0.517380 0.684380 1.025316
Cu2   Cu    Cu3+1 0.493660 0.482620 0.315620 1.022542
H1    H     H_    0.039947 0.108476 0.306205 0.200534
H2    H     H_    0.961929 0.891298 0.719503 0.180471
H3    H     H_    0.317329 0.622834 0.292914 0.172435
H4    H     H_    0.669677 0.391718 0.204295 0.187498
H5    H     H_    0.326543 0.372666 0.725546 0.184882
H6    H     H_    0.688410 0.625735 0.782352 0.165859
H7    H     H_    0.221873 0.366681 0.729962 0.150509
H8    H     H_    0.792267 0.632093 0.778402 0.160144
H9    H     H_    0.486644 0.957712 0.288536 0.165105
H10   H     H_    0.513205 0.042288 0.711529 0.165684
N1    N     N_R   0.852506 0.507573 0.497423 -0.472116
N2    N     N_R   0.149406 0.493827 0.524692 -0.460403
N3    N     N_2   0.484110 0.456420 0.038520 0.156832
N4    N     N_2   0.515890 0.543580 0.961480 0.156050
O1    O     O_R   0.504120 0.286130 0.619770 -0.554997
O2    O     O_R   0.495880 0.713870 0.380230 -0.556528
O3    O     O_R   0.493410 0.256770 0.308360 -0.626169
O4    O     O_R   0.506590 0.743230 0.691640 -0.625183
O5    O     O_R   0.423230 0.514630 0.655730 -0.535924
O6    O     O_R   0.576770 0.485370 0.344270 -0.539922
O7    O     O_R   0.412530 0.485280 0.344320 -0.590094
O8    O     O_R   0.587470 0.514720 0.655680 -0.588371
O9    O     O_2   0.862254 0.785640 0.611543 -0.528335
O10   O     O_2   0.140527 0.223972 0.369279 -0.532766
O11   O     O_2   0.841805 0.229420 0.393854 -0.438876
O12   O     O_2   0.161524 0.761733 0.683842 -0.470116
O13   O     O_3   0.928732 0.075835 0.292094 -0.535565
C33   C     C_3   0.925926 0.039987 0.098304 -0.196717
H11   H     H_    0.907755 0.136981 0.043467 0.173359
H12   H     H_    0.897103 0.930861 0.043401 0.202480
H13   H     H_    0.968686 0.015577 0.047730 0.142980
O14   O     O_3   0.073615 0.913275 0.779615 -0.544617
C34   C     C_3   0.073955 0.033803 0.682641 -0.189365
H14   H     H_    0.087636 0.990412 0.541560 0.194483
H15   H     H_    0.105415 0.132059 0.756643 0.192013
H16   H     H_    0.031470 0.083580 0.677505 0.133261
O15   O     O_3   0.204366 0.638481 0.280155 -0.555556
C35   C     C_3   0.202239 0.550680 0.095973 -0.284603
H17   H     H_    0.186548 0.424427 0.080994 0.162261
H18   H     H_    0.244696 0.557951 0.040317 0.165264
H19   H     H_    0.171617 0.602838 0.011694 0.216672
O16   O     O_3   0.778946 0.378359 0.166476 -0.551095
C36   C     C_3   0.798254 0.499002 0.083917 -0.307797
H20   H     H_    0.833771 0.577788 0.170457 0.173744
H21   H     H_    0.762488 0.570339 0.053617 0.158860
H22   H     H_    0.815287 0.442129 0.952160 0.197273
O17   O     O_3   0.435538 0.392597 0.935404 -0.485191
C37   C     C_3   0.423654 0.240148 0.963215 -0.133314
H23   H     H_    0.402032 0.246067 0.090822 0.172125
H24   H     H_    0.462672 0.173200 0.963342 0.135414
H25   H     H_    0.393604 0.171933 0.847290 0.124516
O18   O     O_3   0.564600 0.606783 0.064201 -0.479540
C38   C     C_3   0.576449 0.759567 0.037326 -0.121525
H26   H     H_    0.537481 0.826876 0.038997 0.131548
H27   H     H_    0.597555 0.754285 0.908948 0.159723
H28   H     H_    0.606908 0.826919 0.152607 0.132856

loop_
_geom_bond_atom_site_label_1
_geom_bond_atom_site_label_2
_ccdc_geom_bond_type
C38   H26   S    
C5    H3    S    
O17   C37   S    
C36   H20   S    
C19   O9    S    
Cu1   O4    S    
Cu2   O3    S    
C32   H2    S    
C22   C24   A    
C24   C26   A    
C21   O11   S    
C22   O12   S    
C13   N2    S    
Cu1   O1    S    
C15   C16   D    
C9    H5    S    
C10   H6    S    
C33   H12   S    
C2    O2    A    
C7    C17   S    
C12   H8    S    
C6    H4    S    
C1    C15   S    
C2    C16   S    
C17   O7    A    
C3    C13   A    
C18   O8    A    
Cu1   O8    S    
C23   C25   A    
O14   C34   S    
C17   O5    A    
Cu2   O7    S    
C35   H19   S    
C10   C12   A    
C14   N1    S    
C21   N1    A    
C36   H21   S    
Cu1   O5    S    
C29   O13   S    
Cu2   O2    S    
C34   H14   S    
O16   C36   S    
C35   H18   S    
C5    C7    A    
O18   C38   S    
C6    C8    A    
C20   C28   A    
C25   C26   A    
C8    C18   S    
C34   H15   S    
C3    O15   S    
C33   H11   S    
C1    O3    A    
N3    N4    D    
Cu1   Cu2   S    
C9    C11   A    
C30   O14   S    
C2    O4    A    
C4    C6    A    
C22   N2    A    
C12   C14   A    
Cu2   O6    S    
C37   H24   S    
C21   C23   A    
C31   H1    S    
C20   O10   S    
C23   C29   A    
C19   C27   A    
C36   H22   S    
C7    C9    A    
C16   H10   S    
C33   H13   S    
C27   C32   A    
C28   C31   A    
C35   H17   S    
C3    C5    A    
C19   N1    A    
C25   C27   A    
C37   H25   S    
C26   C28   A    
C34   H16   S    
C38   H27   S    
C15   H9    S    
O15   C35   S    
C29   C31   A    
C30   C32   A    
C11   C13   A    
C11   H7    S    
N4    O18   S    
N3    O17   S    
C4    C14   A    
O13   C33   S    
C24   C30   A    
C4    O16   S    
C18   O6    A    
C8    C10   A    
C37   H23   S    
C38   H28   S    
Cu1   N4    S    
Cu2   N3    S    
C1    O1    A    
C20   N2    A    
