data_mof_unit_43844.cif
_audit_creation_date              2013-03-05T15:41:33-0500
_audit_creation_method            fapswitch 2.2
_symmetry_space_group_name_H-M    P1
_symmetry_Int_Tables_number       1
_space_group_crystal_system       triclinic
_cell_length_a                    24.490292
_cell_length_b                    17.433246
_cell_length_c                    15.600102
_cell_angle_alpha                 90.028475
_cell_angle_beta                  129.12667
_cell_angle_gamma                 90.409393
_cell_volume                      5166.57642618

loop_
_atom_site_label
_atom_site_type_symbol
_atom_site_description
_atom_site_fract_x
_atom_site_fract_y
_atom_site_fract_z
_atom_type_partial_charge
C1    C     C_R   0.343941 0.366333 0.225453 0.250541
C2    C     C_R   0.339951 0.625196 0.215526 0.276199
C3    C     C_R   0.842917 0.867796 0.222492 0.258908
C4    C     C_R   0.832089 0.102104 0.196891 0.255653
N1    N     N_R   0.389430 0.421450 0.294590 -0.079143
N2    N     N_R   0.389430 0.578550 0.294590 -0.074653
N3    N     N_R   0.889430 0.921450 0.294590 -0.077545
N4    N     N_R   0.889430 0.078550 0.294590 -0.073299
C5    C     C_R   0.648331 0.359841 0.752540 -0.102089
C6    C     C_R   0.667625 0.606898 0.799387 -0.117487
C7    C     C_R   0.167124 0.893152 0.798433 -0.130419
C8    C     C_R   0.168123 0.105164 0.800935 -0.124207
H1    H     H_    0.696078 0.345457 0.766337 0.095936
H2    H     H_    0.720243 0.604663 0.825760 0.085190
H3    H     H_    0.219637 0.895705 0.824360 0.087979
H4    H     H_    0.220823 0.102539 0.827594 0.086187
N5    N     N_R   0.612200 0.424040 0.705410 -0.049223
N6    N     N_R   0.612200 0.575960 0.705410 -0.041848
N7    N     N_R   0.112200 0.924040 0.705410 -0.046508
N8    N     N_R   0.112200 0.075960 0.705410 -0.041869
C9    C     C_R   0.617231 0.397308 0.410895 -0.113488
C10   C     C_R   0.589188 0.645053 0.411996 -0.098714
C11   C     C_R   0.091601 0.858359 0.409502 -0.063010
C12   C     C_R   0.086486 0.146217 0.411073 -0.102163
H5    H     H_    0.599482 0.399821 0.328322 0.164027
H6    H     H_    0.563275 0.660887 0.328587 0.137876
H7    H     H_    0.069084 0.845918 0.326425 0.137786
H8    H     H_    0.056843 0.163268 0.326501 0.141383
N9    N     N_R   0.581780 0.422390 0.443390 -0.043916
N10   N     N_R   0.581780 0.577610 0.443390 -0.045985
N11   N     N_R   0.081780 0.922390 0.443390 -0.039044
N12   N     N_R   0.081780 0.077610 0.443390 -0.043811
C13   C     C_R   0.385591 0.399532 0.592372 -0.150806
C14   C     C_R   0.388368 0.605377 0.594058 -0.111180
C15   C     C_R   0.886457 0.899165 0.593407 -0.139646
C16   C     C_R   0.914348 0.141645 0.594589 -0.136312
H9    H     H_    0.407464 0.399379 0.677984 0.095113
H10   H     H_    0.411938 0.609461 0.680305 0.087794
H11   H     H_    0.909496 0.897314 0.679543 0.092710
H12   H     H_    0.941915 0.153574 0.680903 0.099717
N13   N     N_R   0.419850 0.423100 0.556610 -0.041223
N14   N     N_R   0.419850 0.576900 0.556610 -0.036221
N15   N     N_R   0.919850 0.923100 0.556610 -0.039945
N16   N     N_R   0.919850 0.076900 0.556610 -0.040958
C17   C     C_R   0.689402 0.397477 0.593636 -0.153467
C18   C     C_R   0.664482 0.641575 0.595198 -0.143411
C19   C     C_R   0.165427 0.859634 0.593432 -0.110783
C20   C     C_R   0.162911 0.142705 0.594552 -0.133303
H13   H     H_    0.736300 0.399470 0.679274 0.100979
H14   H     H_    0.709698 0.650130 0.680269 0.112936
H15   H     H_    0.209125 0.848193 0.678733 0.091337
H16   H     H_    0.207736 0.152179 0.679717 0.113583
N17   N     N_R   0.627410 0.423100 0.556610 -0.041924
N18   N     N_R   0.627410 0.576900 0.556610 -0.043767
N19   N     N_R   0.127410 0.923100 0.556610 -0.037662
N20   N     N_R   0.127410 0.076900 0.556610 -0.041280
C21   C     C_R   0.311368 0.400933 0.410028 -0.146246
C22   C     C_R   0.312524 0.600947 0.410906 0.000096
C23   C     C_R   0.811361 0.902311 0.411080 -0.138982
C24   C     C_R   0.841173 0.144197 0.410303 -0.080038
H17   H     H_    0.263203 0.408234 0.327660 0.147045
H18   H     H_    0.263719 0.594637 0.328553 0.108433
H19   H     H_    0.762929 0.911208 0.329503 0.147918
H20   H     H_    0.800359 0.159519 0.325957 0.163989
N21   N     N_R   0.374220 0.422390 0.443390 -0.041020
N22   N     N_R   0.374220 0.577610 0.443390 -0.039605
N23   N     N_R   0.874220 0.922390 0.443390 -0.039717
N24   N     N_R   0.874220 0.077610 0.443390 -0.049092
C25   C     C_R   0.556878 0.359447 0.753485 -0.123220
C26   C     C_R   0.576992 0.608471 0.800794 -0.099986
C27   C     C_R   0.076394 0.891011 0.799845 -0.136065
C28   C     C_R   0.077895 0.105539 0.802816 -0.143401
H21   H     H_    0.520139 0.343508 0.766998 0.105260
H22   H     H_    0.547395 0.608218 0.830703 0.099010
H23   H     H_    0.046588 0.890241 0.829389 0.101969
H24   H     H_    0.049080 0.102906 0.834001 0.097453
N25   N     N_R   0.555000 0.424040 0.705410 -0.047878
N26   N     N_R   0.555000 0.575960 0.705410 -0.041636
N27   N     N_R   0.055000 0.924040 0.705410 -0.044667
N28   N     N_R   0.055000 0.075960 0.705410 -0.039177
C29   C     C_R   0.434784 0.366647 0.223685 0.237659
C30   C     C_R   0.428483 0.622083 0.208963 0.279270
C31   C     C_R   0.930275 0.873344 0.213519 0.227751
C32   C     C_R   0.921881 0.103178 0.193856 0.281168
N29   N     N_R   0.446630 0.421450 0.294590 -0.078327
N30   N     N_R   0.446630 0.578550 0.294590 -0.076433
N31   N     N_R   0.946630 0.921450 0.294590 -0.080066
N32   N     N_R   0.946630 0.078550 0.294590 -0.072673
C33   C     C_R   0.373504 0.327818 0.185642 0.063934
C34   C     C_R   0.365694 0.657711 0.166312 0.067828
C35   C     C_R   0.869927 0.833389 0.176368 0.071909
C36   C     C_R   0.851222 0.121128 0.132517 0.091090
C37   C     C_R   0.613987 0.317665 0.781556 0.140437
C38   C     C_R   0.647717 0.627609 0.861554 0.134272
C39   C     C_R   0.146710 0.871623 0.859782 0.141546
C40   C     C_R   0.148512 0.124060 0.864083 0.148699
C41   C     C_R   0.683935 0.378748 0.503291 0.051555
C42   C     C_R   0.640386 0.687718 0.505707 0.137128
C43   C     C_R   0.143281 0.817068 0.501691 0.013593
C44   C     C_R   0.137933 0.189134 0.504583 0.132017
C45   C     C_R   0.316625 0.386276 0.501333 0.071330
C46   C     C_R   0.320090 0.620077 0.503313 0.031503
C47   C     C_R   0.817236 0.887169 0.502883 0.070822
C48   C     C_R   0.863026 0.184706 0.503734 0.076150
Ni1   Ni    Ni4+2 0.382890 0.500000 0.370170 0.219067
Ni2   Ni    Ni4+2 0.882890 0.000000 0.370170 0.215981
Ni3   Ni    Ni4+2 0.618740 0.500000 0.629830 0.216830
Ni4   Ni    Ni4+2 0.118740 1.000000 0.629830 0.225568
Ni5   Ni    Ni4+2 0.514090 0.500000 0.370170 0.221610
Ni6   Ni    Ni4+2 0.014090 0.000000 0.370170 0.232495
Ni7   Ni    Ni4+2 0.487550 0.500000 0.629830 0.222393
Ni8   Ni    Ni4+2 0.987550 1.000000 0.629830 0.211489
C49   C     C_3   0.290603 0.257714 0.520244 -0.446353
C50   C     C_3   0.267120 0.645517 0.594457 -0.446740
C51   C     C_3   0.791565 0.757951 0.519475 -0.441893
C52   C     C_3   0.841910 0.249726 0.622439 -0.455614
H25   H     H_    0.346738 0.252810 0.595671 0.194186
H26   H     H_    0.243044 0.587312 0.576751 0.213146
H27   H     H_    0.847949 0.752502 0.593834 0.191177
H28   H     H_    0.837767 0.193615 0.652218 0.190542
H29   H     H_    0.287046 0.236845 0.449305 0.178839
H30   H     H_    0.320188 0.643097 0.676791 0.159257
H31   H     H_    0.786958 0.738214 0.447160 0.180090
H32   H     H_    0.897715 0.269582 0.681295 0.170367
C53   C     C_3   0.747835 0.705969 0.533590 -0.459251
C54   C     C_3   0.796293 0.307598 0.623924 -0.446342
C55   C     C_3   0.246093 0.206559 0.533714 -0.440248
C56   C     C_3   0.222641 0.704455 0.600061 -0.439697
H33   H     H_    0.730927 0.654797 0.478897 0.196082
H34   H     H_    0.828696 0.359137 0.672390 0.164226
H35   H     H_    0.229442 0.154975 0.479829 0.199118
H36   H     H_    0.257966 0.735952 0.680004 0.155127
H37   H     H_    0.279449 0.185764 0.620377 0.196415
H38   H     H_    0.182672 0.674704 0.600792 0.200725
H39   H     H_    0.781668 0.684621 0.620012 0.191294
H40   H     H_    0.778748 0.282045 0.668346 0.190867
H41   H     H_    0.317267 0.353248 0.676707 0.179666
H42   H     H_    0.178473 0.600931 0.374063 0.234400
H43   H     H_    0.819727 0.851046 0.679163 0.177689
H44   H     H_    0.742259 0.146828 0.452094 0.197923
C57   C     C_3   0.264714 0.365326 0.596445 -0.417008
C58   C     C_3   0.195532 0.662197 0.390372 -0.384927
C59   C     C_3   0.766968 0.863926 0.599741 -0.418134
C60   C     C_3   0.741430 0.207378 0.428259 -0.385408
C61   C     C_3   0.188864 0.345120 0.387030 0.139694
C62   C     C_3   0.300661 0.753076 0.525777 0.128722
C63   C     C_3   0.689734 0.846444 0.389717 0.125023
C64   C     C_3   0.820387 0.322575 0.464653 0.125692
C65   C     C_3   0.265119 0.341532 0.500788 0.123207
C66   C     C_3   0.271473 0.669000 0.502548 0.127273
C67   C     C_3   0.766297 0.841785 0.502555 0.124736
C68   C     C_3   0.817890 0.240821 0.503434 0.120852
H45   H     H_    0.191044 0.326013 0.321077 0.053428
H46   H     H_    0.349416 0.754595 0.614147 0.063578
H47   H     H_    0.691134 0.828854 0.322449 0.058018
H48   H     H_    0.873352 0.346924 0.532987 0.073117
C69   C     C_3   0.683074 0.749220 0.506248 0.122347
C70   C     C_3   0.733103 0.330779 0.503499 0.140576
C71   C     C_3   0.180925 0.250240 0.504494 0.113980
C72   C     C_3   0.187607 0.761089 0.501049 0.145390
C73   C     C_3   0.709379 0.817555 0.591535 0.183561
C74   C     C_3   0.692787 0.255930 0.435424 0.136023
C75   C     C_3   0.206820 0.319509 0.588215 0.183139
C76   C     C_3   0.144605 0.712261 0.391255 0.092736
C77   C     C_3   0.642330 0.785668 0.387761 0.032903
C78   C     C_3   0.765409 0.374910 0.456252 0.051968
C79   C     C_3   0.140857 0.285323 0.385479 0.033150
C80   C     C_3   0.248574 0.808275 0.517219 0.063004
H49   H     H_    0.634177 0.739313 0.331371 0.060540
H50   H     H_    0.795732 0.424557 0.513062 0.076566
H51   H     H_    0.132615 0.237917 0.330270 0.055337
H52   H     H_    0.278887 0.837207 0.599630 0.073768
H53   H     H_    0.256956 0.428032 0.596250 0.179382
H54   H     H_    0.193334 0.680605 0.320227 0.188358
H55   H     H_    0.759537 0.926519 0.601392 0.188492
H56   H     H_    0.718985 0.204876 0.340463 0.193838
H57   H     H_    0.664730 0.856745 0.558679 0.215618
H58   H     H_    0.646349 0.270927 0.349936 0.167935
H59   H     H_    0.162118 0.358865 0.554201 0.213307
H60   H     H_    0.118392 0.749503 0.318002 0.167727
H61   H     H_    0.297153 0.771517 0.170915 0.189037
H62   H     H_    0.299572 0.214574 0.184304 0.153420
H63   H     H_    0.736448 0.197012 0.038425 0.173747
H64   H     H_    0.805752 0.714434 0.185303 0.161403
H65   H     H_    0.713199 0.221082 0.821912 0.130306
H66   H     H_    0.788561 0.626441 0.000685 0.135028
H67   H     H_    0.286840 0.860997 0.992818 0.140983
H68   H     H_    0.289117 0.125377 0.003837 0.135202
C81   C     C_2   0.640196 0.248682 0.847570 -0.182963
C82   C     C_2   0.695420 0.656427 0.975246 -0.184020
C83   C     C_2   0.193240 0.839744 0.971006 -0.195596
C84   C     C_2   0.195579 0.151245 0.978606 -0.203928
C85   C     C_2   0.696280 0.213201 0.871103 -0.117319
C86   C     C_2   0.765127 0.655485 0.031646 -0.081682
C87   C     C_2   0.262266 0.834528 0.023791 -0.106587
C88   C     C_2   0.265230 0.152281 0.035495 -0.093247
H69   H     H_    0.341613 0.729873 0.030212 0.148245
H70   H     H_    0.352229 0.251786 0.054211 0.146204
H71   H     H_    0.816224 0.134900 0.962378 0.145139
H72   H     H_    0.843918 0.761805 0.038015 0.153111
C89   C     C_2   0.335785 0.723756 0.093430 -0.176174
C90   C     C_2   0.344577 0.259487 0.115131 -0.182343
C91   C     C_2   0.802915 0.143992 0.016121 -0.191754
C92   C     C_2   0.840694 0.765988 0.104254 -0.197049
C93   C     C_2   0.302258 0.776472 0.106878 -0.043865
C94   C     C_2   0.307417 0.208145 0.123541 -0.101627
C95   C     C_2   0.744778 0.180960 0.980521 -0.073001
C96   C     C_2   0.808741 0.711219 0.118869 -0.116143
H73   H     H_    0.622577 0.236922 0.895230 0.147900
H74   H     H_    0.673233 0.687019 0.007515 0.145164
H75   H     H_    0.169862 0.811404 0.003175 0.154228
H76   H     H_    0.172618 0.179752 0.011058 0.142248
C97   C     C_3   0.266954 0.366337 0.169993 -1.000332
H77   H     H_    0.250598 0.424449 0.173890 0.251963
H78   H     H_    0.235533 0.351329 0.081120 0.261435
H79   H     H_    0.255134 0.323638 0.209043 0.237528
C98   C     C_3   0.263346 0.618661 0.161520 -1.011078
H80   H     H_    0.251595 0.561334 0.177282 0.246249
H81   H     H_    0.248439 0.664405 0.192410 0.272216
H82   H     H_    0.230789 0.624755 0.070582 0.254910
C99   C     C_3   0.767548 0.861449 0.175646 -1.006224
H83   H     H_    0.747093 0.917888 0.174061 0.260215
H84   H     H_    0.733873 0.841355 0.088470 0.262923
H85   H     H_    0.762403 0.819660 0.223779 0.238653
C100  C     C_3   0.759781 0.077362 0.154447 -1.005726
H86   H     H_    0.764037 0.040901 0.216485 0.250725
H87   H     H_    0.727384 0.127009 0.141376 0.257008
H88   H     H_    0.732633 0.044082 0.076417 0.265648
C101  C     C_3   0.736016 0.797188 0.708057 -1.046949
H89   H     H_    0.692365 0.774496 0.705009 0.272235
H90   H     H_    0.780136 0.756032 0.748846 0.252900
H91   H     H_    0.755738 0.849892 0.760138 0.262928
C102  C     C_3   0.662446 0.207862 0.480446 -0.931702
H92   H     H_    0.629826 0.159949 0.422222 0.278039
H93   H     H_    0.704708 0.182464 0.561976 0.256184
H94   H     H_    0.627925 0.242751 0.487939 0.251357
C103  C     C_3   0.232817 0.300193 0.704653 -1.051297
H95   H     H_    0.188976 0.277433 0.701065 0.269247
H96   H     H_    0.277197 0.259324 0.746731 0.256078
H97   H     H_    0.251922 0.353349 0.755729 0.263048
C104  C     C_3   0.084763 0.663519 0.371919 -0.887037
H98   H     H_    0.049793 0.699456 0.377318 0.235130
H99   H     H_    0.052155 0.637588 0.287850 0.265537
H100  H     H_    0.105594 0.616083 0.432266 0.287079
N33   N     N_R   0.661228 0.924747 0.365030 0.264405
O1    O     O_R   0.646856 0.957888 0.423369 -0.388514
O2    O     O_R   0.644929 0.959695 0.278031 -0.385266
N34   N     N_R   0.815391 0.322955 0.365462 0.263219
O3    O     O_R   0.762003 0.292838 0.272213 -0.376005
O4    O     O_R   0.866919 0.352001 0.371750 -0.340826
N35   N     N_R   0.160261 0.423413 0.359635 0.257810
O5    O     O_R   0.145290 0.458117 0.416274 -0.419678
O6    O     O_R   0.143967 0.456439 0.271492 -0.413331
N36   N     N_R   0.322207 0.777195 0.460253 0.272217
O7    O     O_R   0.280284 0.770386 0.353165 -0.384590
O8    O     O_R   0.386308 0.801612 0.510974 -0.354772
N37   N     N_R   0.572016 0.815612 0.339022 0.265211
O9    O     O_R   0.548428 0.817654 0.393957 -0.376634
O10   O     O_R   0.529684 0.833854 0.234930 -0.352538
N38   N     N_R   0.712572 0.407471 0.345608 0.259055
O11   O     O_R   0.665779 0.364814 0.260704 -0.385855
O12   O     O_R   0.711330 0.481302 0.332314 -0.394495
N39   N     N_R   0.070592 0.316075 0.335477 0.268056
O13   O     O_R   0.046469 0.319473 0.389578 -0.369186
O14   O     O_R   0.028753 0.333482 0.231076 -0.339538
N40   N     N_R   0.224008 0.869928 0.435786 0.267588
O15   O     O_R   0.183456 0.856063 0.330118 -0.383732
O16   O     O_R   0.241747 0.940691 0.469944 -0.381126
C105  C     C_3   0.467891 0.363888 0.169646 -0.967529
H101  H     H_    0.491853 0.420386 0.177657 0.252865
H102  H     H_    0.507094 0.317181 0.205987 0.256161
H103  H     H_    0.427236 0.352686 0.079725 0.243467
C106  C     C_3   0.456082 0.612264 0.146992 -1.025688
H104  H     H_    0.499778 0.570436 0.189242 0.254502
H105  H     H_    0.413393 0.589713 0.062828 0.251375
H106  H     H_    0.474308 0.668357 0.139215 0.273517
C107  C     C_3   0.955656 0.881215 0.148067 -1.018721
H107  H     H_    0.997827 0.925359 0.184993 0.268018
H108  H     H_    0.974993 0.825212 0.143401 0.251068
H109  H     H_    0.911345 0.899463 0.062750 0.252551
C108  C     C_3   0.957686 0.089786 0.145157 -1.035063
H110  H     H_    0.009030 0.061310 0.205470 0.255312
H111  H     H_    0.924455 0.051986 0.071317 0.252244
H112  H     H_    0.966174 0.145407 0.120372 0.269412

loop_
_geom_bond_atom_site_label_1
_geom_bond_atom_site_label_2
_geom_bond_distance
_ccdc_geom_bond_type
C22   H18   1.072941 S    
H71   C91   1.086187 S    
N7    N27   1.400845 A    
C10   C42   1.390949 A    
N33   O1    1.301031 A    
C5    C37   1.387425 A    
C26   N26   1.344922 A    
H63   C95   1.081219 S    
C49   H25   1.114463 S    
C25   N25   1.338144 A    
C14   N14   1.325089 A    
C59   H55   1.110512 S    
C99   H85   1.108626 S    
C4    N4    1.330872 A    
C36   C91   1.466929 S    
C100  H88   1.110294 S    
C27   N27   1.344391 A    
H62   C94   1.085380 S    
C57   C65   1.554706 S    
N35   O5    1.301033 A    
C58   H54   1.108851 S    
N31   Ni6   1.871496 S    
N1    Ni1   1.879069 S    
C97   H77   1.107680 S    
C98   H82   1.110578 S    
N10   N18   1.370306 A    
C7    N7    1.323917 A    
C14   C46   1.372854 A    
C21   H17   1.071493 S    
N12   Ni6   1.860121 S    
N18   Ni3   1.857577 S    
C88   C94   1.447674 S    
H66   C86   1.082939 S    
C85   C95   1.446390 S    
C84   C88   1.336619 D    
N9    Ni5   1.878093 S    
C26   C38   1.388978 A    
C55   H35   1.114906 S    
C104  H98   1.109808 S    
C101  H91   1.111415 S    
C25   C37   1.385773 A    
N1    N29   1.400845 A    
N5    Ni3   1.845608 S    
C58   C76   1.534514 S    
C15   H11   1.080943 S    
C28   C40   1.383571 A    
C53   C69   1.558696 S    
N35   O6    1.301168 A    
C27   C39   1.389410 A    
C6    C38   1.381119 A    
C72   C76   1.573710 S    
C103  H96   1.109474 S    
N27   Ni8   1.856654 S    
C64   N34   1.473258 S    
C106  H106  1.110148 S    
C19   C43   1.380812 A    
C3    C35   1.386000 A    
N37   O9    1.301727 A    
C80   N40   1.475461 S    
C12   N12   1.330385 A    
N25   Ni7   1.856654 S    
C5    H1    1.078498 S    
N6    Ni3   1.846407 S    
C84   H76   1.087434 S    
C61   C65   1.568411 S    
C9    H5    1.069506 S    
C63   C77   1.552091 S    
C23   N23   1.326388 A    
C62   C66   1.564680 S    
C74   C102  1.548562 S    
C7    H3    1.078061 S    
C22   N22   1.322096 A    
N3    N31   1.400845 A    
N4    N32   1.400845 A    
C92   C96   1.338148 D    
C71   C79   1.579387 S    
C106  H105  1.110245 S    
C62   H46   1.117555 S    
C26   H22   1.081610 S    
C2    C98   1.498168 S    
N36   O8    1.301580 A    
N9    N17   1.370146 A    
C20   H16   1.074241 S    
C25   H21   1.080312 S    
N26   Ni7   1.838895 S    
C22   C46   1.373005 A    
C11   H7    1.061516 S    
C15   N15   1.326758 A    
C102  H92   1.111223 S    
C35   C92   1.459114 S    
C75   C103  1.536989 S    
C81   C85   1.334143 D    
C39   C83   1.460353 S    
C34   C89   1.455042 S    
C29   C33   1.386974 A    
N7    Ni4   1.845608 S    
C53   H39   1.112527 S    
C59   C67   1.554268 S    
C33   C90   1.460844 S    
C18   C42   1.382919 A    
C43   C72   1.469614 S    
C17   N17   1.319597 A    
C3    C99   1.499312 S    
C52   C54   1.521579 S    
C107  H107  1.108170 S    
C62   N36   1.475833 S    
C57   H53   1.110587 S    
N28   Ni8   1.838895 S    
N20   Ni4   1.857577 S    
C2    N2    1.334061 A    
N24   Ni2   1.867902 S    
C8    H4    1.078993 S    
C76   C104  1.544310 S    
C56   H36   1.111797 S    
N21   Ni1   1.866527 S    
C102  H94   1.109215 S    
C28   N28   1.345034 A    
N34   O4    1.301204 A    
C100  H86   1.107143 S    
N29   Ni5   1.871496 S    
C83   C87   1.337712 D    
C97   H78   1.110438 S    
C77   H49   1.114500 S    
C20   C44   1.387034 A    
H64   C96   1.085508 S    
C8    N8    1.330074 A    
N8    N28   1.400845 A    
N10   Ni5   1.860121 S    
H44   C60   1.115388 S    
C16   H12   1.078224 S    
C30   C106  1.498981 S    
C51   H31   1.114537 S    
C107  H109  1.110300 S    
N38   O12   1.301315 A    
H42   C58   1.113200 S    
C69   C77   1.580660 S    
N40   O15   1.300810 A    
C105  H102  1.109442 S    
C82   C86   1.339215 D    
C51   C67   1.547819 S    
C19   H15   1.077891 S    
C11   N11   1.321778 A    
C108  H110  1.108638 S    
C30   N30   1.346998 A    
C9    N9    1.327638 A    
C86   C96   1.444304 S    
C13   H9    1.080629 S    
C52   H28   1.114228 S    
C24   N24   1.325051 A    
N4    Ni2   1.878254 S    
N12   N20   1.370306 A    
C104  H99   1.111098 S    
C32   N32   1.350365 A    
C15   C47   1.372990 A    
H61   C93   1.085637 S    
N14   Ni7   1.869235 S    
C38   C82   1.462389 S    
H70   C90   1.086874 S    
C101  H89   1.109653 S    
C10   N10   1.328460 A    
C56   H38   1.110927 S    
C90   C94   1.336316 D    
C99   H83   1.100489 S    
C50   C56   1.544673 S    
C11   C43   1.380277 A    
N17   Ni3   1.858948 S    
C54   C70   1.558208 S    
C87   C93   1.441165 S    
C42   C69   1.488447 S    
C17   H13   1.080736 S    
H72   C92   1.087357 S    
C47   C67   1.469747 S    
C60   H56   1.108772 S    
C29   C105  1.494527 S    
C106  H104  1.110311 S    
H41   C57   1.113031 S    
N3    Ni2   1.879069 S    
C24   C48   1.385158 A    
C28   H24   1.081493 S    
C79   N39   1.475337 S    
C4    C100  1.506424 S    
C5    N5    1.330432 A    
N37   O10   1.301290 A    
H69   C89   1.087164 S    
C102  H93   1.109350 S    
H68   C88   1.083723 S    
C50   H26   1.113197 S    
C10   H6    1.064286 S    
N40   O16   1.301568 A    
C46   C66   1.463485 S    
C73   C101  1.537288 S    
C1    N1    1.339723 A    
N16   Ni8   1.869235 S    
N15   N23   1.370146 A    
N6    N26   1.400845 A    
C98   H80   1.107928 S    
C18   N18   1.323958 A    
C57   C75   1.555225 S    
C51   H27   1.114363 S    
N33   O2    1.301181 A    
C4    C36   1.389266 A    
C1    C97   1.498206 S    
C101  H90   1.109497 S    
C13   C45   1.374715 A    
C23   H19   1.071554 S    
N16   N24   1.370306 A    
C108  H111  1.109914 S    
N15   Ni8   1.851343 S    
C50   C66   1.558069 S    
N22   Ni1   1.867902 S    
C73   H57   1.108523 S    
C31   C35   1.381736 A    
C69   C73   1.584326 S    
N2    N30   1.400845 A    
C52   C68   1.561021 S    
C63   H47   1.114292 S    
N34   O3    1.300106 A    
C56   C72   1.561345 S    
C12   H8    1.072707 S    
C19   N19   1.327150 A    
C55   H37   1.112396 S    
C97   H79   1.108591 S    
C7    C39   1.381413 A    
C61   H45   1.114286 S    
N39   O14   1.301285 A    
C62   C80   1.540718 S    
C78   N38   1.472599 S    
C1    C33   1.390961 A    
C37   C81   1.448030 S    
C52   H32   1.113496 S    
C49   C65   1.546351 S    
C60   C74   1.526562 S    
C14   H10   1.080578 S    
C55   C71   1.560243 S    
C108  H112  1.109892 S    
C61   N35   1.474006 S    
C8    C40   1.381562 A    
N30   Ni5   1.889541 S    
C64   C68   1.564403 S    
C21   N21   1.326895 A    
N38   O11   1.300695 A    
C31   C107  1.499248 S    
C76   H60   1.104695 S    
C31   N31   1.348363 A    
N13   N21   1.370146 A    
C12   C44   1.393215 A    
N23   Ni2   1.866527 S    
C78   H50   1.115992 S    
C49   C55   1.517578 S    
C20   N20   1.325855 A    
C23   C47   1.371938 A    
C98   H81   1.107813 S    
C21   C45   1.371150 A    
C32   C108  1.498032 S    
C18   H14   1.073508 S    
C3    N3    1.343233 A    
C30   C34   1.384130 A    
C79   H51   1.114900 S    
N19   Ni4   1.858948 S    
C24   H20   1.070539 S    
C104  H100  1.109530 S    
C13   N13   1.330442 A    
C41   C70   1.469274 S    
C58   C66   1.557062 S    
N36   O7    1.300928 A    
C107  H108  1.110312 S    
C82   H74   1.087286 S    
N32   Ni6   1.889541 S    
C99   H84   1.110062 S    
C70   C78   1.577636 S    
C17   C41   1.368078 A    
C27   H23   1.081621 S    
N5    N25   1.400845 A    
C44   C71   1.493051 S    
C48   C68   1.479151 S    
C16   C48   1.385066 A    
C91   C95   1.329081 D    
C81   H73   1.088484 S    
C6    N6    1.326625 A    
N39   O13   1.301746 A    
C51   C53   1.516778 S    
C64   H48   1.116084 S    
C45   C65   1.473787 S    
C100  H87   1.107232 S    
N11   Ni6   1.878093 S    
C77   N37   1.475364 S    
C71   C75   1.583791 S    
C72   C80   1.573688 S    
C89   C93   1.338199 D    
C40   C84   1.461992 S    
N2    Ni1   1.878254 S    
C103  H95   1.109676 S    
H43   C59   1.113104 S    
C74   H58   1.109376 S    
C16   N16   1.321147 A    
C9    C41   1.373762 A    
C70   C74   1.569139 S    
C54   H40   1.112065 S    
C6    H2    1.078425 S    
C50   H30   1.111154 S    
C103  H97   1.111354 S    
C53   H33   1.115050 S    
C80   H52   1.117052 S    
C49   H29   1.114487 S    
C63   N33   1.474428 S    
C2    C34   1.383630 A    
N13   Ni7   1.851343 S    
C105  H103  1.109719 S    
C63   C67   1.567694 S    
N14   N22   1.370306 A    
C54   H34   1.113816 S    
C64   C78   1.567629 S    
H67   C87   1.082500 S    
H65   C85   1.086280 S    
C32   C36   1.387897 A    
N11   N19   1.370146 A    
C105  H101  1.108679 S    
C75   H59   1.108498 S    
C59   C73   1.553954 S    
C29   N29   1.345518 A    
C60   C68   1.560065 S    
C83   H75   1.087439 S    
N8    Ni4   1.846407 S    
C61   C79   1.554396 S    
