data_mof_unit_23354.cif
_audit_creation_date              2012-12-11T15:37:02-0500
_audit_creation_method            fapswitch 2.2
_symmetry_space_group_name_H-M    P1
_symmetry_Int_Tables_number       1
_space_group_crystal_system       triclinic
_cell_length_a                    15.070828
_cell_length_b                    15.068959
_cell_length_c                    34.845556
_cell_angle_alpha                 91.284256
_cell_angle_beta                  91.659856
_cell_angle_gamma                 60.132453
_cell_volume                      6859.23665165

loop_
_atom_site_label
_atom_site_type_symbol
_atom_type_description
_atom_site_fract_x
_atom_site_fract_y
_atom_site_fract_z
_atom_type_partial_charge
C1    C     C_R   0.610416 0.303193 0.443862 0.544644
C2    C     C_R   0.597251 0.097650 0.763196 -0.113966
C3    C     C_R   0.093756 0.766025 0.886348 -0.126516
C4    C     C_R   0.122807 0.754170 0.848223 -0.122608
C5    C     C_R   0.125422 0.674534 0.825772 0.032070
C6    C     C_R   0.105922 0.602511 0.842739 -0.121664
C7    C     C_R   0.077408 0.614003 0.880950 -0.127405
C8    C     C_R   0.200032 0.577726 0.765258 -0.119625
C9    C     C_R   0.208600 0.574523 0.725572 -0.116471
C10   C     C_R   0.157387 0.664930 0.704209 0.028714
C11   C     C_R   0.098133 0.758750 0.723012 -0.118389
C12   C     C_R   0.089049 0.761926 0.762724 -0.115331
C13   C     C_R   0.596245 0.171259 0.789037 0.028074
C14   C     C_R   0.655703 0.766449 0.164781 -0.120885
C15   C     C_R   0.139906 0.671388 0.784126 0.029251
C16   C     C_R   0.200674 0.725330 0.645647 -0.121709
C17   C     C_R   0.234225 0.707502 0.607971 -0.128654
C18   C     C_R   0.199679 0.566633 0.602841 -0.125041
C19   C     C_R   0.166446 0.584355 0.640478 -0.122426
C20   C     C_R   0.171201 0.660727 0.662600 0.031430
C21   C     C_R   0.238653 0.624780 0.586960 0.022535
C22   C     C_R   0.673174 0.079334 0.906247 0.019920
C23   C     C_R   0.598099 0.065222 0.886784 -0.130259
C24   C     C_R   0.547759 0.196587 0.640987 -0.120476
C25   C     C_R   0.568304 0.100015 0.849180 -0.122820
C26   C     C_3   0.509162 0.234624 0.052790 0.017097
C27   C     C_3   0.434421 0.336712 0.071993 -0.280153
C28   C     C_3   0.392097 0.424409 0.043396 -0.479117
C29   C     C_3   0.915718 0.984512 0.284239 -0.023124
C30   C     C_3   0.985129 0.937565 0.319152 -0.358757
C31   C     C_R   0.827317 0.620997 0.161035 -0.123859
C32   C     C_R   0.550102 0.220372 0.602650 -0.124827
C33   C     C_R   0.691946 0.248973 0.617854 -0.125188
C34   C     C_R   0.688582 0.226620 0.656182 -0.122240
C35   C     C_R   0.614260 0.203732 0.668224 0.029124
C36   C     C_R   0.619889 0.250328 0.591034 0.022854
C37   C     C_R   0.045933 0.738820 0.048391 0.539516
C38   C     C_R   0.742989 0.688175 0.183030 0.029524
C39   C     C_R   0.747407 0.746833 0.064125 0.540907
C40   C     C_R   0.750713 0.041086 0.050458 0.544611
C41   C     C_R   0.017230 0.722357 0.939820 0.543879
C42   C     C_R   0.717282 0.730026 0.954926 0.539349
C43   C     C_R   0.826508 0.635776 0.121580 -0.128412
C44   C     C_R   0.721448 0.024492 0.942107 0.535578
C45   C     C_R   0.776319 0.583108 0.241600 -0.117911
C46   C     C_R   0.767189 0.576257 0.280978 -0.115652
C47   C     C_R   0.727715 0.664440 0.304405 0.027469
C48   C     C_R   0.702825 0.758564 0.288069 -0.111181
C49   C     C_R   0.612629 0.149995 0.830686 0.031407
C50   C     C_R   0.711420 0.765452 0.248680 -0.112808
C51   C     C_R   0.745451 0.678286 0.225043 0.024759
C52   C     C_R   0.606809 0.734359 0.358806 -0.118444
C53   C     C_R   0.593376 0.610167 0.449409 0.544152
C54   C     C_R   0.573852 0.721345 0.394115 -0.126266
C55   C     C_R   0.733141 0.561888 0.402734 -0.127781
C56   C     C_R   0.766186 0.575088 0.367460 -0.121553
C57   C     C_R   0.701865 0.659657 0.344592 0.033579
C58   C     C_R   0.635214 0.633168 0.415761 0.021715
C59   C     C_R   0.105256 0.726744 0.084198 0.020327
C60   C     C_R   0.682187 0.170244 0.851299 -0.118760
C61   C     C_R   0.152168 0.631938 0.102934 -0.134493
C62   C     C_R   0.179215 0.625927 0.141675 -0.123974
C63   C     C_R   0.161189 0.714172 0.162136 0.029501
C64   C     C_R   0.124899 0.806756 0.142706 -0.123208
C65   C     C_R   0.304536 0.591266 0.442273 0.542192
C66   C     C_R   0.096930 0.813113 0.103820 -0.128655
C67   C     C_R   0.234543 0.735596 0.224444 -0.122132
C68   C     C_R   0.244318 0.725792 0.264326 -0.119071
C69   C     C_R   0.186031 0.693284 0.284511 0.024145
C70   C     C_R   0.115863 0.673613 0.264097 -0.123110
C71   C     C_R   0.712083 0.135320 0.888652 -0.126102
C72   C     C_R   0.107425 0.681828 0.224282 -0.120417
C73   C     C_R   0.167766 0.711343 0.204230 0.022194
C74   C     C_R   0.201871 0.590393 0.342485 -0.119625
C75   C     C_R   0.228039 0.566734 0.381144 -0.127562
C76   C     C_R   0.248425 0.715766 0.388862 -0.125738
C77   C     C_R   0.605406 0.300792 0.553788 0.542600
C78   C     C_R   0.223543 0.738623 0.350224 -0.130090
C79   C     C_R   0.202074 0.675092 0.326379 0.027939
C80   C     C_R   0.254567 0.627554 0.404404 0.021774
C81   C     C_R   0.723307 0.100069 0.086682 0.016539
C82   C     C_R   0.592107 0.259455 0.774487 -0.120114
C83   C     C_R   0.802181 0.095951 0.110368 -0.173505
C84   C     C_R   0.785245 0.122605 0.149014 -0.143849
C85   C     C_R   0.689213 0.154025 0.164590 -0.012393
C86   C     C_R   0.607477 0.168578 0.140237 -0.090080
C87   C     C_R   0.623082 0.144202 0.101143 0.266718
C88   C     C_R   0.592875 0.245023 0.223403 -0.136503
C89   C     C_R   0.587337 0.606414 0.559118 0.541891
C90   C     C_R   0.583622 0.251328 0.263177 -0.169015
C91   C     C_R   0.659133 0.175089 0.286721 0.039485
C92   C     C_R   0.743935 0.090428 0.270098 0.273675
C93   C     C_R   0.595746 0.270637 0.735096 -0.117549
C94   C     C_R   0.750924 0.083560 0.229864 -0.109056
C95   C     C_R   0.677493 0.161920 0.206556 -0.008865
C96   C     C_R   0.734180 0.189914 0.349439 -0.085078
C97   C     C_R   0.723283 0.219178 0.388000 -0.134928
C98   C     C_R   0.551477 0.243886 0.386172 -0.130026
C99   C     C_R   0.562536 0.214548 0.347564 -0.127385
C100  C     C_R   0.652952 0.190008 0.328712 0.068061
C101  C     C_R   0.297912 0.589210 0.551681 0.544616
C102  C     C_R   0.630468 0.250017 0.406374 0.019730
C103  C     C_R   0.691881 0.689506 0.919921 0.020498
C104  C     C_R   0.602228 0.194546 0.709489 0.025982
C105  C     C_R   0.766134 0.597014 0.903346 -0.128287
C106  C     C_R   0.753905 0.572125 0.865494 -0.124117
C107  C     C_R   0.667305 0.639255 0.843571 0.032002
C108  C     C_R   0.588738 0.726725 0.861347 -0.120828
C109  C     C_R   0.600752 0.751450 0.899219 -0.128209
C110  C     C_R   0.571591 0.650493 0.782164 -0.120577
C111  C     C_R   0.566347 0.650017 0.742139 -0.118550
C112  C     C_R   0.653583 0.624057 0.720654 0.027368
C113  C     C_R   0.741027 0.717630 0.103603 0.019102
C114  C     C_R   0.746940 0.595315 0.739831 -0.117306
C115  C     C_R   0.599634 0.109554 0.723654 -0.117292
C116  C     C_R   0.752096 0.596411 0.779870 -0.113939
C117  C     C_R   0.664115 0.625443 0.801451 0.028784
C118  C     C_R   0.718708 0.544841 0.656336 -0.123139
C119  C     C_R   0.704234 0.541963 0.616668 -0.128848
C120  C     C_R   0.549718 0.707406 0.620101 -0.126643
C121  C     C_R   0.563926 0.709891 0.659729 -0.123011
C122  C     C_R   0.646473 0.627039 0.678318 0.031365
C123  C     C_R   0.617396 0.621475 0.598370 0.021695
C124  C     C_R   0.067333 0.698107 0.902574 0.023106
C125  C     C_R   0.654514 0.780844 0.125429 -0.121088
Cr1   Cr    Cr6+3 0.426010 0.422500 0.497000 1.009777
Cr2   Cr    Cr6+3 0.651300 0.426310 0.501970 1.008810
Cr3   Cr    Cr6+3 0.422670 0.651170 0.501050 1.008160
Cr4   Cr    Cr6+3 0.905130 0.911420 0.992650 1.005921
Cr5   Cr    Cr6+3 0.911860 0.682710 0.002320 1.006488
Cr6   Cr    Cr6+3 0.682710 0.906840 0.004710 1.039218
H1    H     H_    0.587381 0.844402 0.112460 0.140651
H2    H     H_    0.208458 0.553620 0.156285 0.105341
H3    H     H_    0.068103 0.650994 0.278854 0.109296
H4    H     H_    0.894527 0.586111 0.105559 0.126977
H5    H     H_    0.054052 0.664634 0.208994 0.114326
H6    H     H_    0.187042 0.539035 0.324792 0.101117
H7    H     H_    0.232791 0.497886 0.392226 0.123638
H8    H     H_    0.110797 0.875495 0.158244 0.100067
H9    H     H_    0.268490 0.764319 0.405985 0.126265
H10   H     H_    0.879268 0.063912 0.099919 0.131555
H11   H     H_    0.499142 0.214819 0.331989 0.102801
H12   H     H_    0.498060 0.777614 0.403408 0.125083
H13   H     H_    0.519006 0.317638 0.275725 0.117871
H14   H     H_    0.535060 0.305917 0.205852 0.113138
H15   H     H_    0.840481 0.517263 0.357407 0.100312
H16   H     H_    0.848793 0.113061 0.167262 0.110061
H17   H     H_    0.813051 0.016624 0.216584 0.102842
H18   H     H_    0.803872 0.173089 0.335220 0.116999
H19   H     H_    0.785382 0.223404 0.402713 0.123760
H20   H     H_    0.532586 0.193779 0.151823 0.119208
H21   H     H_    0.478943 0.267324 0.399499 0.126812
H22   H     H_    0.836810 0.547124 0.918689 0.121922
H23   H     H_    0.895282 0.559874 0.174613 0.100913
H24   H     H_    0.541987 0.823140 0.911166 0.124446
H25   H     H_    0.508431 0.775109 0.676071 0.101677
H26   H     H_    0.785667 0.502925 0.292697 0.102367
H27   H     H_    0.493951 0.670198 0.727918 0.107579
H28   H     H_    0.502967 0.671832 0.798033 0.103095
H29   H     H_    0.814577 0.502975 0.852752 0.098958
H30   H     H_    0.815086 0.575291 0.723842 0.104040
H31   H     H_    0.824082 0.578614 0.793877 0.104240
H32   H     H_    0.783096 0.480142 0.670075 0.099911
H33   H     H_    0.757678 0.474577 0.600765 0.121620
H34   H     H_    0.782612 0.493631 0.419000 0.122795
H35   H     H_    0.521260 0.780250 0.845179 0.100355
H36   H     H_    0.482216 0.770045 0.606917 0.125044
H37   H     H_    0.087745 0.830854 0.902599 0.121637
H38   H     H_    0.802500 0.515058 0.223832 0.103468
H39   H     H_    0.057235 0.560670 0.892765 0.125465
H40   H     H_    0.142002 0.535055 0.652980 0.103780
H41   H     H_    0.256744 0.501593 0.711593 0.109350
H42   H     H_    0.240808 0.507184 0.781222 0.104810
H43   H     H_    0.139769 0.809277 0.835895 0.100968
H44   H     H_    0.058123 0.829166 0.706930 0.104736
H45   H     H_    0.160451 0.563859 0.088514 0.123505
H46   H     H_    0.040597 0.834877 0.776609 0.106653
H47   H     H_    0.204840 0.784696 0.662349 0.101650
H48   H     H_    0.263449 0.753798 0.596367 0.124999
H49   H     H_    0.106861 0.540760 0.825910 0.100963
H50   H     H_    0.588924 0.817695 0.181142 0.106660
H51   H     H_    0.200894 0.503263 0.587090 0.127532
H52   H     H_    0.567011 0.022076 0.899695 0.123819
H53   H     H_    0.769712 0.147715 0.903065 0.124726
H54   H     H_    0.741595 0.230948 0.676769 0.105463
H55   H     H_    0.595203 0.338044 0.724589 0.112749
H56   H     H_    0.060863 0.887191 0.090155 0.121599
H57   H     H_    0.589269 0.318347 0.793657 0.105436
H58   H     H_    0.513569 0.084532 0.834086 0.100694
H59   H     H_    0.604182 0.050296 0.704264 0.106558
H60   H     H_    0.601725 0.028300 0.773558 0.106857
H61   H     H_    0.490155 0.178643 0.649767 0.103246
H62   H     H_    0.673883 0.827304 0.305589 0.118756
H63   H     H_    0.493685 0.220788 0.582568 0.119845
H64   H     H_    0.718678 0.207447 0.837785 0.103872
H65   H     H_    0.746310 0.272153 0.609874 0.125269
H66   H     H_    0.689289 0.839328 0.236500 0.117375
H67   H     H_    0.223989 0.804632 0.338880 0.094098
H68   H     H_    0.555106 0.799805 0.341617 0.101236
H69   H     H_    0.468620 0.220372 0.028398 0.153660
H70   H     H_    0.573882 0.239259 0.040134 0.110561
H71   H     H_    0.369873 0.331218 0.084064 0.167869
H72   H     H_    0.474247 0.353827 0.095869 0.154981
H73   H     H_    0.455483 0.431062 0.030888 0.150427
H74   H     H_    0.340298 0.497441 0.058278 0.153122
H75   H     H_    0.348167 0.411409 0.019966 0.149826
H76   H     H_    0.922847 0.051512 0.275514 0.107257
H77   H     H_    0.942897 0.926259 0.260763 0.144911
H78   H     H_    0.299980 0.740344 0.279148 0.104638
H79   H     H_    0.986184 0.866179 0.327262 0.174650
H80   H     H_    0.063660 0.919688 0.312210 0.094324
H81   H     H_    0.957954 0.992238 0.343734 0.149210
H82   H     H_    0.281391 0.758659 0.209265 0.106884
O1    O     O_R   0.324990 0.503440 0.453910 -0.520802
O2    O     O_R   0.675430 0.831160 0.051290 -0.506753
O3    O     O_R   0.698870 0.998880 0.039560 -0.452715
O4    O     O_R   0.522030 0.339050 0.458320 -0.503312
O5    O     O_R   0.811290 0.006780 0.950620 -0.518264
O6    O     O_R   0.980960 0.812920 0.953200 -0.500006
O7    O     O_R   0.001480 0.656720 0.955830 -0.521963
O8    O     O_R   0.809240 0.683250 0.968050 -0.502538
O9    O     O_R   0.652500 0.818540 0.967340 -0.521199
O10   O     O_R   0.677620 0.987170 0.961730 -0.505752
O11   O     O_3   0.833240 0.833660 0.999890 -0.239834
O12   O     O_R   0.639980 0.519500 0.542640 -0.503151
O13   O     O_R   0.676180 0.324490 0.458320 -0.518573
O14   O     O_R   0.643570 0.521510 0.464260 -0.502076
O15   O     O_R   0.504630 0.675350 0.460920 -0.520734
O16   O     O_R   0.339850 0.642450 0.459830 -0.503700
O17   O     O_R   0.321120 0.501280 0.538470 -0.519140
O18   O     O_R   0.518440 0.337050 0.536710 -0.499866
O19   O     O_R   0.672300 0.322330 0.542880 -0.520579
O20   O     O_3   0.541898 0.152626 0.078748 -0.563760
O21   O     O_3   0.814371 0.012640 0.293701 -0.559691
O22   O     O_R   0.500750 0.673190 0.545480 -0.520506
O23   O     O_R   0.336260 0.640450 0.538210 -0.503256
O24   O     O_3   0.499990 0.499990 0.500010 -0.234729
O25   O     O_R   0.834210 0.019400 0.034570 -0.534134
O26   O     O_R   0.002210 0.824620 0.031030 -0.502925
O27   O     O_R   0.024400 0.669340 0.039790 -0.520377
O28   O     O_R   0.830490 0.694950 0.045870 -0.504027

loop_
_geom_bond_atom_site_label_1
_geom_bond_atom_site_label_2
_ccdc_geom_bond_type
C1    O13   A    
Cr3   O23   S    
C105  H22   S    
C55   C56   A    
Cr3   O16   S    
C121  H25   S    
C48   H62   S    
C27   H71   S    
C28   H75   S    
C99   H11   S    
C19   C20   A    
C90   H13   S    
C7    C124  A    
C42   C103  S    
C31   H23   S    
C112  C114  A    
C98   H21   S    
C85   C86   A    
C108  C109  A    
C112  C122  S    
Cr5   O27   S    
C26   C27   S    
C62   C63   A    
C29   H77   S    
C31   C43   A    
C27   H72   S    
C32   C36   A    
C62   H2    S    
C116  H31   S    
Cr1   O17   S    
C111  H27   S    
C19   H40   S    
C18   C19   A    
C36   C77   S    
C59   C66   A    
C30   H81   S    
C5    C6    A    
Cr4   O25   S    
Cr5   O28   S    
C37   O26   A    
C47   C57   S    
C106  C107  A    
C45   C51   A    
C18   C21   A    
C33   C36   A    
C116  C117  A    
C93   C104  A    
C34   C35   A    
C118  C122  A    
C2    C13   A    
C55   C58   A    
C118  C119  A    
C40   O25   A    
Cr1   O1    S    
C41   O6    A    
C110  C111  A    
C115  H59   S    
C22   C44   S    
C83   C84   A    
C33   H65   S    
C10   C20   S    
C68   C69   A    
C39   C113  S    
Cr2   O13   S    
C97   H19   S    
C101  O17   A    
C67   C73   A    
C91   C100  S    
C42   O8    A    
C26   H69   S    
C9    C10   A    
C97   C102  A    
Cr1   O4    S    
C16   C20   A    
C29   H76   S    
C21   C101  S    
C93   H55   S    
C17   H48   S    
Cr3   O22   S    
C48   C50   A    
C12   H46   S    
C88   C95   A    
C82   C93   A    
C4    H43   S    
C66   H56   S    
Cr4   O26   S    
Cr2   O14   S    
C28   H74   S    
C65   C80   S    
C94   C95   A    
C61   H45   S    
Cr4   O11   S    
C68   H78   S    
C40   C81   S    
C110  C117  A    
C22   C23   A    
C81   C83   A    
C50   H66   S    
C52   C54   A    
C3    H37   S    
C33   C34   A    
C25   C49   A    
C85   C95   S    
C76   H9    S    
C94   H17   S    
C74   H6    S    
C118  H32   S    
C77   O18   A    
C24   C35   A    
C59   C61   A    
C74   C75   A    
Cr6   O2    S    
C67   C68   A    
C28   H73   S    
C47   C48   A    
C26   H70   S    
C44   O5    A    
C84   C85   A    
C32   H63   S    
C35   C104  S    
C10   C11   A    
C89   O12   A    
C30   H80   S    
C52   H68   S    
C8    H42   S    
C8    C9    A    
C37   O27   A    
C38   C51   S    
C63   C73   S    
C60   C71   A    
Cr3   O24   S    
C98   C102  A    
C46   H26   S    
C13   C82   A    
C70   C72   A    
C17   C21   A    
C82   H57   S    
C64   C66   A    
C34   H54   S    
Cr5   O7    S    
C24   C32   A    
C23   H52   S    
C29   C30   S    
C14   C38   A    
C104  C115  A    
C2    C115  A    
C99   C100  A    
C12   C15   A    
Cr3   O15   S    
C96   C97   A    
C40   O3    A    
C101  O23   A    
C92   C94   A    
C50   C51   A    
C88   H14   S    
C103  C105  A    
C44   O10   A    
C81   C87   A    
C2    H60   S    
C60   H64   S    
C43   H4    S    
C49   C60   A    
C121  C122  A    
C37   C59   S    
C24   H61   S    
C13   C49   S    
Cr6   O11   S    
C16   H47   S    
Cr4   O5    S    
C88   C90   A    
Cr2   O24   S    
C8    C15   A    
C74   C79   A    
C67   H82   S    
C56   C57   A    
C55   H34   S    
C107  C108  A    
C3    C4    A    
C22   C71   A    
C91   C92   A    
C14   H50   S    
C3    C124  A    
C26   O20   S    
C83   H10   S    
C54   C58   A    
C84   H16   S    
C108  H35   S    
C46   C47   A    
C77   O19   A    
C111  C112  A    
C6    H49   S    
Cr6   O3    S    
C86   C87   A    
C71   H53   S    
Cr5   O8    S    
C76   C80   A    
C76   C78   A    
C72   C73   A    
C114  H30   S    
C75   H7    S    
C45   H38   S    
C119  H33   S    
C30   H79   S    
C114  C116  A    
C53   C58   S    
C120  C123  A    
C6    C7    A    
C119  C123  A    
C89   C123  S    
C105  C106  A    
C11   H44   S    
C87   O20   S    
C31   C38   A    
C65   O16   A    
C103  C109  A    
C39   O2    A    
C41   O7    A    
C89   O22   A    
Cr5   O11   S    
Cr1   O18   S    
C65   O1    A    
C53   O15   A    
C25   H58   S    
C86   H20   S    
C53   O14   A    
C78   C79   A    
C125  H1    S    
C90   C91   A    
C16   C17   A    
C41   C124  S    
C106  H29   S    
C96   H18   S    
C96   C100  A    
C92   O21   S    
Cr2   O19   S    
C54   H12   S    
Cr6   O9    S    
C14   C125  A    
C23   C25   A    
C56   H15   S    
C61   C62   A    
C109  H24   S    
C69   C70   A    
C29   O21   S    
C5    C15   S    
C72   H5    S    
C52   C57   A    
C63   C64   A    
C45   C46   A    
C70   H3    S    
C4    C5    A    
C75   C80   A    
C113  C125  A    
C120  H36   S    
Cr4   O6    S    
C98   C99   A    
C1    O4    A    
C7    H39   S    
C27   C28   S    
Cr2   O12   S    
C18   H51   S    
C120  C121  A    
C69   C79   S    
C9    H41   S    
Cr6   O10   S    
C78   H67   S    
C42   O9    A    
Cr1   O24   S    
C1    C102  S    
C107  C117  S    
C43   C113  A    
C110  H28   S    
C11   C12   A    
C39   O28   A    
C64   H8    S    
