data_mof_unit_32781.cif
_audit_creation_date              2012-12-10T17:06:40-0500
_audit_creation_method            fapswitch 2.2
_symmetry_space_group_name_H-M    P1
_symmetry_Int_Tables_number       1
_space_group_crystal_system       triclinic
_cell_length_a                    15.853313
_cell_length_b                    11.031661
_cell_length_c                    9.918027
_cell_angle_alpha                 111.160871
_cell_angle_beta                  97.763532
_cell_angle_gamma                 92.117241
_cell_volume                      1595.85156994

loop_
_atom_site_label
_atom_site_type_symbol
_atom_type_description
_atom_site_fract_x
_atom_site_fract_y
_atom_site_fract_z
_atom_type_partial_charge
C1    C     C_R   0.494217 0.254262 0.440603 0.850649
C2    C     C_R   0.506600 0.745749 0.559331 0.844642
C3    C     C_2   0.506404 0.069643 0.515561 -0.149827
C4    C     C_2   0.501559 0.930289 0.483459 -0.151273
C5    C     C_2   0.512417 0.502916 0.077794 0.017418
C6    C     C_2   0.492445 0.487607 0.918763 0.054674
C7    C     C_R   0.340160 0.499852 0.501260 0.821564
C8    C     C_R   0.659845 0.500096 0.498729 0.810046
C9    C     C_3   0.970517 0.397201 0.529556 -0.234017
C10   C     C_3   0.029514 0.602159 0.470558 -0.236760
C11   C     C_3   0.018029 0.387721 0.399200 -0.235997
C12   C     C_3   0.982013 0.611640 0.600921 -0.236629
C13   C     C_1   0.250730 0.500120 0.504087 -0.108709
C14   C     C_1   0.749278 0.499606 0.495877 -0.116394
C15   C     C_3   0.036907 0.509351 0.632354 0.059848
C16   C     C_3   0.963144 0.490003 0.367758 0.056488
C17   C     C_3   0.083445 0.500004 0.503746 0.157540
C18   C     C_3   0.916585 0.499360 0.496352 0.157708
C19   C     C_1   0.175233 0.500145 0.504795 0.019223
C20   C     C_1   0.824782 0.499380 0.495219 0.019122
C21   C     C_2   0.491428 0.114499 0.407299 -0.337394
C22   C     C_2   0.511600 0.885521 0.592287 -0.337195
Cu1   Cu    Cu3+1 0.514700 0.521810 0.644910 0.981581
Cu2   Cu    Cu3+1 0.485300 0.478190 0.355090 0.965074
H1    H     H_    0.033532 0.296195 0.315975 0.147811
H2    H     H_    0.966516 0.703168 0.684151 0.147827
H3    H     H_    0.945631 0.313542 0.554480 0.148677
H4    H     H_    0.054398 0.685817 0.445629 0.148573
H5    H     H_    0.489003 0.863941 0.369526 0.177224
H6    H     H_    0.521866 0.135886 0.629208 0.175749
H7    H     H_    0.523735 0.952245 0.706012 0.155018
H8    H     H_    0.476636 0.047817 0.293732 0.155312
H9    H     H_    0.584913 0.623519 0.929609 0.218708
H10   H     H_    0.408117 0.390594 0.074741 0.218279
N1    N     N_2   0.463210 0.445420 0.137360 -0.320325
N2    N     N_2   0.536790 0.554580 0.862640 -0.307316
O1    O     O_R   0.507840 0.332340 0.577400 -0.600988
O2    O     O_R   0.492160 0.667660 0.422600 -0.604994
O3    O     O_R   0.483020 0.295500 0.332650 -0.569643
O4    O     O_R   0.516980 0.704500 0.667350 -0.572923
O5    O     O_R   0.391490 0.518400 0.622350 -0.534105
O6    O     O_R   0.608510 0.481600 0.377650 -0.561255
O7    O     O_R   0.366660 0.481570 0.377600 -0.576589
O8    O     O_R   0.633340 0.518430 0.622400 -0.568811
C23   C     C_2   0.924132 0.478908 0.217171 0.359102
H11   H     H_    0.965043 0.473824 0.136393 0.055069
O9    O     O_2   0.846855 0.475474 0.184466 -0.482812
C24   C     C_2   0.076025 0.520322 0.782865 0.357563
H12   H     H_    0.035198 0.525860 0.863881 0.055237
O10   O     O_2   0.153287 0.523083 0.815221 -0.487715
C25   C     C_2   0.419418 0.395029 0.826466 0.454336
H13   H     H_    0.429447 0.296633 0.758565 0.045666
O11   O     O_2   0.346618 0.426590 0.832551 -0.510149
C26   C     C_2   0.592342 0.581433 0.164731 0.438044
H14   H     H_    0.591695 0.664270 0.264514 0.083436
O12   O     O_2   0.660816 0.553548 0.123865 -0.515388

loop_
_geom_bond_atom_site_label_1
_geom_bond_atom_site_label_2
_ccdc_geom_bond_type
C16   C23   S    
C2    C22   S    
C3    H6    S    
Cu2   O2    S    
Cu1   Cu2   S    
C1    C21   S    
C2    O4    A    
C6    C25   S    
C4    C22   D    
C11   C16   S    
C2    O2    A    
Cu1   O4    S    
C4    H5    S    
Cu1   O5    S    
C12   C15   S    
C1    O1    A    
C8    O6    A    
Cu2   O3    S    
C24   O10   D    
C9    C15   S    
C10   C16   S    
C23   H11   S    
C5    C26   S    
C9    C11   S    
C8    O8    A    
C10   C12   S    
C15   C24   S    
C5    N1    D    
C24   H12   S    
C17   C19   S    
C6    N2    D    
H10   N1    S    
C18   C20   S    
C7    O5    A    
C5    C6    S    
C21   H8    S    
C26   O12   D    
C3    C21   D    
Cu2   N1    S    
C1    O3    A    
C22   H7    S    
C13   C19   T    
C10   C17   S    
C12   C18   S    
C3    C4    S    
C14   C20   T    
C9    C18   S    
C7    C13   S    
H9    N2    S    
Cu2   O6    S    
C9    H3    S    
C16   C18   S    
Cu1   N2    S    
C23   O9    D    
C10   H4    S    
C7    O7    A    
C15   C17   S    
Cu2   O7    S    
C11   H1    S    
C26   H14   S    
C11   C17   S    
C8    C14   S    
Cu1   O1    S    
Cu1   O8    S    
C25   H13   S    
C12   H2    S    
C25   O11   D    
