data_mof_unit_38951.cif
_audit_creation_date              2012-12-10T18:18:28-0500
_audit_creation_method            fapswitch 2.2
_symmetry_space_group_name_H-M    P1
_symmetry_Int_Tables_number       1
_space_group_crystal_system       triclinic
_cell_length_a                    14.036167
_cell_length_b                    14.968685
_cell_length_c                    15.543058
_cell_angle_alpha                 88.451474
_cell_angle_beta                  67.270063
_cell_angle_gamma                 89.191725
_cell_volume                      3010.89695093

loop_
_atom_site_label
_atom_site_type_symbol
_atom_type_description
_atom_site_fract_x
_atom_site_fract_y
_atom_site_fract_z
_atom_type_partial_charge
C1    C     C_R   0.501057 0.673176 0.496051 0.890124
C2    C     C_R   0.503264 0.769004 0.491157 -0.106123
C3    C     C_R   0.493672 0.190757 0.430108 -0.262401
C4    C     C_R   0.528998 0.810421 0.557701 -0.258706
C5    C     C_R   0.497871 0.099063 0.425035 0.116131
C6    C     C_R   0.531842 0.902116 0.559206 0.114894
C7    C     C_R   0.514749 0.047232 0.494767 0.032585
C8    C     C_R   0.514916 0.953858 0.489485 0.037748
C9    C     C_R   0.529664 0.088735 0.570268 0.025595
C10   C     C_R   0.497361 0.912237 0.415328 0.023476
C11   C     C_R   0.488785 0.059549 0.348717 -0.264703
C12   C     C_R   0.498854 0.327041 0.504678 0.899976
C13   C     C_R   0.553781 0.941776 0.629250 -0.269886
C14   C     C_R   0.491893 0.967237 0.340881 -0.021986
C15   C     C_R   0.555697 0.034116 0.634675 -0.016528
C16   C     C_R   0.435307 0.502149 0.676034 0.913550
C17   C     C_R   0.564683 0.497083 0.324057 0.909030
C18   C     C_R   0.168807 0.471662 0.578115 -0.066342
C19   C     C_R   0.831222 0.528145 0.421822 -0.062046
C20   C     C_R   0.234409 0.527964 0.421844 -0.059215
C21   C     C_R   0.765691 0.471623 0.578000 -0.079383
C22   C     C_R   0.134809 0.528334 0.419862 0.011829
C23   C     C_R   0.377945 0.483990 0.105413 -0.280793
C24   C     C_R   0.865322 0.470904 0.579868 0.016211
C25   C     C_R   0.050578 0.499707 0.499937 0.086510
C26   C     C_R   0.949519 0.499720 0.499872 0.088492
C27   C     C_R   0.067373 0.470982 0.580029 0.017521
C28   C     C_R   0.932705 0.528469 0.419794 0.018391
C29   C     C_R   0.117559 0.556420 0.339971 -0.223524
C30   C     C_R   0.882620 0.442124 0.659540 -0.222327
C31   C     C_R   0.017427 0.556596 0.339967 -0.203862
C32   C     C_R   0.982721 0.442284 0.659662 -0.202236
C33   C     C_R   0.394168 0.505181 0.777475 -0.109812
C34   C     C_R   0.622240 0.510007 0.894831 -0.275093
C35   C     C_R   0.605924 0.492061 0.222778 -0.129757
C36   C     C_R   0.258145 0.481090 0.930798 0.534161
C37   C     C_R   0.741828 0.514881 0.069345 0.535320
C38   C     C_R   0.290784 0.487437 0.832824 -0.311893
C39   C     C_R   0.709264 0.509745 0.167248 -0.329746
C40   C     C_R   0.463662 0.521983 0.818559 -0.274036
C41   C     C_R   0.536605 0.473588 0.181908 -0.278724
C42   C     C_R   0.438096 0.505933 0.913261 0.015348
C43   C     C_R   0.562064 0.488938 0.087055 0.009770
C44   C     C_R   0.332821 0.489771 0.970573 0.053804
C45   C     C_R   0.304119 0.481507 0.066767 -0.211313
C46   C     C_R   0.667277 0.505281 0.029632 0.054359
C47   C     C_R   0.515298 0.503440 0.951407 0.103162
C48   C     C_R   0.484861 0.490928 0.048899 0.107823
C49   C     C_3   0.104032 0.407809 0.956311 -0.315158
C50   C     C_3   0.893042 0.593169 0.040855 -0.323246
C51   C     C_R   0.496267 0.227039 0.667976 0.104655
C52   C     C_R   0.572346 0.279251 0.680008 -0.103790
C53   C     C_R   0.556462 0.311822 0.768003 -0.118019
C54   C     C_R   0.463812 0.294387 0.843644 -0.078637
C55   C     C_R   0.385796 0.246401 0.831052 -0.160103
C56   C     C_R   0.696057 0.512818 0.933421 -0.201365
C57   C     C_R   0.401902 0.212608 0.743566 -0.164624
C58   C     C_R   0.445213 0.771290 0.358218 0.143626
C59   C     C_R   0.512548 0.723336 0.282238 -0.139980
C60   C     C_R   0.476853 0.689378 0.217363 -0.089286
C61   C     C_R   0.372852 0.698115 0.230900 -0.137641
C62   C     C_R   0.304283 0.741723 0.309178 -0.167915
C63   C     C_R   0.340338 0.778702 0.372536 -0.109895
C64   C     C_R   0.503540 0.934615 0.248317 0.148983
C65   C     C_R   0.421833 0.943197 0.217667 -0.140980
C66   C     C_R   0.435582 0.917942 0.127643 -0.135233
C67   C     C_R   0.515913 0.182534 0.578368 -0.078270
C68   C     C_R   0.531326 0.885591 0.067187 -0.110657
C69   C     C_R   0.613666 0.878893 0.096482 -0.145248
C70   C     C_R   0.600216 0.904030 0.186482 -0.153760
C71   C     C_R   0.596993 0.068086 0.701858 0.152911
C72   C     C_R   0.541303 0.056081 0.798310 -0.144619
C73   C     C_R   0.582822 0.084337 0.861508 -0.130045
C74   C     C_R   0.680666 0.123433 0.828839 -0.105067
C75   C     C_R   0.737531 0.133620 0.732909 -0.150500
C76   C     C_R   0.696327 0.105324 0.669461 -0.154923
C77   C     C_R   0.484912 0.818058 0.420363 -0.093258
C78   C     C_R   0.501461 0.231613 0.505794 -0.101133
H1    H     H_    0.223996 0.472824 0.113186 0.196921
H2    H     H_    0.993901 0.419919 0.721996 0.141736
H3    H     H_    0.461330 0.449963 0.226755 0.169156
H4    H     H_    0.538987 0.545770 0.774073 0.165055
H5    H     H_    0.763549 0.518992 0.200175 0.160339
H6    H     H_    0.236623 0.479223 0.799587 0.155362
H7    H     H_    0.347498 0.480968 0.180453 0.145664
H8    H     H_    0.652696 0.512714 0.819789 0.140093
H9    H     H_    0.483474 0.231120 0.375087 0.145176
H10   H     H_    0.543471 0.770467 0.610862 0.148716
H11   H     H_    0.482647 0.101300 0.292809 0.150745
H12   H     H_    0.776189 0.521432 0.886985 0.194273
H13   H     H_    0.572157 0.900230 0.679193 0.150350
H14   H     H_    0.153166 0.348278 0.926594 0.142259
H15   H     H_    0.076894 0.439983 0.904594 0.186871
H16   H     H_    0.034501 0.383705 0.015703 0.209781
H17   H     H_    0.919973 0.566503 0.094989 0.185670
H18   H     H_    0.841900 0.652501 0.066400 0.142028
H19   H     H_    0.962465 0.616118 0.980653 0.207628
H20   H     H_    0.645782 0.290485 0.622692 0.137045
H21   H     H_    0.616716 0.349026 0.778046 0.117589
H22   H     H_    0.452504 0.317799 0.912135 0.134868
H23   H     H_    0.183171 0.449601 0.638937 0.125071
H24   H     H_    0.313766 0.233673 0.889554 0.125922
H25   H     H_    0.342160 0.173029 0.735236 0.130444
H26   H     H_    0.593595 0.716954 0.270399 0.105208
H27   H     H_    0.530506 0.658408 0.155349 0.140852
H28   H     H_    0.345613 0.671709 0.180429 0.135016
H29   H     H_    0.223686 0.748452 0.319746 0.137591
H30   H     H_    0.287350 0.814889 0.431376 0.124271
H31   H     H_    0.347638 0.968990 0.263660 0.122666
H32   H     H_    0.372123 0.923744 0.104632 0.122964
H33   H     H_    0.541856 0.866175 0.997504 0.125733
H34   H     H_    0.816859 0.550235 0.361008 0.123434
H35   H     H_    0.687959 0.854403 0.049409 0.127662
H36   H     H_    0.664792 0.899454 0.208177 0.123183
H37   H     H_    0.465625 0.025508 0.824328 0.121511
H38   H     H_    0.539201 0.075832 0.935780 0.131611
H39   H     H_    0.712590 0.145478 0.877836 0.125591
H40   H     H_    0.813523 0.163434 0.707705 0.132090
H41   H     H_    0.741255 0.112985 0.595283 0.128649
H42   H     H_    0.299480 0.550048 0.360774 0.154380
H43   H     H_    0.700719 0.449505 0.639078 0.129849
H44   H     H_    0.181424 0.578228 0.277463 0.138671
H45   H     H_    0.818791 0.419456 0.721727 0.136291
H46   H     H_    0.006303 0.578652 0.277519 0.142269
N1    N     N_R   0.249980 0.499930 0.499960 -0.098907
N2    N     N_R   0.750020 0.500070 0.500040 -0.096563
O1    O     O_R   0.419720 0.632140 0.499980 -0.602454
O2    O     O_3   0.845264 0.525243 0.010594 -0.631209
O3    O     O_R   0.580280 0.367860 0.500020 -0.618110
O4    O     O_R   0.580270 0.632160 0.499970 -0.616409
O5    O     O_R   0.419730 0.367840 0.500030 -0.614843
O6    O     O_R   0.373870 0.499980 0.632250 -0.625262
O7    O     O_R   0.626130 0.500020 0.367750 -0.624707
O8    O     O_R   0.534420 0.500000 0.632240 -0.630363
O9    O     O_R   0.465580 0.500000 0.367760 -0.625548
O10   O     O_3   0.154723 0.470601 0.989847 -0.632799
Zn1   Zn    Zn3+2 0.392800 0.499980 0.500010 0.949178
Zn2   Zn    Zn3+2 0.607200 0.500020 0.499990 0.937539

loop_
_geom_bond_atom_site_label_1
_geom_bond_atom_site_label_2
_ccdc_geom_bond_type
C66   C68   A    
C34   C56   A    
C23   C45   A    
C12   O5    A    
C73   C74   A    
C2    C4    A    
C16   O8    A    
C7    C8    A    
C53   C54   A    
C70   H36   S    
C75   H40   S    
C72   H37   S    
C69   H35   S    
C73   H38   S    
C59   H26   S    
C17   C35   S    
C22   C29   A    
C24   C26   A    
C31   H46   S    
C5    C11   A    
C18   N1    A    
C71   C76   A    
C11   C14   A    
C50   H17   S    
C7    C9    A    
C1    C2    S    
C34   H8    S    
C52   H20   S    
C58   C77   S    
O3    Zn2   S    
C68   C69   A    
C22   C25   A    
C12   C78   S    
C17   O9    A    
C51   C57   A    
C64   C70   A    
C49   H16   S    
C30   C32   A    
C43   C48   A    
C37   O2    S    
C40   C42   A    
C41   H3    S    
C59   C60   A    
C13   H13   S    
C21   H43   S    
C41   C43   A    
C54   H22   S    
C61   C62   A    
C67   C78   A    
C42   C44   A    
C16   O6    A    
C36   O10   S    
C10   C77   A    
C24   C30   A    
C57   H25   S    
C33   C40   A    
C74   C75   A    
C18   C27   A    
C3    H9    S    
C51   C52   A    
C76   H41   S    
C40   H4    S    
C4    C6    A    
C1    O4    A    
C12   O3    A    
C5    C7    A    
C6    C8    A    
C62   H29   S    
N1    Zn1   S    
C25   C26   A    
C19   H34   S    
C53   H21   S    
C60   C61   A    
C68   H33   S    
C35   C39   A    
C75   C76   A    
C9    C67   A    
C62   C63   A    
O5    Zn1   S    
C16   C33   S    
C32   H2    S    
C11   H11   S    
C47   C48   A    
C55   H24   S    
C13   C15   A    
C14   C64   S    
C29   H44   S    
C63   H30   S    
C45   H1    S    
C51   C67   S    
C66   H32   S    
O7    Zn2   S    
C61   H28   S    
C65   H31   S    
C21   N2    A    
C8    C10   A    
C49   O10   S    
C20   C22   A    
C55   C57   A    
C19   C28   A    
C36   C44   A    
C50   O2    S    
C49   H14   S    
O4    Zn2   S    
C20   H42   S    
C52   C53   A    
C58   C63   A    
O9    Zn1   S    
C74   H39   S    
C54   C55   A    
N2    Zn2   S    
C50   H19   S    
C23   C48   A    
C38   H6    S    
C27   C32   A    
C28   C31   A    
C44   C45   A    
C1    O1    A    
C72   C73   A    
C3    C5    A    
O8    Zn2   S    
C4    H10   S    
C25   C27   A    
C15   C71   S    
C19   N2    A    
C26   C28   A    
C33   C38   A    
C64   C65   A    
C36   C38   A    
O6    Zn1   S    
C39   H5    S    
C20   N1    A    
C29   C31   A    
C2    C77   A    
C6    C13   A    
C17   O7    A    
C50   H18   S    
C56   H12   S    
C42   C47   A    
C9    C15   A    
C69   C70   A    
C35   C41   A    
C43   C46   A    
C58   C59   A    
C71   C72   A    
C30   H45   S    
C37   C39   A    
C65   C66   A    
C23   H7    S    
C21   C24   A    
C46   C56   A    
C34   C47   A    
O1    Zn1   S    
C49   H15   S    
C37   C46   A    
C3    C78   A    
C18   H23   S    
C60   H27   S    
C10   C14   A    
