data_mof_unit_19436.cif
_audit_creation_date              2012-12-10T21:13:55-0500
_audit_creation_method            fapswitch 2.2
_symmetry_space_group_name_H-M    P1
_symmetry_Int_Tables_number       1
_space_group_crystal_system       triclinic
_cell_length_a                    15.401782
_cell_length_b                    16.733535
_cell_length_c                    17.603118
_cell_angle_alpha                 89.679769
_cell_angle_beta                  89.741357
_cell_angle_gamma                 67.713314
_cell_volume                      4197.79854777

loop_
_atom_site_label
_atom_site_type_symbol
_atom_type_description
_atom_site_fract_x
_atom_site_fract_y
_atom_site_fract_z
_atom_type_partial_charge
C1    C     C_R   0.501136 0.499217 0.646721 0.961886
C2    C     C_R   0.498779 0.500826 0.353166 0.972935
C3    C     C_R   0.092056 0.416027 0.589024 -0.239164
C4    C     C_R   0.888197 0.610729 0.533696 -0.239415
C5    C     C_R   0.051723 0.354717 0.596085 -0.240874
C6    C     C_R   0.928133 0.672013 0.525487 -0.246450
C7    C     C_R   0.510161 0.424472 0.153032 0.518251
C8    C     C_R   0.456383 0.578761 0.846310 0.518417
C9    C     C_R   0.517126 0.424995 0.231589 -0.382773
C10   C     C_R   0.464558 0.577330 0.767685 -0.378054
C11   C     C_R   0.493587 0.503209 0.270612 -0.303792
C12   C     C_R   0.499971 0.498425 0.729158 -0.307351
C13   C     C_R   0.463736 0.582391 0.230363 0.409482
C14   C     C_R   0.531487 0.419629 0.769853 0.421880
C15   C     C_R   0.453391 0.581984 0.151455 0.383972
C16   C     C_R   0.521172 0.420957 0.848709 0.387055
C17   C     C_R   0.480361 0.502917 0.113530 -0.203679
C18   C     C_R   0.486062 0.500492 0.886224 -0.208690
C19   C     C_1   0.480221 0.502255 0.033493 0.126238
C20   C     C_1   0.482034 0.501646 0.966208 0.125755
C21   C     C_R   0.566482 0.145236 0.546267 -0.066489
C22   C     C_R   0.427042 0.856973 0.460674 -0.077937
C23   C     C_R   0.676870 0.446451 0.501099 0.872854
C24   C     C_R   0.323212 0.553661 0.501393 0.885303
C25   C     C_R   0.564156 0.230648 0.543286 -0.010926
C26   C     C_R   0.429928 0.771375 0.463186 -0.042604
C27   C     C_R   0.436787 0.273316 0.457652 0.002688
C28   C     C_R   0.569011 0.724751 0.535938 0.002567
C29   C     C_R   0.436244 0.189458 0.458155 -0.293036
C30   C     C_R   0.569604 0.808574 0.535221 -0.292832
C31   C     C_R   0.501028 0.124082 0.502527 0.103258
C32   C     C_R   0.498635 0.876046 0.497550 0.104715
C33   C     C_1   0.500332 0.036417 0.500695 -0.043559
C34   C     C_1   0.499514 0.963643 0.499370 -0.043589
C35   C     C_R   0.777694 0.413999 0.515176 -0.073947
C36   C     C_R   0.221458 0.588328 0.510472 -0.078854
C37   C     C_R   0.920303 0.308587 0.569399 0.009268
C38   C     C_R   0.068669 0.705234 0.501900 0.002407
C39   C     C_R   0.827454 0.331350 0.544400 -0.267120
C40   C     C_R   0.166695 0.675360 0.497117 -0.247476
C41   C     C_R   0.820388 0.473393 0.509915 -0.267716
C42   C     C_R   0.179537 0.531820 0.533202 -0.274612
C43   C     C_R   0.907899 0.456773 0.541784 0.079402
C44   C     C_R   0.082561 0.559157 0.540712 0.079814
C45   C     C_R   0.960898 0.372185 0.568913 0.118018
C46   C     C_R   0.025834 0.646488 0.522804 0.118623
C47   C     C_R   0.944681 0.522397 0.544296 0.084753
C48   C     C_R   0.040877 0.499029 0.558642 0.081567
H1    H     H_    0.093362 0.293173 0.621517 0.166310
H2    H     H_    0.881632 0.738773 0.518132 0.165189
H3    H     H_    0.613285 0.247996 0.576456 0.138943
H4    H     H_    0.376335 0.755608 0.434738 0.152622
H5    H     H_    0.386455 0.322985 0.423169 0.131904
H6    H     H_    0.624017 0.673613 0.565491 0.132639
H7    H     H_    0.385467 0.175670 0.423758 0.151223
H8    H     H_    0.625171 0.820711 0.564387 0.154537
H9    H     H_    0.223839 0.464758 0.540999 0.163783
H10   H     H_    0.783138 0.533946 0.481250 0.156452
H11   H     H_    0.199926 0.719154 0.479453 0.157003
H12   H     H_    0.793850 0.285081 0.548628 0.148901
H13   H     H_    0.162655 0.397887 0.610228 0.150535
H14   H     H_    0.812463 0.634265 0.533347 0.144054
H15   H     H_    0.541899 0.363886 0.261835 0.206088
H16   H     H_    0.441617 0.638050 0.736885 0.205701
N1    N     N_R   0.499980 0.292780 0.499970 -0.092881
N2    N     N_R   0.500020 0.707220 0.500030 -0.091797
O1    O     O_R   0.500000 0.433430 0.610870 -0.568400
O2    O     O_R   0.500000 0.566570 0.389130 -0.573800
O3    O     O_R   0.500010 0.566520 0.610900 -0.625564
O4    O     O_R   0.499990 0.433480 0.389100 -0.629903
O5    O     O_R   0.632240 0.395450 0.499980 -0.624088
O6    O     O_R   0.367760 0.604550 0.500020 -0.621402
O7    O     O_R   0.632250 0.528530 0.500000 -0.629561
O8    O     O_R   0.367750 0.471470 0.500000 -0.626660
Zn1   Zn    Zn3+2 0.500000 0.411140 0.499980 0.947674
Zn2   Zn    Zn3+2 0.500000 0.588860 0.500020 0.944410
C49   C     C_R   0.637401 0.080600 0.595190 0.117652
C50   C     C_R   0.610443 0.031052 0.648193 -0.122483
C51   C     C_R   0.677476 0.970842 0.694484 -0.143211
C52   C     C_R   0.771685 0.960352 0.689123 -0.113514
C53   C     C_R   0.798995 0.010220 0.637613 -0.117751
C54   C     C_R   0.732377 0.070070 0.590752 -0.165957
H17   H     H_    0.537481 0.039572 0.654327 0.131468
H18   H     H_    0.656247 0.932695 0.734890 0.134138
H19   H     H_    0.823456 0.913929 0.725183 0.124557
H20   H     H_    0.871846 0.002467 0.634124 0.136500
H21   H     H_    0.754975 0.107790 0.550801 0.116140
C55   C     C_R   0.348482 0.924231 0.420177 0.120511
C56   C     C_R   0.365977 0.977458 0.365025 -0.136009
C57   C     C_R   0.291472 0.040915 0.327524 -0.143983
C58   C     C_R   0.199038 0.051188 0.344025 -0.112269
C59   C     C_R   0.180944 0.997679 0.397733 -0.132735
C60   C     C_R   0.255194 0.934277 0.435544 -0.171244
H22   H     H_    0.437193 0.969507 0.350604 0.125809
H23   H     H_    0.305447 0.081965 0.285461 0.125075
H24   H     H_    0.141448 0.100382 0.314980 0.125300
H25   H     H_    0.109327 0.005611 0.410315 0.143195
H26   H     H_    0.239804 0.893854 0.477507 0.118232
C61   C     C_R   0.971210 0.219270 0.597572 0.110143
C62   C     C_R   0.935255 0.187556 0.659148 -0.156850
C63   C     C_R   0.983341 0.103671 0.686304 -0.145759
C64   C     C_R   0.067569 0.050859 0.652263 -0.138136
C65   C     C_R   0.103361 0.081583 0.590526 -0.150815
C66   C     C_R   0.054924 0.165067 0.562573 -0.174915
H27   H     H_    0.870664 0.228122 0.686609 0.115778
H28   H     H_    0.955431 0.079709 0.733908 0.131957
H29   H     H_    0.104848 0.985998 0.673445 0.124229
H30   H     H_    0.168590 0.040636 0.564325 0.147033
H31   H     H_    0.083032 0.187782 0.514246 0.138790
C67   C     C_R   0.013963 0.795887 0.478842 0.118227
C68   C     C_R   0.025022 0.864564 0.517655 -0.163279
C69   C     C_R   0.975261 0.949815 0.494436 -0.170939
C70   C     C_R   0.914540 0.967175 0.432424 -0.104307
C71   C     C_R   0.904143 0.899232 0.392872 -0.122873
C72   C     C_R   0.954154 0.813858 0.415508 -0.166830
H32   H     H_    0.071830 0.852104 0.565876 0.121963
H33   H     H_    0.983486 0.002608 0.524501 0.149930
H34   H     H_    0.875896 0.033259 0.414840 0.123009
H35   H     H_    0.857644 0.912685 0.344446 0.128446
H36   H     H_    0.946366 0.761743 0.383730 0.131458
O9    O     O_3   0.538784 0.346911 0.114495 -0.568300
C73   C     C_3   0.463827 0.318126 0.114096 -0.310242
H37   H     H_    0.485863 0.256863 0.081796 0.190342
H38   H     H_    0.401092 0.365526 0.085180 0.141495
H39   H     H_    0.445444 0.304586 0.172699 0.154504
O10   O     O_3   0.424682 0.656655 0.884446 -0.568103
C74   C     C_3   0.325791 0.689673 0.885186 -0.305838
H40   H     H_    0.300196 0.751177 0.917269 0.191484
H41   H     H_    0.298734 0.644620 0.914506 0.142045
H42   H     H_    0.296790 0.704073 0.826652 0.152487
O11   O     O_3   0.436419 0.660356 0.268339 -0.589966
C75   C     C_3   0.509622 0.691436 0.263641 -0.216423
H43   H     H_    0.520840 0.708392 0.204256 0.189209
H44   H     H_    0.576287 0.644095 0.287419 0.144728
H45   H     H_    0.489736 0.751249 0.297841 0.173390
O12   O     O_3   0.568369 0.340994 0.732998 -0.577324
C76   C     C_3   0.666154 0.317417 0.725793 -0.264043
H46   H     H_    0.700386 0.311574 0.782242 0.182814
H47   H     H_    0.683109 0.363950 0.689085 0.136667
H48   H     H_    0.696154 0.253191 0.698270 0.171572
O13   O     O_3   0.422563 0.658797 0.111009 -0.575513
C77   C     C_3   0.323979 0.689406 0.105829 -0.249568
H49   H     H_    0.290521 0.703078 0.163002 0.177730
H50   H     H_    0.300952 0.643147 0.074720 0.128177
H51   H     H_    0.299052 0.750919 0.073313 0.183875
O14   O     O_3   0.552212 0.344361 0.889463 -0.565051
C78   C     C_3   0.477855 0.315022 0.895064 -0.234617
H52   H     H_    0.455861 0.301259 0.838071 0.175600
H53   H     H_    0.416820 0.362145 0.925981 0.124707
H54   H     H_    0.502402 0.253777 0.927968 0.184404

loop_
_geom_bond_atom_site_label_1
_geom_bond_atom_site_label_2
_ccdc_geom_bond_type
C30   C32   A    
O10   C74   S    
C37   C45   A    
C27   C29   A    
C36   C42   A    
C19   C20   T    
O6    Zn2   S    
C74   H41   S    
C71   C72   A    
C57   H23   S    
C49   C50   A    
C21   C31   A    
C62   H27   S    
C24   C36   S    
C22   C32   A    
C78   H53   S    
C23   O7    A    
C41   H10   S    
O14   C78   S    
C2    O2    A    
C66   H31   S    
C39   H12   S    
C54   H21   S    
C14   O12   S    
C4    H14   S    
C3    C48   A    
O3    Zn2   S    
C16   O14   S    
C56   H22   S    
C67   C68   A    
C59   C60   A    
C65   C66   A    
C1    O1    A    
C58   H24   S    
C15   O13   S    
C50   H17   S    
C38   C40   A    
C78   H52   S    
C75   H43   S    
C7    C17   A    
C31   C33   S    
C65   H30   S    
C22   C55   S    
C38   C67   S    
C18   C20   S    
C53   H20   S    
C9    C11   A    
C61   C66   A    
C40   H11   S    
C41   C43   A    
C77   H51   S    
C5    H1    S    
C1    C12   S    
C42   C44   A    
C7    O9    S    
C2    C11   S    
C42   H9    S    
C69   C70   A    
C44   C46   A    
C59   H25   S    
C53   C54   A    
C3    H13   S    
C76   H48   S    
O8    Zn1   S    
C26   N2    A    
C63   C64   A    
C23   O5    A    
C36   C40   A    
C78   H54   S    
C25   N1    A    
C4    C6    A    
C58   C59   A    
C28   H6    S    
C50   C51   A    
C52   C53   A    
C29   H7    S    
C5    C45   A    
C1    O3    A    
C70   H34   S    
C32   C34   S    
C28   N2    A    
C25   H3    S    
C52   H19   S    
C27   N1    A    
C26   H4    S    
C76   H47   S    
C47   C48   A    
C29   C31   A    
N2    Zn2   S    
C33   C34   T    
C13   O11   S    
C64   H29   S    
C6    H2    S    
C43   C45   A    
O9    C73   S    
C68   H32   S    
C10   C12   A    
C75   H44   S    
C12   C14   A    
C23   C35   S    
C13   C15   A    
O7    Zn2   S    
C14   C16   A    
O1    Zn1   S    
C73   H38   S    
C74   H40   S    
C37   C61   S    
C24   O6    A    
C70   C71   A    
C8    O10   S    
C63   H28   S    
C15   C17   A    
C21   C25   A    
C55   C60   A    
C6    C46   A    
C68   C69   A    
C9    H15   S    
C8    C10   A    
C10   H16   S    
C71   H35   S    
O12   C76   S    
C3    C5    A    
C27   H5    S    
O2    Zn2   S    
C76   H46   S    
N1    Zn1   S    
C61   C62   A    
C69   H33   S    
C73   H39   S    
C28   C30   A    
C56   C57   A    
C74   H42   S    
C37   C39   A    
C44   C48   A    
O13   C77   S    
O5    Zn1   S    
C11   C13   A    
C24   O8    A    
C57   C58   A    
C51   H18   S    
C30   H8    S    
C49   C54   A    
C75   H45   S    
C35   C39   A    
C60   H26   S    
C62   C63   A    
C17   C19   S    
C77   H50   S    
C64   C65   A    
C35   C41   A    
C8    C18   A    
C38   C46   A    
C51   C52   A    
C7    C9    A    
C55   C56   A    
C16   C18   A    
C72   H36   S    
C22   C26   A    
C21   C49   S    
O4    Zn1   S    
C77   H49   S    
C73   H37   S    
C2    O4    A    
C43   C47   A    
C67   C72   A    
O11   C75   S    
C4    C47   A    
