data_mof_unit_38352.cif
_audit_creation_date              2012-12-10T20:31:00-0500
_audit_creation_method            fapswitch 2.2
_symmetry_space_group_name_H-M    P1
_symmetry_Int_Tables_number       1
_space_group_crystal_system       triclinic
_cell_length_a                    15.007446
_cell_length_b                    10.690802
_cell_length_c                    9.845949
_cell_angle_alpha                 90.099645
_cell_angle_beta                  89.950233
_cell_angle_gamma                 89.884454
_cell_volume                      1579.69394105

loop_
_atom_site_label
_atom_site_type_symbol
_atom_type_description
_atom_site_fract_x
_atom_site_fract_y
_atom_site_fract_z
_atom_type_partial_charge
C1    C     C_R   0.497755 0.260083 0.500072 0.883706
C2    C     C_R   0.907288 0.507909 0.375399 0.119092
C3    C     C_R   0.953429 0.508720 0.748119 -0.219466
C4    C     C_R   0.046007 0.509088 0.748142 -0.218704
C5    C     C_R   0.092493 0.508491 0.624788 0.120039
C6    C     C_R   0.046226 0.508904 0.500124 0.059203
C7    C     C_R   0.092651 0.508560 0.375479 0.120197
C8    C     C_R   0.046344 0.509232 0.252100 -0.218094
C9    C     C_R   0.953774 0.508929 0.252063 -0.219585
C10   C     C_R   0.184651 0.506508 0.623827 -0.258233
C11   C     C_R   0.230557 0.504448 0.500137 -0.075096
C12   C     C_R   0.326518 0.500945 0.500064 0.896531
C13   C     C_R   0.184791 0.506569 0.376458 -0.258676
C14   C     C_R   0.496178 0.064211 0.623115 0.087673
C15   C     C_R   0.486118 0.128772 0.501606 -0.094794
C16   C     C_R   0.462031 0.064546 0.382888 -0.225385
C17   C     C_R   0.462386 0.935039 0.382950 -0.235245
C18   C     C_R   0.488339 0.871486 0.501068 -0.113752
C19   C     C_R   0.500449 0.937149 0.621563 0.119400
C20   C     C_3   0.570793 0.933936 0.730154 -0.120724
C21   C     C_3   0.563851 0.076332 0.733953 -0.485625
C22   C     C_R   0.468340 0.399136 0.071077 0.219651
C23   C     C_R   0.498623 0.739960 0.500070 0.884018
C24   C     C_R   0.539373 0.593766 0.072181 -0.140273
C25   C     C_R   0.539515 0.593615 0.928093 -0.141734
C26   C     C_R   0.468430 0.399135 0.928433 0.218204
C27   C     C_3   0.376456 0.347373 0.922175 -0.510008
C28   C     C_3   0.376122 0.347757 0.076407 -0.516620
C29   C     C_R   0.673434 0.500607 0.499964 0.894132
C30   C     C_R   0.815163 0.505300 0.376288 -0.263928
C31   C     C_R   0.769308 0.503114 0.499988 -0.087756
C32   C     C_R   0.814993 0.504989 0.623769 -0.278300
C33   C     C_R   0.907114 0.507732 0.624751 0.121907
C34   C     C_R   0.953533 0.508574 0.500095 0.062087
H1    H     H_    0.779381 0.504607 0.280627 0.164083
H2    H     H_    0.447518 0.885651 0.289528 0.170980
H3    H     H_    0.544813 0.891160 0.825092 0.142069
H4    H     H_    0.533171 0.111812 0.829408 0.180349
H5    H     H_    0.624211 0.128702 0.702802 0.199713
H6    H     H_    0.569757 0.670545 0.126661 0.146738
H7    H     H_    0.570313 0.669869 0.873877 0.135323
H8    H     H_    0.327882 0.414114 0.877500 0.212455
H9    H     H_    0.375277 0.251766 0.877643 0.201020
H10   H     H_    0.327478 0.414917 0.120566 0.212776
H11   H     H_    0.779077 0.504192 0.719406 0.164353
H12   H     H_    0.374204 0.252333 0.120730 0.194072
H13   H     H_    0.918124 0.508417 0.844209 0.140215
H14   H     H_    0.081190 0.509030 0.844251 0.140718
H15   H     H_    0.220370 0.506159 0.719420 0.153917
H16   H     H_    0.220610 0.506270 0.280855 0.153872
H17   H     H_    0.081661 0.509210 0.156011 0.140553
H18   H     H_    0.918608 0.508707 0.155946 0.140221
H19   H     H_    0.447760 0.113442 0.289185 0.162248
N1    N     N_R   0.499390 0.499140 0.142800 -0.107439
N2    N     N_R   0.499390 0.499180 0.857150 -0.106269
O1    O     O_R   0.500010 0.316790 0.614690 -0.616712
O2    O     O_R   0.500000 0.316760 0.385350 -0.623417
O3    O     O_R   0.367850 0.499990 0.614680 -0.625612
O4    O     O_R   0.367840 0.499950 0.385340 -0.626540
O5    O     O_R   0.500000 0.683240 0.614650 -0.627976
O6    O     O_R   0.499990 0.683210 0.385310 -0.629469
O7    O     O_R   0.632160 0.500050 0.614660 -0.632164
O8    O     O_R   0.632150 0.500010 0.385320 -0.622447
Zn1   Zn    Zn3+2 0.500010 0.500020 0.653130 0.938021
Zn2   Zn    Zn3+2 0.499990 0.499980 0.346870 0.941188
C35   C     C_3   0.663528 0.880825 0.690275 -0.375245
C36   C     C_3   0.703162 0.927083 0.554706 -0.319905
C37   C     C_3   0.795943 0.872235 0.531703 -0.885699
H20   H     H_    0.841734 0.901417 0.614421 0.264454
H21   H     H_    0.792802 0.768638 0.528220 0.270403
H22   H     H_    0.823000 0.906231 0.433501 0.253204
H23   H     H_    0.660624 0.898298 0.468300 0.223405
H24   H     H_    0.708863 0.030402 0.553458 0.221467
H25   H     H_    0.710485 0.904285 0.773728 0.201239
H26   H     H_    0.658749 0.777202 0.686569 0.205994

loop_
_geom_bond_atom_site_label_1
_geom_bond_atom_site_label_2
_ccdc_geom_bond_type
C29   O8    A    
C32   H11   S    
C19   C20   S    
C6    C34   A    
C26   N2    A    
O8    Zn2   S    
C7    C8    A    
C22   N1    A    
N1    Zn2   S    
C28   H12   S    
C26   C27   S    
C30   H1    S    
C14   C21   S    
C20   C35   S    
C1    O1    A    
C18   C19   A    
C30   C31   A    
C16   C17   A    
C3    C33   A    
C24   N1    A    
C15   C16   A    
C35   H25   S    
C36   H23   S    
C16   H19   S    
O7    Zn1   S    
C12   O4    A    
C21   H4    S    
C8    C9    A    
O1    Zn1   S    
C36   H24   S    
C17   H2    S    
C12   O3    A    
C2    C34   A    
C35   C36   S    
C22   C28   S    
C9    H18   S    
C17   C18   A    
O3    Zn1   S    
C23   O5    A    
C36   C37   S    
C24   C25   A    
C25   H7    S    
C37   H20   S    
C28   H10   S    
C18   C23   S    
C2    C9    A    
C1    O2    A    
C31   C32   A    
C21   H5    S    
C23   O6    A    
N2    Zn1   S    
C33   C34   A    
C8    H17   S    
C1    C15   S    
C3    C4    A    
C4    H14   S    
C27   H9    S    
C29   O7    A    
C14   C19   A    
C25   N2    A    
O2    Zn2   S    
C4    C5    A    
C11   C12   S    
C6    C7    A    
C2    C30   A    
O5    Zn1   S    
C32   C33   A    
C5    C10   A    
C29   C31   S    
O4    Zn2   S    
C20   H3    S    
C11   C13   A    
C27   H8    S    
C5    C6    A    
C37   H22   S    
C35   H26   S    
C3    H13   S    
C24   H6    S    
C10   C11   A    
C13   H16   S    
O6    Zn2   S    
C7    C13   A    
C20   C21   S    
C37   H21   S    
C22   C26   A    
C27   C28   S    
C14   C15   A    
C10   H15   S    
