data_mof_unit_34807.cif
_audit_creation_date              2012-10-26T17:13:06-0400
_audit_creation_method            fapswitch 2.2
_symmetry_space_group_name_H-M    P1
_symmetry_Int_Tables_number       1
_space_group_crystal_system       triclinic
_cell_length_a                    16.63164
_cell_length_b                    16.806098
_cell_length_c                    16.806096
_cell_angle_alpha                 67.768476
_cell_angle_beta                  67.800599
_cell_angle_gamma                 67.800593
_cell_volume                      3871.85867818

loop_
_atom_site_label
_atom_site_type_symbol
_atom_type_description
_atom_site_fract_x
_atom_site_fract_y
_atom_site_fract_z
_atom_type_partial_charge
C1    C     C_R   0.329410 0.929334 0.458449 0.022204
C2    C     C_R   0.322955 0.449004 0.964576 -0.031863
C3    C     C_R   0.521223 0.397811 0.048429 0.014042
C4    C     C_R   0.009134 0.455548 0.589043 0.009863
C5    C     C_R   0.001463 0.536564 0.412438 0.010367
C6    C     C_2   0.526315 0.855095 0.823238 0.261670
C7    C     C_2   0.611610 0.864629 0.239371 0.268942
C8    C     C_2   0.885517 0.811980 0.486203 0.269906
C9    C     C_2   0.863261 0.250069 0.599956 0.271419
C10   C     C_2   0.760290 0.398689 0.157218 0.289589
C11   C     C_2   0.260274 0.594995 0.860678 0.266919
C12   C     C_2   0.239710 0.842781 0.601311 0.289589
C13   C     C_R   0.997742 0.688540 0.564298 -0.040788
C14   C     C_2   0.739726 0.139322 0.405005 0.266918
C15   C     C_2   0.473685 0.176762 0.144905 0.261670
C16   C     C_2   0.388390 0.760629 0.135371 0.268942
C17   C     C_2   0.114483 0.513797 0.188020 0.269906
C18   C     C_2   0.136739 0.400044 0.749931 0.271419
C19   C     C_R   0.960343 0.320671 0.451628 -0.032845
C20   C     C_R   0.465634 0.948991 0.463602 -0.003938
C21   C     C_R   0.555651 0.983887 0.554361 -0.005995
C22   C     C_R   0.992112 0.449743 0.454252 -0.005479
C23   C     C_R   0.007888 0.545748 0.550257 -0.005479
C24   C     C_R   0.444349 0.445639 0.016113 -0.005995
C25   C     C_R   0.534366 0.536398 0.051009 -0.003937
C26   C     C_R   0.016074 0.830721 0.568948 0.564502
C27   C     C_R   0.677045 0.035424 0.550996 -0.031862
C28   C     C_R   0.972882 0.171406 0.434993 0.519450
C29   C     C_R   0.827764 0.563862 0.030376 0.587193
C30   C     C_R   0.171976 0.435385 0.972097 0.502679
C31   C     C_R   0.569572 0.014971 0.830989 0.540387
C32   C     C_R   0.435550 0.970995 0.171937 0.502845
C33   C     C_R   0.430428 0.169011 0.985029 0.540386
C34   C     C_R   0.564450 0.828062 0.029005 0.502845
C35   C     C_R   0.983926 0.431052 0.169279 0.564502
C36   C     C_R   0.027117 0.565007 0.828594 0.519451
C37   C     C_R   0.172236 0.969624 0.436138 0.587194
C38   C     C_R   0.002258 0.435702 0.311460 -0.040789
C39   C     C_R   0.828024 0.027902 0.564615 0.502679
C40   C     C_R   0.417416 0.940038 0.415454 0.001377
C41   C     C_R   0.600889 0.001260 0.599673 0.009024
C42   C     C_R   0.984313 0.402048 0.405716 0.008935
C43   C     C_R   0.015686 0.594284 0.597952 0.008935
C44   C     C_R   0.399111 0.400327 0.998740 0.009024
C45   C     C_R   0.582584 0.584546 0.059962 0.001377
C46   C     C_R   0.272872 0.947296 0.403527 0.008841
C47   C     C_R   0.729313 0.038353 0.600197 -0.050581
C48   C     C_R   0.985797 0.391244 0.264024 -0.025496
C49   C     C_R   0.039657 0.548372 0.679329 -0.032845
C50   C     C_R   0.037761 0.600261 0.730938 -0.039439
C51   C     C_R   0.389118 0.262529 0.990088 -0.040374
C52   C     C_R   0.596676 0.728757 0.048870 -0.044095
C53   C     C_R   0.610881 0.009912 0.737471 -0.040374
C54   C     C_R   0.403324 0.951130 0.271243 -0.044096
C55   C     C_R   0.727128 0.596472 0.052704 0.008840
C56   C     C_R   0.270687 0.399803 0.961647 -0.050582
C57   C     C_R   0.014203 0.735976 0.608756 -0.025495
C58   C     C_R   0.962239 0.269062 0.399739 -0.039439
C59   C     C_R   0.510153 0.927899 0.741033 0.017336
C60   C     C_R   0.427793 0.305939 0.019103 -0.036837
C61   C     C_R   0.553032 0.930876 0.291616 0.051361
C62   C     C_R   0.964404 0.730706 0.487077 0.022626
C63   C     C_R   0.938183 0.293631 0.547316 0.025264
C64   C     C_R   0.696638 0.445948 0.100258 0.012494
C65   C     C_R   0.300841 0.544212 0.937605 0.040060
C66   C     C_R   0.303362 0.899742 0.554052 0.012493
C67   C     C_R   0.699158 0.062395 0.455788 0.040060
C68   C     C_R   0.489847 0.258967 0.072101 0.017336
C69   C     C_R   0.446968 0.708384 0.069124 0.051361
C70   C     C_R   0.035596 0.512923 0.269294 0.022625
C71   C     C_R   0.541638 0.675441 0.059485 -0.025175
C72   C     C_R   0.061817 0.452683 0.706369 0.025264
C73   C     C_R   0.311751 0.955628 0.311774 -0.154056
C74   C     C_R   0.690880 0.034477 0.690519 -0.147209
C75   C     C_R   0.968764 0.307746 0.308540 -0.127974
C76   C     C_R   0.031236 0.691460 0.692254 -0.127974
C77   C     C_R   0.309120 0.309481 0.965522 -0.147209
C78   C     C_R   0.688249 0.688226 0.044372 -0.154056
C79   C     C_R   0.665404 0.028514 0.412906 0.066155
C80   C     C_R   0.351393 0.910011 0.602673 -0.011588
C81   C     C_R   0.029047 0.410048 0.671344 0.038557
C82   C     C_R   0.572207 0.980897 0.694061 -0.036838
C83   C     C_R   0.015015 0.571902 0.319989 0.042828
C84   C     C_R   0.408294 0.669824 0.036129 0.080785
C85   C     C_R   0.546182 0.303779 0.073748 0.043482
C86   C     C_R   0.591706 0.963871 0.330176 0.080785
C87   C     C_R   0.453818 0.926252 0.696221 0.043482
C88   C     C_R   0.334596 0.587094 0.971486 0.066155
C89   C     C_R   0.648607 0.397326 0.089989 -0.011588
C90   C     C_R   0.970953 0.328656 0.589952 0.038557
C91   C     C_R   0.984985 0.680011 0.428098 0.042828
C92   C     C_R   0.706030 0.025459 0.323351 -0.056492
C93   C     C_R   0.458362 0.940515 0.324559 -0.025175
C94   C     C_R   0.324570 0.889970 0.696806 -0.123130
C95   C     C_R   0.016235 0.323888 0.714614 -0.094240
C96   C     C_R   0.009969 0.663544 0.281880 -0.072225
C97   C     C_R   0.328645 0.716443 0.009068 -0.050937
C98   C     C_R   0.624887 0.257481 0.102651 -0.066560
C99   C     C_R   0.671355 0.990932 0.283557 -0.050937
C100  C     C_R   0.375113 0.897349 0.742519 -0.066561
C101  C     C_R   0.293970 0.676649 0.974541 -0.056492
C102  C     C_R   0.675429 0.303194 0.110030 -0.123130
C103  C     C_R   0.983765 0.285386 0.676112 -0.094240
C104  C     C_R   0.670590 0.541551 0.070666 0.022204
C105  C     C_R   0.990031 0.718120 0.336456 -0.072225
C106  C     C_R   0.548569 0.970184 0.418212 0.016039
C107  C     C_R   0.478776 0.951571 0.602189 0.014042
C108  C     C_R   0.990866 0.410957 0.544452 0.009863
C109  C     C_R   0.998537 0.587562 0.463436 0.010367
C110  C     C_R   0.410147 0.538139 0.005578 0.012200
C111  C     C_R   0.569650 0.444108 0.060665 0.022568
C112  C     C_R   0.589853 0.994422 0.461861 0.012200
C113  C     C_R   0.430349 0.939335 0.555892 0.022568
C114  C     C_R   0.451431 0.581788 0.029816 0.016039
Cu1   Cu    Cu3+1 0.995180 0.995180 0.424630 1.002328
Cu2   Cu    Cu3+1 0.004820 0.004820 0.575370 0.958073
Cu3   Cu    Cu3+1 0.995180 0.424630 0.995180 0.958073
Cu4   Cu    Cu3+1 0.004820 0.575370 0.004820 1.002329
Cu5   Cu    Cu3+1 0.424630 0.995180 0.995180 0.988769
Cu6   Cu    Cu3+1 0.575370 0.004820 0.004820 0.988769
H1    H     H_    0.269026 0.969591 0.270195 0.168784
H2    H     H_    0.973656 0.219716 0.712051 0.163471
H3    H     H_    0.735749 0.263166 0.131149 0.121883
H4    H     H_    0.232391 0.715203 0.954959 0.163593
H5    H     H_    0.264251 0.868852 0.736834 0.121883
H6    H     H_    0.767609 0.045042 0.284797 0.163592
H7    H     H_    0.649859 0.185450 0.117017 0.158921
H8    H     H_    0.295424 0.785391 0.009955 0.156611
H9    H     H_    0.016453 0.693979 0.211125 0.164581
H10   H     H_    0.026344 0.287949 0.780284 0.163471
H11   H     H_    0.579009 0.848876 0.849913 0.112456
H12   H     H_    0.726014 0.046455 0.725800 0.174297
H13   H     H_    0.581046 0.828988 0.221926 0.112619
H14   H     H_    0.855690 0.839531 0.543107 0.111350
H15   H     H_    0.829237 0.235268 0.565580 0.109878
H16   H     H_    0.805503 0.332838 0.155271 0.117345
H17   H     H_    0.239751 0.560441 0.831844 0.115406
H18   H     H_    0.194498 0.844728 0.667162 0.117346
H19   H     H_    0.760250 0.168156 0.439558 0.115407
H20   H     H_    0.420990 0.150087 0.151124 0.112456
H21   H     H_    0.418954 0.778074 0.171012 0.112620
H22   H     H_    0.144310 0.456892 0.160469 0.111350
H23   H     H_    0.963620 0.270774 0.270835 0.167719
H24   H     H_    0.170763 0.434420 0.764732 0.109878
H25   H     H_    0.036379 0.729165 0.729226 0.167719
H26   H     H_    0.273986 0.274200 0.953545 0.174297
H27   H     H_    0.730974 0.729805 0.030409 0.168784
H28   H     H_    0.350141 0.882983 0.814550 0.158921
H29   H     H_    0.704576 0.990045 0.214609 0.156611
H30   H     H_    0.983546 0.788875 0.306021 0.164581
O1    O     O_R   0.124540 0.978640 0.385460 -0.500134
O2    O     O_R   0.124540 0.385460 0.978640 -0.505807
O3    O     O_R   0.021360 0.875460 0.614540 -0.504977
O4    O     O_R   0.978640 0.124540 0.385460 -0.505741
O5    O     O_R   0.013780 0.867370 0.487190 -0.501694
O6    O     O_R   0.986220 0.132630 0.512810 -0.514098
O7    O     O_R   0.867370 0.487190 0.013780 -0.509832
O8    O     O_R   0.132630 0.512810 0.986220 -0.513508
O9    O     O_R   0.487190 0.013780 0.867370 -0.501209
O10   O     O_R   0.512810 0.986220 0.132630 -0.512339
O11   O     O_R   0.512810 0.132630 0.986220 -0.501209
O12   O     O_R   0.875460 0.021360 0.614540 -0.505807
O13   O     O_R   0.487190 0.867370 0.013780 -0.512339
O14   O     O_R   0.986220 0.512810 0.132630 -0.501694
O15   O     O_R   0.013780 0.487190 0.867370 -0.514098
O16   O     O_R   0.132630 0.986220 0.512810 -0.509831
O17   O     O_R   0.867370 0.013780 0.487190 -0.513509
O18   O     O_2   0.487154 0.796818 0.857934 -0.533711
O19   O     O_2   0.693881 0.845986 0.218574 -0.515157
O20   O     O_2   0.850902 0.847120 0.424389 -0.524053
O21   O     O_2   0.835586 0.233954 0.681218 -0.520127
O22   O     O_2   0.762176 0.433576 0.208164 -0.489883
O23   O     O_R   0.978640 0.385460 0.124540 -0.504977
O24   O     O_2   0.254556 0.674290 0.824470 -0.541497
O25   O     O_2   0.237823 0.791836 0.566424 -0.489883
O26   O     O_2   0.745442 0.175531 0.325710 -0.541495
O27   O     O_2   0.512845 0.142066 0.203182 -0.533711
O28   O     O_2   0.306119 0.781426 0.154014 -0.515157
O29   O     O_2   0.149098 0.575611 0.152880 -0.524053
O30   O     O_2   0.164414 0.318782 0.766046 -0.520127
O31   O     O_R   0.021360 0.614540 0.875460 -0.505741
O32   O     O_R   0.385460 0.124540 0.978640 -0.500075
O33   O     O_R   0.614540 0.875460 0.021360 -0.508836
O34   O     O_R   0.614540 0.021360 0.875460 -0.500075
O35   O     O_R   0.385460 0.978640 0.124540 -0.508836
O36   O     O_R   0.875460 0.614540 0.021360 -0.500134

loop_
_geom_bond_atom_site_label_1
_geom_bond_atom_site_label_2
_ccdc_geom_bond_type
C96   C105  A    
C38   C70   A    
C74   H12   S    
C31   O34   A    
C3    C85   A    
C91   C105  A    
C53   C74   A    
C59   C82   A    
C40   C93   A    
C2    C65   A    
C51   C77   A    
C88   C101  A    
Cu4   O36   S    
C22   C108  A    
C106  C112  A    
C105  H30   S    
C4    C108  A    
Cu4   O14   S    
C32   O35   A    
C31   O9    A    
C84   C97   A    
C57   C76   A    
Cu2   O12   S    
C10   H16   S    
C38   C42   A    
C20   C113  A    
C81   C95   A    
C61   C93   A    
C1    C46   A    
C94   H5    S    
C13   C57   A    
C41   C82   A    
C25   C45   A    
C10   O22   D    
Cu1   Cu2   S    
C23   C43   A    
C29   O36   A    
C64   C104  A    
C87   C100  A    
C32   C54   S    
C69   C71   A    
Cu3   O23   S    
C7    C61   S    
C54   C93   A    
C14   O26   D    
C85   C98   A    
C1    C40   A    
C107  C113  A    
C5    C22   A    
C2    C44   A    
C95   C103  A    
C49   C72   A    
C95   H10   S    
C14   C67   S    
C12   C66   S    
C110  C114  A    
C38   C48   A    
C72   C81   A    
C37   C46   S    
C19   C42   A    
C88   C110  A    
C17   O29   D    
C18   O30   D    
C17   C70   S    
C28   O4    A    
C68   C85   A    
C48   C75   A    
Cu2   O16   S    
C3    C24   A    
C86   C106  A    
C14   H19   S    
C64   C89   A    
C37   O1    A    
C97   H8    S    
C52   C78   A    
C35   C48   S    
C78   H27   S    
C26   O5    A    
Cu6   O33   S    
C8    O20   D    
C58   C75   A    
C20   C106  A    
C19   C58   A    
C18   C72   S    
C23   C109  A    
C6    O18   D    
C101  H4    S    
C13   C62   A    
Cu3   O7    S    
C35   O23   A    
C24   C110  A    
C34   O13   A    
C19   C63   A    
C55   C78   A    
C43   C49   A    
C29   O7    A    
C29   C55   S    
C98   C102  A    
C30   C56   S    
C55   C104  A    
C56   C77   A    
C100  H28   S    
C17   H22   S    
Cu5   O32   S    
C33   O11   A    
Cu5   O35   S    
C86   C99   A    
C45   C104  A    
C50   C76   A    
C54   C73   A    
C99   H29   S    
C27   C41   A    
C30   O2    A    
C8    H14   S    
C94   C100  A    
C28   O6    A    
C62   C91   A    
C89   C102  A    
C1    C66   A    
C79   C92   A    
C67   C79   A    
C34   O33   A    
C27   C67   A    
C31   C53   S    
C39   O12   A    
C70   C83   A    
Cu6   O34   S    
Cu2   O3    S    
C21   C107  A    
C75   H23   S    
Cu6   O11   S    
C12   O25   D    
C21   C41   A    
C79   C112  A    
C98   H7    S    
C16   O28   D    
C76   H25   S    
C73   H1    S    
C15   O27   D    
Cu1   O4    S    
C24   C44   A    
C12   H18   S    
Cu4   O8    S    
C80   C94   A    
C102  H3    S    
C9    H15   S    
C13   C43   A    
C21   C112  A    
C36   C50   S    
C45   C71   A    
C65   C88   A    
C39   C47   S    
C15   H20   S    
Cu4   O31   S    
C27   C47   A    
C30   O8    A    
C11   O24   D    
C84   C114  A    
Cu1   O5    S    
C9    C63   S    
C6    C59   S    
C10   C64   S    
C16   C69   S    
C47   C74   A    
C6    H11   S    
C92   H6    S    
Cu5   Cu6   S    
C5    C83   A    
C7    H13   S    
C37   O16   A    
C51   C60   A    
C28   C58   S    
C33   C51   S    
C66   C80   A    
C89   C111  A    
C34   C52   S    
C35   O14   A    
Cu5   O13   S    
C91   C109  A    
C7    O19   D    
C16   H21   S    
C11   H17   S    
C90   C108  A    
Cu3   O15   S    
C69   C84   A    
C52   C71   A    
C25   C114  A    
C15   C68   S    
C22   C42   A    
C5    C109  A    
C44   C60   A    
C20   C40   A    
C83   C96   A    
C4    C81   A    
C63   C90   A    
C18   H24   S    
C36   O15   A    
Cu3   O2    S    
C39   O17   A    
C26   C57   S    
C59   C87   A    
C90   C103  A    
Cu2   O6    S    
C9    O21   D    
C61   C86   A    
C25   C111  A    
C3    C111  A    
C87   C107  A    
C80   C113  A    
C60   C68   A    
Cu5   O9    S    
C49   C50   A    
Cu1   O1    S    
C33   O32   A    
Cu6   O10   S    
C53   C82   A    
C26   O3    A    
C2    C56   A    
C36   O31   A    
C4    C23   A    
Cu3   Cu4   S    
C103  H2    S    
Cu1   O17   S    
C77   H26   S    
C46   C73   A    
C97   C101  A    
C11   C65   S    
C92   C99   A    
C8    C62   S    
C96   H9    S    
C32   O10   A    
