data_mof_unit_22935.cif
_audit_creation_date              2013-03-05T16:32:34-0500
_audit_creation_method            fapswitch 2.2
_symmetry_space_group_name_H-M    P1
_symmetry_Int_Tables_number       1
_space_group_crystal_system       triclinic
_cell_length_a                    15.874325
_cell_length_b                    10.908924
_cell_length_c                    9.546958
_cell_angle_alpha                 90.210079
_cell_angle_beta                  89.900847
_cell_angle_gamma                 91.141414
_cell_volume                      1652.9225174

loop_
_atom_site_label
_atom_site_type_symbol
_atom_site_description
_atom_site_fract_x
_atom_site_fract_y
_atom_site_fract_z
_atom_type_partial_charge
O1    O     O_R   0.500000 0.319640 0.618810 -0.570392
O2    O     O_R   0.500010 0.319680 0.381230 -0.579481
C1    C     C_R   0.498600 0.262731 0.499711 0.783494
O3    O     O_R   0.379070 0.499970 0.618770 -0.573251
O4    O     O_R   0.379080 0.500010 0.381190 -0.582310
C2    C     C_R   0.339969 0.499257 0.500152 0.819053
Cu1   Cu    Cu3+1 0.500000 0.499980 0.640670 0.978143
Cu2   Cu    Cu3+1 0.500000 0.500020 0.359330 0.960251
O5    O     O_R   0.499990 0.680320 0.618770 -0.581316
O6    O     O_R   0.500000 0.680360 0.381190 -0.590479
O7    O     O_R   0.620920 0.499990 0.618810 -0.586545
O8    O     O_R   0.620930 0.500030 0.381230 -0.581065
C3    C     C_R   0.499537 0.737441 0.500184 0.783779
C4    C     C_R   0.660097 0.499136 0.499783 0.806914
C5    C     C_3   0.970177 0.378576 0.523383 -0.245633
C6    C     C_3   0.028248 0.418502 0.399950 0.035818
H1    H     H_    0.945319 0.284459 0.543718 0.134954
C7    C     C_1   0.250529 0.497455 0.500796 -0.126672
C8    C     C_1   0.749630 0.496099 0.498739 -0.177734
C9    C     C_3   0.025937 0.456495 0.623875 0.050748
C10   C     C_3   0.083548 0.494871 0.501415 0.113325
C11   C     C_3   0.971103 0.570100 0.599560 -0.313112
C12   C     C_3   0.916649 0.493030 0.496771 0.134723
C13   C     C_3   0.029030 0.607462 0.475477 -0.046692
C14   C     C_3   0.973760 0.531617 0.373542 0.006917
C15   C     C_1   0.175143 0.495964 0.501514 0.070476
C16   C     C_1   0.825062 0.493828 0.497470 0.007800
H2    H     H_    0.948133 0.631964 0.683209 0.152343
C17   C     C_R   0.481193 0.062555 0.618723 -0.007293
C18   C     C_R   0.496622 0.130234 0.498034 -0.091235
C19   C     C_R   0.510766 0.064493 0.372848 -0.194550
H3    H     H_    0.522120 0.111819 0.274855 0.175354
C20   C     C_R   0.511083 0.935789 0.373433 -0.189564
H4    H     H_    0.521441 0.888313 0.275680 0.156001
C21   C     C_R   0.498476 0.870253 0.499226 -0.077501
C22   C     C_R   0.483528 0.938572 0.619677 -0.019924
C23   C     C_3   0.464613 0.930783 0.772780 -0.281974
C24   C     C_3   0.462326 0.073490 0.772168 0.022199
H5    H     H_    0.518158 0.898382 0.834884 0.126847
C25   C     C_R   0.567458 0.547597 0.074175 0.222704
N1    N     N_R   0.500530 0.500930 0.147930 -0.197450
C26   C     C_R   0.434483 0.450777 0.074256 -0.012663
H6    H     H_    0.381089 0.411190 0.129509 0.132037
C27   C     C_R   0.433551 0.453680 0.925904 0.066819
H7    H     H_    0.378629 0.419205 0.871087 0.127908
N2    N     N_R   0.500530 0.500890 0.852020 -0.183174
C28   C     C_R   0.569929 0.541083 0.926089 0.220189
C29   C     C_3   0.606849 0.667793 0.914986 -0.191534
C30   C     C_3   0.595461 0.679948 0.073915 -0.221562
H8    H     H_    0.562365 0.723071 0.856015 0.196148
H9    H     H_    0.541608 0.739899 0.099343 0.178912
C31   C     C_3   0.063772 0.332561 0.288431 -0.415561
C32   C     C_3   0.993722 0.260431 0.212240 -0.324822
C33   C     C_3   0.030233 0.175145 0.101670 -0.848675
H10   H     H_    0.066524 0.228799 0.022548 0.273244
H11   H     H_    0.072294 0.107760 0.151331 0.262281
H12   H     H_    0.978248 0.124431 0.047751 0.241599
H13   H     H_    0.956779 0.204642 0.288749 0.219423
H14   H     H_    0.950410 0.324615 0.160124 0.237194
H15   H     H_    0.100975 0.388019 0.211948 0.204129
H16   H     H_    0.106721 0.267594 0.340293 0.205412
C34   C     C_3   0.375662 0.133043 0.799824 -0.330257
C35   C     C_3   0.346991 0.125328 0.953886 -0.357257
C36   C     C_3   0.259107 0.177293 0.972735 -0.837501
H17   H     H_    0.258508 0.274874 0.940167 0.275525
H18   H     H_    0.212439 0.123947 0.909479 0.268453
H19   H     H_    0.240418 0.171770 0.084723 0.244798
H20   H     H_    0.345836 0.028897 0.990233 0.242380
H21   H     H_    0.391005 0.177921 0.022474 0.248209
H22   H     H_    0.379355 0.230476 0.768083 0.215465
H23   H     H_    0.326732 0.089442 0.731826 0.175669
C37   C     C_2   0.537465 0.131172 0.847528 0.398138
H24   H     H_    0.599195 0.091165 0.835544 0.040367
O9    O     O_2   0.531025 0.222745 0.919969 -0.573091
C38   C     C_3   0.697244 0.673493 0.852658 -0.335137
C39   C     C_3   0.708435 0.788083 0.760639 -0.369179
C40   C     C_3   0.798159 0.802235 0.705102 -0.874515
H25   H     H_    0.843898 0.806330 0.792994 0.257462
H26   H     H_    0.812976 0.724350 0.635099 0.258741
H27   H     H_    0.804231 0.888306 0.643863 0.244780
H28   H     H_    0.664627 0.781753 0.670056 0.221164
H29   H     H_    0.692749 0.871415 0.821892 0.208547
H30   H     H_    0.746965 0.672634 0.933243 0.216628
H31   H     H_    0.709556 0.591317 0.788526 0.221341
C41   C     C_3   0.671410 0.708115 0.170152 -0.318026
C42   C     C_3   0.705658 0.840244 0.154699 -0.367256
C43   C     C_3   0.763943 0.875188 0.276219 -0.834708
H32   H     H_    0.728820 0.871919 0.376991 0.248511
H33   H     H_    0.817609 0.811552 0.281334 0.279295
H34   H     H_    0.789201 0.969854 0.260911 0.240086
H35   H     H_    0.741672 0.850894 0.055986 0.235013
H36   H     H_    0.652853 0.905485 0.152292 0.212997
H37   H     H_    0.648918 0.698805 0.279328 0.230066
H38   H     H_    0.721935 0.640543 0.155886 0.244834
C44   C     C_2   0.947974 0.574426 0.231316 0.284965
H39   H     H_    0.995758 0.603977 0.156758 0.087558
O10   O     O_2   0.873885 0.575266 0.198222 -0.581429
C45   C     C_2   0.058497 0.736759 0.449655 0.344672
H40   H     H_    0.012555 0.807544 0.433228 0.066272
O11   O     O_2   0.133520 0.763139 0.446850 -0.538764
C46   C     C_2   0.052345 0.414513 0.766055 0.338042
H41   H     H_    0.004754 0.390976 0.843599 0.068571
O12   O     O_2   0.126783 0.406730 0.795557 -0.562054
C47   C     C_2   0.383649 0.860409 0.799630 0.431707
H42   H     H_    0.328499 0.874856 0.735190 0.089922
O13   O     O_2   0.379961 0.784573 0.893211 -0.555978

loop_
_geom_bond_atom_site_label_1
_geom_bond_atom_site_label_2
_geom_bond_distance
_ccdc_geom_bond_type
C25   C28   1.415805 A    
C43   H32   1.111447 S    
C6    C10   1.539776 S    
N1    C26   1.367545 A    
C44   H39   1.084451 S    
C7    C15   1.196493 T    
C10   C15   1.453819 S    
C47   O13   1.220381 D    
C32   H14   1.110607 S    
Cu1   Cu2   2.685942 S    
C40   H25   1.110776 S    
C27   H7    1.078203 S    
Cu1   O7    1.930472 S    
C17   C22   1.353841 A    
C23   C24   1.557957 S    
C13   C45   1.498309 S    
C22   C23   1.494059 S    
C3    C21   1.449334 S    
C42   H35   1.106688 S    
C41   C42   1.537849 S    
C18   C19   1.411494 A    
O7    C4    1.294541 A    
C38   H31   1.104191 S    
C5    C6    1.553109 S    
C34   H22   1.106709 S    
C5    H1    1.110229 S    
O5    C3    1.294394 A    
C31   H15   1.111512 S    
N2    C28   1.373731 A    
C41   H37   1.105544 S    
C19   H3    1.083285 S    
C30   H9    1.112585 S    
C17   C24   1.499529 S    
C19   C20   1.404162 A    
C12   C16   1.454082 S    
C17   C18   1.389500 A    
C8    C16   1.198212 T    
C29   H8    1.095484 S    
Cu2   N1    2.018291 S    
C46   O12   1.219908 D    
C11   H2    1.109502 S    
C29   C38   1.552680 S    
C26   C27   1.416884 A    
O3    Cu1   1.931392 S    
C47   H42   1.085278 S    
C46   H41   1.084632 S    
C27   N2    1.368032 A    
C33   H11   1.110939 S    
C40   H26   1.107749 S    
C5    C9    1.547070 S    
C2    C7    1.419558 S    
C24   C37   1.518569 S    
Cu1   N2    2.017770 S    
C30   C41   1.542444 S    
C13   C14   1.539337 S    
C37   O9    1.218792 D    
C39   H29   1.111290 S    
C42   C43   1.527655 S    
C9    C46   1.497388 S    
C32   C33   1.525775 S    
O1    C1    1.293488 A    
C21   C22   1.390660 A    
C36   H18   1.110838 S    
C1    C18   1.445146 S    
C38   C39   1.537735 S    
C36   H19   1.110583 S    
C34   C35   1.540983 S    
C23   C47   1.505976 S    
C41   H38   1.107987 S    
C28   C29   1.494649 S    
Cu2   O8    1.931390 S    
C20   H4    1.079597 S    
C39   C40   1.524078 S    
O3    C2    1.292252 A    
C25   N1    1.364637 A    
O8    C4    1.292457 A    
C14   C44   1.497846 S    
C45   O11   1.219898 D    
C43   H33   1.110860 S    
C11   C13   1.549146 S    
C43   H34   1.110412 S    
C26   H6    1.081075 S    
C31   C32   1.532495 S    
C40   H27   1.110385 S    
C6    C14   1.542715 S    
Cu1   O5    1.979161 S    
C33   H10   1.110574 S    
C29   C30   1.533283 S    
O1    Cu1   1.977593 S    
C4    C8    1.422348 S    
O2    Cu2   1.979158 S    
C6    C31   1.530396 S    
C9    C11   1.547012 S    
C37   H24   1.086322 S    
O6    C3    1.293570 A    
C39   H28   1.111745 S    
O4    Cu2   1.930475 S    
C32   H13   1.111484 S    
C44   O10   1.218546 D    
C35   H20   1.108717 S    
C31   H16   1.111420 S    
C36   H17   1.110304 S    
O2    C1    1.292451 A    
C35   H21   1.108592 S    
C23   H5    1.101908 S    
C42   H36   1.110715 S    
C38   H30   1.103359 S    
O4    C2    1.293382 A    
C5    C12   1.546237 S    
C20   C21   1.411807 A    
C34   H23   1.111620 S    
C12   C14   1.538800 S    
C35   C36   1.526411 S    
C9    C10   1.537235 S    
Cu2   O6    1.977593 S    
C45   H40   1.084653 S    
C10   C13   1.537603 S    
C11   C12   1.544353 S    
C25   C30   1.502209 S    
C24   C34   1.554835 S    
C33   H12   1.110509 S    
