data_mof_unit_53041.cif
_audit_creation_date              2012-12-10T20:31:52-0500
_audit_creation_method            fapswitch 2.2
_symmetry_space_group_name_H-M    P1
_symmetry_Int_Tables_number       1
_space_group_crystal_system       triclinic
_cell_length_a                    9.865653
_cell_length_b                    10.69642
_cell_length_c                    15.534559
_cell_angle_alpha                 90.286641
_cell_angle_beta                  67.556743
_cell_angle_gamma                 89.48285
_cell_volume                      1515.02788648

loop_
_atom_site_label
_atom_site_type_symbol
_atom_type_description
_atom_site_fract_x
_atom_site_fract_y
_atom_site_fract_z
_atom_type_partial_charge
C1    C     C_R   0.501188 0.740134 0.497476 0.923815
C2    C     C_R   0.422493 0.533815 0.908636 0.056492
C3    C     C_R   0.293965 0.607631 0.955658 0.094208
C4    C     C_R   0.533210 0.524625 0.946459 -0.065137
C5    C     C_R   0.497466 0.561386 0.040261 0.005648
C6    C     C_R   0.365406 0.628302 0.087463 -0.185590
C7    C     C_R   0.267948 0.653834 0.044968 -0.211112
C8    C     C_R   0.681197 0.489451 0.892668 0.590487
C9    C     C_R   0.783412 0.475393 0.933645 -0.298273
C10   C     C_R   0.741525 0.491838 0.029104 0.080825
C11   C     C_R   0.597191 0.533162 0.083293 0.088491
C12   C     C_R   0.408136 0.499136 0.675922 0.912938
C13   C     C_R   0.841433 0.466149 0.071478 -0.148277
C14   C     C_R   0.795920 0.473330 0.168109 -0.194281
C15   C     C_R   0.553513 0.537387 0.179880 -0.231871
C16   C     C_R   0.386327 0.937773 0.485107 0.000353
C17   C     C_R   0.509359 0.871575 0.483319 -0.046241
C18   C     C_R   0.642372 0.933859 0.464029 -0.217396
C19   C     C_R   0.643263 0.063278 0.463394 -0.205507
C20   C     C_R   0.511251 0.128657 0.481720 -0.047843
C21   C     C_R   0.387565 0.065395 0.483594 0.007036
C22   C     C_3   0.232435 0.076947 0.551474 -0.474613
C23   C     C_R   0.502502 0.260029 0.496680 0.879242
C24   C     C_3   0.231719 0.935652 0.554364 0.469853
C25   C     C_R   0.909806 0.603266 0.529444 0.181307
C26   C     C_R   0.952102 0.403609 0.461640 -0.112053
C27   C     C_R   0.096353 0.403972 0.461116 -0.113840
C28   C     C_R   0.050571 0.601441 0.532444 0.176301
C29   C     C_3   0.991035 0.651880 0.629927 -0.448862
C30   C     C_3   0.842217 0.662766 0.622889 -0.439958
C31   C     C_R   0.591841 0.500905 0.323966 0.852652
C32   C     C_R   0.350066 0.514837 0.776844 -0.168613
C33   C     C_R   0.650049 0.505175 0.222473 -0.058563
C34   C     C_R   0.195243 0.634253 0.911536 -0.014791
C35   C     C_R   0.228523 0.592917 0.820481 -0.223800
C36   C     C_R   0.433686 0.471889 0.825943 -0.032094
H1    H     H_    0.171153 0.709502 0.083263 0.153455
H2    H     H_    0.953153 0.437095 0.030172 0.139766
H3    H     H_    0.742623 0.883789 0.455710 0.161146
H4    H     H_    0.743783 0.111144 0.454989 0.157743
H5    H     H_    0.222521 0.122209 0.618292 0.235448
H6    H     H_    0.158874 0.116263 0.518950 0.150394
H7    H     H_    0.154747 0.892287 0.526527 0.047503
H8    H     H_    0.916383 0.324732 0.432208 0.133230
H9    H     H_    0.169472 0.325667 0.430832 0.144324
H10   H     H_    0.994653 0.581401 0.681427 0.246127
H11   H     H_    0.441101 0.558376 0.223766 0.153360
H12   H     H_    0.035806 0.743724 0.637050 0.241380
H13   H     H_    0.808041 0.761038 0.618305 0.188740
H14   H     H_    0.755736 0.605046 0.672711 0.292661
H15   H     H_    0.872566 0.449388 0.200265 0.152636
H16   H     H_    0.895290 0.448775 0.890505 0.175616
H17   H     H_    0.162089 0.624325 0.782762 0.187972
H18   H     H_    0.338804 0.669307 0.155658 0.139632
N1    N     N_R   0.856900 0.500860 0.500610 -0.094248
N2    N     N_R   0.142540 0.500820 0.500610 -0.100488
O1    O     O_R   0.385310 0.683210 0.499990 -0.608916
O2    O     O_R   0.614650 0.683240 0.500000 -0.633336
O3    O     O_R   0.319830 0.499970 0.632240 -0.606497
O4    O     O_R   0.549170 0.500000 0.632250 -0.591038
O5    O     O_R   0.385350 0.316760 0.500000 -0.619032
O6    O     O_R   0.614690 0.316790 0.500010 -0.625031
O7    O     O_R   0.450830 0.500000 0.367750 -0.623653
O8    O     O_R   0.680170 0.500030 0.367760 -0.621525
Zn1   Zn    Zn3+2 0.346870 0.499980 0.499990 0.956490
Zn2   Zn    Zn3+2 0.653130 0.500020 0.500010 0.959620
F1    F     F_    0.222831 0.891347 0.640026 -0.661548
C37   C     C_1   0.065104 0.710999 0.954959 0.170475
N3    N     N_1   0.960835 0.772298 0.989641 -0.183013
C38   C     C_1   0.509496 0.352408 0.798564 0.273619
N4    N     N_1   0.569333 0.256916 0.776614 -0.167536
F2    F     F_    0.733538 0.478903 0.798930 -0.706408

loop_
_geom_bond_atom_site_label_1
_geom_bond_atom_site_label_2
_ccdc_geom_bond_type
C2    C4    A    
C18   H3    S    
C31   C33   S    
C16   C21   A    
C29   C30   S    
C1    O1    A    
C35   H17   S    
C9    C10   A    
C1    C17   S    
C19   C20   A    
C3    C34   A    
C20   C23   S    
C15   H11   S    
C29   H10   S    
C4    C8    A    
O1    Zn1   S    
C26   N1    A    
C27   H9    S    
C14   C33   A    
O7    Zn1   S    
C17   C18   A    
C28   N2    A    
C26   H8    S    
C16   C24   S    
C21   C22   S    
O3    Zn1   S    
C25   C28   A    
C12   O3    A    
O2    Zn2   S    
C26   C27   A    
C22   H6    S    
C9    H16   S    
C1    O2    A    
C6    H18   S    
C32   C36   A    
C28   C29   S    
C30   H13   S    
C13   H2    S    
C5    C11   A    
C6    C7    A    
C3    C7    A    
C2    C36   A    
O5    Zn1   S    
C7    H1    S    
C5    C6    A    
C30   H14   S    
C22   C24   S    
C8    F2    S    
C22   H5    S    
C16   C17   A    
C19   H4    S    
O6    Zn2   S    
C29   H12   S    
O4    Zn2   S    
N2    Zn1   S    
C12   O4    A    
C32   C35   A    
C31   O7    A    
C23   O5    A    
C38   N4    T    
C18   C19   A    
C20   C21   A    
C14   H15   S    
C34   C35   A    
C10   C11   A    
C34   C37   S    
C25   C30   S    
C24   H7    S    
C27   N2    A    
C8    C9    A    
C2    C3    A    
C24   F1    S    
C13   C14   A    
N1    Zn2   S    
C11   C15   A    
C31   O8    A    
C37   N3    T    
C23   O6    A    
C12   C32   S    
C25   N1    A    
C36   C38   S    
C4    C5    A    
C15   C33   A    
C10   C13   A    
O8    Zn2   S    
