data_mof_unit_19348.cif
_audit_creation_date              2012-12-11T15:15:45-0500
_audit_creation_method            fapswitch 2.2
_symmetry_space_group_name_H-M    P1
_symmetry_Int_Tables_number       1
_space_group_crystal_system       triclinic
_cell_length_a                    18.962441
_cell_length_b                    18.846439
_cell_length_c                    20.361259
_cell_angle_alpha                 107.086145
_cell_angle_beta                  106.605878
_cell_angle_gamma                 111.243617
_cell_volume                      5820.67525757

loop_
_atom_site_label
_atom_site_type_symbol
_atom_type_description
_atom_site_fract_x
_atom_site_fract_y
_atom_site_fract_z
_atom_type_partial_charge
C1    C     C_R   0.034360 0.087797 0.345723 -0.134478
C2    C     C_R   0.235069 0.075438 0.490987 -0.242076
C3    C     C_R   0.162878 0.184681 0.718841 -0.158045
C4    C     C_R   0.752185 0.930886 0.465985 0.338634
C5    C     C_R   0.054036 0.808482 0.483579 -0.150761
C6    C     C_R   0.244714 0.210238 0.725744 0.091144
C7    C     C_R   0.038754 0.784648 0.538701 0.072951
C8    C     C_R   0.237433 0.008663 0.441877 0.049930
C9    C     C_R   0.934609 0.979289 0.712780 0.002650
C10   C     C_R   0.137914 0.727388 0.557752 -0.255601
C11   C     C_R   0.079562 0.745916 0.577834 0.114519
C12   C     C_R   0.745644 0.005207 0.478706 0.026861
C13   C     C_R   0.051158 0.715416 0.625773 -0.257537
C14   C     C_R   0.067661 0.653964 0.640840 0.140295
C15   C     C_R   0.114153 0.624612 0.608562 0.027203
C16   C     C_R   0.847690 0.776911 0.290453 -0.134937
C17   C     C_R   0.152828 0.664462 0.570121 0.140971
C18   C     C_R   0.030539 0.614579 0.679920 -0.203698
C19   C     C_R   0.032612 0.541410 0.680486 -0.202615
C20   C     C_R   0.070498 0.506302 0.640809 0.137763
C21   C     C_R   0.114112 0.549857 0.607230 0.031935
C22   C     C_R   0.149634 0.513926 0.564854 0.136549
C23   C     C_R   0.772097 0.725766 0.287971 0.033119
C24   C     C_R   0.194461 0.557981 0.532738 -0.204622
C25   C     C_R   0.197109 0.633783 0.536362 -0.202740
C26   C     C_R   0.059417 0.425231 0.628528 -0.253517
C27   C     C_R   0.086269 0.384931 0.578742 0.130459
C28   C     C_R   0.003235 0.237866 0.569487 -0.207798
C29   C     C_R   0.132878 0.431145 0.548765 -0.264858
C30   C     C_R   0.379088 0.097989 0.455967 -0.235719
C31   C     C_R   0.303875 0.019712 0.415160 0.127257
C32   C     C_R   0.299650 0.952121 0.358182 -0.269033
C33   C     C_R   0.372914 0.956849 0.353291 0.149077
C34   C     C_R   0.057638 0.292750 0.551428 0.043600
C35   C     C_R   0.450441 0.031252 0.404106 0.033901
C36   C     C_R   0.452559 0.103707 0.451962 0.080833
C37   C     C_R   0.371073 0.885403 0.304294 -0.209458
C38   C     C_R   0.446177 0.884682 0.311734 -0.201490
C39   C     C_R   0.523312 0.955016 0.368748 0.159669
C40   C     C_R   0.771208 0.769991 0.354708 -0.123320
C41   C     C_R   0.525843 0.030269 0.412817 -0.018531
C42   C     C_R   0.603006 0.101572 0.470708 0.076627
C43   C     C_R   0.605215 0.177949 0.512197 0.299828
C44   C     C_R   0.529240 0.178089 0.501761 -0.244997
C45   C     C_R   0.239039 0.190528 0.652814 -0.057785
C46   C     C_R   0.596896 0.949056 0.386559 -0.256890
C47   C     C_R   0.670937 0.014929 0.450838 0.121813
C48   C     C_R   0.674561 0.092218 0.489662 -0.242103
C49   C     C_R   0.321955 0.242765 0.795031 -0.008399
C50   C     C_R   0.316498 0.215320 0.851381 -0.261019
C51   C     C_R   0.388512 0.245914 0.917825 -0.152330
C52   C     C_R   0.084855 0.244878 0.509360 0.306166
C53   C     C_R   0.467028 0.305462 0.929351 0.187275
C54   C     C_R   0.473237 0.330332 0.872001 -0.367876
C55   C     C_R   0.401584 0.298777 0.804116 0.548466
C56   C     C_R   0.974570 0.800080 0.546291 -0.122985
C57   C     C_R   0.686217 0.497514 0.149316 -0.158194
C58   C     C_R   0.742459 0.583123 0.199493 -0.183587
C59   C     C_R   0.631030 0.598103 0.226903 -0.178600
C60   C     C_R   0.574766 0.512832 0.176431 -0.175305
C61   C     C_R   0.600903 0.462694 0.134883 0.223560
C62   C     C_2   0.541867 0.352739 0.003967 -0.177517
C63   C     C_2   0.535050 0.379969 0.069476 -0.226934
C64   C     C_R   0.825768 0.072876 0.526079 -0.193893
C65   C     C_R   0.714628 0.634612 0.237021 0.140276
C66   C     C_R   0.933989 0.022900 0.202944 0.104171
C67   C     C_R   0.164624 0.935590 0.423066 0.329074
C68   C     C_R   0.893863 0.951183 0.132303 -0.181456
C69   C     C_R   0.852545 0.953260 0.065203 -0.222296
C70   C     C_R   0.851189 0.027835 0.066497 0.065188
C71   C     C_R   0.889731 0.099810 0.137488 0.545017
C72   C     C_R   0.929115 0.096139 0.205408 -0.360833
C73   C     C_R   0.910294 0.035310 0.894449 -0.165488
C74   C     C_R   0.945677 0.033388 0.843460 -0.178067
C75   C     C_R   0.811684 0.917274 0.740586 -0.179988
C76   C     C_R   0.966940 0.946418 0.281708 -0.120749
C77   C     C_R   0.776197 0.918381 0.792165 -0.180144
C78   C     C_R   0.980958 0.052903 0.708862 0.311811
C79   C     C_R   0.824905 0.978214 0.869312 0.220512
C80   C     C_2   0.827519 0.037531 0.994948 -0.135076
C81   C     C_2   0.791213 0.971639 0.925574 -0.259413
C82   C     C_R   0.896680 0.975283 0.766145 0.155483
C83   C     C_R   0.979272 0.019858 0.273394 0.067072
C84   C     C_3   0.121040 0.851379 0.354174 -1.112741
C85   C     C_3   0.987520 0.137456 0.748992 -1.062290
C86   C     C_3   0.682323 0.845509 0.444099 -1.090887
C87   C     C_3   0.686642 0.258130 0.570080 -1.034787
C88   C     C_3   0.461593 0.315951 0.722457 0.246862
C89   C     C_R   0.913269 0.912336 0.645838 -0.221984
C90   C     C_3   0.452345 0.335891 0.654235 -0.899638
C91   C     C_3   0.967830 0.238397 0.164000 0.244277
C92   C     C_3   0.961178 0.311598 0.150939 -0.874349
C93   C     C_3   0.168934 0.278052 0.507289 -1.069485
H1    H     H_    0.054998 0.154077 0.360750 0.114557
H2    H     H_    0.999716 0.509218 0.707402 0.131814
H3    H     H_    0.024207 0.391906 0.653248 0.119617
H4    H     H_    0.150698 0.402045 0.507419 0.147096
H5    H     H_    0.223559 0.531557 0.501340 0.130419
H6    H     H_    0.227882 0.664504 0.507434 0.130764
H7    H     H_    0.384352 0.152692 0.498118 0.123135
H8    H     H_    0.242278 0.893350 0.321055 0.147932
H9    H     H_    0.311753 0.828302 0.263819 0.130670
H10   H     H_    0.443620 0.827179 0.276644 0.130050
H11   H     H_    0.595091 0.891660 0.352716 0.141481
H12   H     H_    0.947197 0.790044 0.584598 0.098460
H13   H     H_    0.875590 0.756940 0.254260 0.090589
H14   H     H_    0.731873 0.143601 0.538338 0.139568
H15   H     H_    0.529856 0.234498 0.536540 0.136395
H16   H     H_    0.256325 0.170315 0.844179 0.142827
H17   H     H_    0.807371 0.608826 0.208443 0.115640
H18   H     H_    0.608225 0.636297 0.255787 0.116236
H19   H     H_    0.473275 0.353613 0.068582 0.131990
H20   H     H_    0.533229 0.379137 0.882538 0.132178
H21   H     H_    0.709157 0.459645 0.120358 0.115280
H22   H     H_    0.980822 0.255636 0.611434 0.109522
H23   H     H_    0.865286 0.847141 0.623574 0.114036
H24   H     H_    0.602124 0.383375 0.003154 0.128116
H25   H     H_    0.382381 0.224761 0.960900 0.124552
H26   H     H_    0.509438 0.487420 0.166445 0.113564
H27   H     H_    0.896594 0.893743 0.127943 0.121623
H28   H     H_    0.011981 0.076761 0.864766 0.122214
H29   H     H_    0.772636 0.871946 0.680899 0.121258
H30   H     H_    0.749785 0.908034 0.915565 0.142453
H31   H     H_    0.951270 0.079258 0.954210 0.110647
H32   H     H_    0.956258 0.150843 0.259673 0.136623
H33   H     H_    0.731930 0.740558 0.378466 0.111842
H34   H     H_    0.271744 0.141955 0.506581 0.112912
H35   H     H_    0.859970 0.101339 0.000531 0.151639
H36   H     H_    0.826813 0.897522 0.012210 0.141478
H37   H     H_    0.711057 0.872237 0.772100 0.121253
H38   H     H_    0.845778 0.139758 0.547599 0.120234
H39   H     H_    0.925291 0.881759 0.238229 0.097038
H40   H     H_    0.288822 0.196353 0.635765 0.122553
H41   H     H_    0.112265 0.860721 0.301677 0.256461
H42   H     H_    0.157034 0.816790 0.360982 0.252008
H43   H     H_    0.056853 0.811405 0.346411 0.259421
H44   H     H_    0.926512 0.128438 0.749514 0.265167
H45   H     H_    0.144768 0.188544 0.764763 0.126929
H46   H     H_    0.037531 0.171730 0.808671 0.240815
H47   H     H_    0.002840 0.176990 0.718776 0.255707
H48   H     H_    0.635680 0.852962 0.464198 0.262853
H49   H     H_    0.650017 0.807125 0.381096 0.247627
H50   H     H_    0.707652 0.812209 0.472483 0.251426
H51   H     H_    0.675938 0.312565 0.592893 0.252746
H52   H     H_    0.717927 0.248376 0.619158 0.247917
H53   H     H_    0.729111 0.275548 0.542880 0.255623
H54   H     H_    0.446267 0.248080 0.702832 0.076991
H55   H     H_    0.528388 0.357602 0.765963 0.102668
H56   H     H_    0.101648 0.807909 0.465070 0.123226
H57   H     H_    0.468899 0.403679 0.672268 0.265846
H58   H     H_    0.495183 0.323855 0.630726 0.203096
H59   H     H_    0.386564 0.295262 0.608674 0.243081
H60   H     H_    0.999861 0.216590 0.130859 0.069217
H61   H     H_    0.006978 0.262572 0.226103 0.098484
H62   H     H_    0.930736 0.335960 0.184138 0.261469
H63   H     H_    0.025071 0.363924 0.169832 0.204029
H64   H     H_    0.923103 0.289727 0.089163 0.251304
H65   H     H_    0.163888 0.290131 0.456463 0.234238
H66   H     H_    0.217395 0.336542 0.560715 0.269623
H67   H     H_    0.164584 0.754159 0.524815 0.119081
H68   H     H_    0.191023 0.230559 0.503055 0.258209
H69   H     H_    0.009692 0.732679 0.645287 0.119233
H70   H     H_    0.995709 0.637291 0.706038 0.131067
N1    N     N_R   0.052580 0.056040 0.395500 -0.037969
N2    N     N_R   0.890210 0.849400 0.355780 -0.038968
N3    N     N_R   0.997110 0.161140 0.539580 -0.048955
N4    N     N_R   0.841950 0.845400 0.395490 -0.037021
N5    N     N_R   0.045360 0.165140 0.499870 -0.053041
N6    N     N_R   0.877490 0.041510 0.539580 -0.049339
N7    N     N_R   0.009820 0.969030 0.355780 -0.036338
N8    N     N_R   0.158050 0.154600 0.604510 -0.047855
N9    N     N_R   0.954640 0.834860 0.500130 -0.039294
N10   N     N_R   0.122510 0.958490 0.460420 -0.054722
N11   N     N_R   0.990180 0.030970 0.644220 -0.052351
N12   N     N_R   0.947420 0.943960 0.604500 -0.050574
N13   N     N_R   0.165270 0.045500 0.500140 -0.056180
N14   N     N_R   0.109790 0.150600 0.644220 -0.039939
N15   N     N_R   0.002890 0.838860 0.460420 -0.041333
N16   N     N_R   0.834730 0.954500 0.499860 -0.056304
Ni1   Ni    Ni4+2 0.104370 0.104380 0.500010 0.207185
Ni2   Ni    Ni4+2 0.895630 0.895620 0.499990 0.207365
Ni3   Ni    Ni4+2 0.006300 0.904810 0.408930 0.206951
Ni4   Ni    Ni4+2 0.993700 0.095190 0.591070 0.209044
O1    O     O_3   0.406803 0.331691 0.751906 -0.632280
O2    O     O_3   0.886089 0.172577 0.139942 -0.627774

loop_
_geom_bond_atom_site_label_1
_geom_bond_atom_site_label_2
_ccdc_geom_bond_type
C66   C68   A    
C84   H42   S    
C87   H53   S    
C85   H44   S    
C27   C29   A    
C75   H29   S    
C11   C13   A    
C41   C42   A    
C14   C18   A    
N1    N7    A    
C35   C36   A    
C90   H57   S    
C3    C6    A    
C13   H69   S    
C39   C41   A    
N4    Ni2   S    
C53   C54   A    
C7    C11   S    
C84   H41   S    
C26   C27   A    
C38   H10   S    
C22   C29   A    
C67   C84   S    
C81   H30   S    
C24   H5    S    
N2    Ni3   S    
C6    C45   A    
C74   C82   A    
C91   H60   S    
C38   C39   A    
C12   C64   A    
C88   O1    S    
C48   H14   S    
C4    C86   S    
C10   C17   A    
C23   C40   A    
C54   H20   S    
C30   H7    S    
C63   H19   S    
C51   H25   S    
C5    H56   S    
C60   H26   S    
C61   C63   S    
C18   C19   A    
C73   C74   A    
C64   N6    A    
C93   H66   S    
N11   N12   A    
N6    Ni4   S    
C40   N4    A    
C2    N13   A    
C66   C83   S    
C46   C47   A    
N9    Ni2   S    
C25   H6    S    
C66   C72   A    
C47   C48   A    
C1    N1    A    
C68   C69   A    
C62   H24   S    
C30   C36   A    
C59   H18   S    
C55   O1    S    
C70   C71   A    
C87   H51   S    
C4    C12   A    
C85   H46   S    
N1    Ni1   S    
C28   N3    A    
C9    C82   S    
N12   Ni2   S    
C2    H34   S    
C44   H15   S    
C91   O2    S    
C89   H23   S    
C28   C34   A    
C59   C60   A    
N2    N4    A    
C13   C14   A    
N7    Ni3   S    
N3    N5    A    
C93   H65   S    
C7    C56   A    
C71   O2    S    
C12   C47   S    
C45   N8    A    
C76   C83   A    
C86   H50   S    
C77   C79   A    
C27   C34   S    
C26   H3    S    
C5    N15   A    
C70   C80   S    
C24   C25   A    
C91   H61   S    
C90   H59   S    
C9    C89   A    
C91   C92   S    
C5    C7    A    
C1    H1    S    
C77   H37   S    
C80   H35   S    
C49   C55   A    
C46   H11   S    
C92   H64   S    
C50   H16   S    
C33   C37   A    
C90   H58   S    
C60   C61   A    
C51   C53   A    
C43   C44   A    
C37   C38   A    
C28   H22   S    
C18   H70   S    
C58   C65   A    
C31   C32   A    
C14   C15   A    
C64   H38   S    
C93   H68   S    
C16   N2    A    
C73   H31   S    
C40   H33   S    
C62   C63   D    
C50   C51   A    
C88   H55   S    
C52   C93   S    
C92   H63   S    
C3    H45   S    
C42   C48   A    
C76   N7    A    
C75   C77   A    
C85   H47   S    
N15   Ni3   S    
C8    C67   A    
C39   C46   A    
C78   C85   S    
C88   C90   S    
N10   Ni3   S    
C16   C23   A    
C22   C24   A    
N8    Ni1   S    
C36   C44   A    
C42   C43   A    
C89   N12   A    
C4    N16   A    
C10   H67   S    
C19   H2    S    
C86   H49   S    
C79   C81   S    
N10   N13   A    
N9    N15   A    
C15   C17   A    
C54   C55   A    
C84   H43   S    
C87   H52   S    
C58   H17   S    
C8    C31   S    
C45   H40   S    
C2    C8    A    
N3    Ni4   S    
C80   C81   D    
C73   C79   A    
N11   Ni4   S    
C75   C82   A    
C57   C61   A    
C57   H21   S    
C16   H13   S    
C1    C83   A    
C34   C52   A    
C29   H4    S    
C72   H32   S    
C17   C25   A    
C32   C33   A    
C23   C65   S    
C19   C20   A    
C3    N14   A    
C43   C87   S    
C71   C72   A    
N5    Ni1   S    
C59   C65   A    
C76   H39   S    
C30   C31   A    
C57   C58   A    
C37   H9    S    
C15   C21   A    
C20   C26   A    
C67   N10   A    
C56   N9    A    
C33   C35   A    
C88   H54   S    
C92   H62   S    
C9    C78   A    
C6    C49   S    
C69   C70   A    
C35   C41   A    
C56   H12   S    
C53   C62   S    
C10   C11   A    
N13   Ni1   S    
C74   H28   S    
C20   C21   A    
C68   H27   S    
C69   H36   S    
C49   C50   A    
C78   N11   A    
C32   H8    S    
N8    N14   A    
N14   Ni4   S    
C21   C22   A    
N6    N16   A    
C52   N5    A    
C86   H48   S    
N16   Ni2   S    
