data_mof_unit_52640.cif
_audit_creation_date              2012-12-11T16:11:13-0500
_audit_creation_method            fapswitch 2.2
_symmetry_space_group_name_H-M    P1
_symmetry_Int_Tables_number       1
_space_group_crystal_system       triclinic
_cell_length_a                    12.799831
_cell_length_b                    13.30698
_cell_length_c                    26.943366
_cell_angle_alpha                 97.2986
_cell_angle_beta                  90.322703
_cell_angle_gamma                 118.527726
_cell_volume                      3987.73300394

loop_
_atom_site_label
_atom_site_type_symbol
_atom_type_description
_atom_site_fract_x
_atom_site_fract_y
_atom_site_fract_z
_atom_type_partial_charge
C1    C     C_R   0.627860 0.894945 0.424320 0.535453
C2    C     C_1   0.140255 0.823618 0.179466 -0.052618
C3    C     C_1   0.160228 0.836304 0.231806 -0.013663
C4    C     C_R   0.570250 0.168505 0.434154 0.560998
C5    C     C_1   0.174221 0.842987 0.276487 -0.012681
C6    C     C_1   0.193769 0.849979 0.328521 -0.054788
C7    C     C_1   0.219972 0.858999 0.372378 -0.018449
C8    C     C_1   0.689263 0.799338 0.136119 -0.012049
C9    C     C_1   0.672632 0.809283 0.179926 -0.048660
C10   C     C_1   0.661270 0.818494 0.231998 -0.010541
C11   C     C_1   0.655363 0.827350 0.276736 -0.013048
C12   C     C_R   0.533537 0.240730 0.207898 -0.017576
C13   C     C_1   0.649752 0.842218 0.329117 -0.056180
C14   C     C_1   0.642782 0.861780 0.373429 -0.015820
C15   C     C_1   0.694837 0.388399 0.874249 -0.012257
C16   C     C_R   0.268107 0.875640 0.422525 0.536219
C17   C     C_1   0.686290 0.365366 0.829284 -0.054380
C18   C     C_1   0.678139 0.347932 0.776487 -0.023150
C19   C     C_1   0.669919 0.333700 0.731371 -0.029976
C20   C     C_1   0.655952 0.310615 0.678629 -0.069920
C21   C     C_1   0.637233 0.280129 0.634045 -0.032135
C22   C     C_1   0.222183 0.866336 0.609939 -0.023998
C23   C     C_R   0.513533 0.218943 0.258466 0.008824
C24   C     C_R   0.221220 0.777636 0.726962 0.010068
C25   C     C_R   0.211588 0.771839 0.778681 0.127512
C26   C     C_R   0.142520 0.915608 0.786593 0.157775
C27   C     C_R   0.149725 0.920178 0.734938 0.163324
C28   C     C_R   0.631007 0.898375 0.563612 0.542759
C29   C     C_R   0.187801 0.850517 0.705234 -0.016980
C30   C     C_R   0.170760 0.839517 0.808014 0.004803
C31   C     C_1   0.146712 0.822311 0.859007 -0.062388
C32   C     C_1   0.199791 0.858319 0.652783 -0.070245
C33   C     C_1   0.114795 0.800326 0.899776 -0.026018
C34   C     C_R   0.611135 0.230830 0.289607 0.024882
C35   C     C_1   0.649958 0.864537 0.609279 -0.018483
C36   C     C_R   0.712753 0.930641 0.738695 0.141214
C37   C     C_R   0.710513 0.920669 0.790140 0.155549
C38   C     C_R   0.599473 0.710815 0.768789 -0.147644
C39   C     C_R   0.600985 0.718880 0.717265 -0.027736
C40   C     C_R   0.603453 0.228165 0.582736 0.551158
C41   C     C_R   0.659250 0.829987 0.702684 0.025190
C42   C     C_R   0.652989 0.810243 0.804592 0.008941
C43   C     C_1   0.658525 0.797561 0.856296 -0.037271
C44   C     C_1   0.657295 0.843951 0.650767 -0.046336
C45   C     C_R   0.649682 0.282698 0.191399 0.043251
C46   C     C_1   0.675487 0.787892 0.898739 -0.012840
C47   C     C_R   0.065431 0.771668 0.084163 0.537950
C48   C     C_R   0.715776 0.437837 0.066319 0.545194
C49   C     C_R   0.720268 0.782327 0.086059 0.543734
C50   C     C_R   0.060747 0.765331 0.944789 0.541897
C51   C     C_R   0.709628 0.432522 0.926469 0.541829
C52   C     C_R   0.268559 0.879867 0.562122 0.546506
C53   C     C_R   0.712210 0.775119 0.946253 0.542168
C54   C     C_1   0.589477 0.194757 0.384206 -0.041546
C55   C     C_R   0.724596 0.262652 0.270728 0.009566
C56   C     C_1   0.675954 0.329318 0.144692 -0.024447
C57   C     C_R   0.744070 0.292670 0.221896 0.149024
C58   C     C_3   0.824282 0.264327 0.303056 -0.248254
C59   C     C_3   0.802260 0.141215 0.305922 -0.288661
C60   C     C_3   0.904375 0.143230 0.336368 -0.441979
C61   C     C_3   0.882091 0.055589 0.846525 -0.305147
C62   C     C_3   0.542313 0.612519 0.677076 -0.252166
C63   C     C_3   0.484493 0.494943 0.696138 -0.313804
C64   C     C_3   0.431420 0.395544 0.652498 -0.432914
C65   C     C_3   0.886263 0.253300 0.175924 -0.299658
C66   C     C_3   0.432430 0.219829 0.170147 -0.258191
C67   C     C_1   0.599274 0.212032 0.341273 -0.071440
C68   C     C_3   0.395654 0.108924 0.133043 -0.300078
C69   C     C_3   0.296867 0.087832 0.094490 -0.437630
C70   C     C_3   0.387551 0.185912 0.275384 -0.256655
C71   C     C_3   0.357070 0.165187 0.329402 -0.287699
C72   C     C_3   0.228304 0.137523 0.336987 -0.452705
C73   C     C_3   0.262260 0.702276 0.694783 -0.228700
C74   C     C_3   0.154788 0.592677 0.667790 -0.286642
C75   C     C_3   0.193843 0.512670 0.637990 -0.456666
C76   C     C_3   0.359635 0.749355 0.824283 -0.305230
C77   C     C_3   0.200743 0.103735 0.833163 -0.294181
C78   C     C_1   0.695526 0.375072 0.107612 -0.013473
C79   C     C_3   0.990624 0.946327 0.701468 -0.279712
C80   C     C_3   0.697837 0.089701 0.711206 -0.291513
C81   C     C_1   0.113807 0.805221 0.135120 -0.012577
Cr1   Cr    Cr6+3 0.416010 0.828400 0.490230 1.017300
Cr2   Cr    Cr6+3 0.676380 0.087280 0.505260 1.019125
Cr3   Cr    Cr6+3 0.407590 0.084280 0.504540 1.009242
Cr4   Cr    Cr6+3 0.914090 0.832340 0.018020 1.011908
Cr5   Cr    Cr6+3 0.923310 0.576840 0.003860 1.031296
Cr6   Cr    Cr6+3 0.654200 0.573160 0.004700 1.024295
H1    H     H_    0.557591 0.627695 0.781861 0.119542
H2    H     H_    0.943719 0.080310 0.816048 0.153782
H3    H     H_    0.885150 0.984477 0.862813 0.172322
H4    H     H_    0.912713 0.131144 0.876558 0.142953
H5    H     H_    0.359608 0.398635 0.630578 0.146952
H6    H     H_    0.501466 0.400854 0.627207 0.174461
H7    H     H_    0.393231 0.311704 0.667175 0.156134
H8    H     H_    0.552705 0.486320 0.718189 0.175682
H9    H     H_    0.412011 0.488060 0.720364 0.158100
H10   H     H_    0.472811 0.618582 0.654696 0.144872
H11   H     H_    0.611383 0.615129 0.651608 0.151423
H12   H     H_    0.989803 0.190349 0.318980 0.141259
H13   H     H_    0.928839 0.403447 0.226546 0.247619
H14   H     H_    0.896589 0.199713 0.201863 0.136400
H15   H     H_    0.971018 0.298185 0.157833 0.146888
H16   H     H_    0.814341 0.196634 0.146136 0.160351
H17   H     H_    0.215797 0.076282 0.113421 0.159665
H18   H     H_    0.326997 0.161762 0.073071 0.155199
H19   H     H_    0.273901 0.008293 0.067741 0.149818
H20   H     H_    0.473384 0.114896 0.112832 0.167320
H21   H     H_    0.363492 0.033938 0.153949 0.167946
H22   H     H_    0.351876 0.213144 0.187568 0.129247
H23   H     H_    0.912354 0.185873 0.375469 0.168261
H24   H     H_    0.461094 0.294890 0.149527 0.154892
H25   H     H_    0.215425 0.212108 0.331057 0.144415
H26   H     H_    0.165239 0.060309 0.310455 0.159596
H27   H     H_    0.207678 0.119426 0.375897 0.159178
H28   H     H_    0.366782 0.090405 0.337710 0.178243
H29   H     H_    0.415658 0.244463 0.355951 0.185904
H30   H     H_    0.369281 0.257237 0.269093 0.140911
H31   H     H_    0.323306 0.105741 0.250524 0.151753
H32   H     H_    0.256619 0.558098 0.610096 0.160253
H33   H     H_    0.237789 0.483131 0.663818 0.152451
H34   H     H_    0.886926 0.053436 0.337381 0.157497
H35   H     H_    0.114655 0.435721 0.617800 0.150263
H36   H     H_    0.093490 0.545397 0.695800 0.176892
H37   H     H_    0.105105 0.616053 0.641712 0.171930
H38   H     H_    0.323009 0.751563 0.667086 0.141811
H39   H     H_    0.315809 0.677042 0.717717 0.177591
H40   H     H_    0.176632 0.644254 0.823062 0.261696
H41   H     H_    0.368811 0.810160 0.858444 0.152327
H42   H     H_    0.425486 0.797468 0.797874 0.162406
H43   H     H_    0.379200 0.682033 0.835207 0.146218
H44   H     H_    0.053694 0.950894 0.845021 0.245892
H45   H     H_    0.718119 0.091608 0.323659 0.177538
H46   H     H_    0.268479 0.101588 0.858367 0.141868
H47   H     H_    0.163799 0.155523 0.854114 0.129571
H48   H     H_    0.243931 0.146500 0.800535 0.177407
H49   H     H_    0.167328 0.032836 0.684532 0.248092
H50   H     H_    0.972758 0.011784 0.687237 0.159266
H51   H     H_    0.941212 0.921276 0.735485 0.182379
H52   H     H_    0.957855 0.869201 0.672065 0.138622
H53   H     H_    0.850401 0.100308 0.743971 0.250951
H54   H     H_    0.661309 0.110713 0.745871 0.138008
H55   H     H_    0.622750 0.028750 0.683515 0.162198
H56   H     H_    0.793695 0.095061 0.267502 0.165494
H57   H     H_    0.751627 0.169797 0.694777 0.161427
H58   H     H_    0.912993 0.312797 0.288785 0.143157
H59   H     H_    0.831749 0.310603 0.341371 0.151107
H60   H     H_    0.752253 0.089318 0.818898 0.253572
N1    N     N_2   0.761983 0.020823 0.827495 -0.519607
N2    N     N_2   0.859425 0.338108 0.203085 -0.516853
N3    N     N_2   0.239910 0.695009 0.800648 -0.530245
N4    N     N_2   0.105625 0.987653 0.816513 -0.509307
N5    N     N_2   0.117350 0.994810 0.713322 -0.504724
N6    N     N_2   0.773358 0.041213 0.722553 -0.531061
O1    O     O_R   0.294740 0.800910 0.434410 -0.501687
O2    O     O_R   0.635480 0.460400 0.052590 -0.514001
O3    O     O_R   0.662650 0.681410 0.060750 -0.492110
O4    O     O_R   0.526010 0.837250 0.440870 -0.493105
O5    O     O_R   0.814500 0.852290 0.965490 -0.510624
O6    O     O_R   0.013160 0.821640 0.966980 -0.499795
O7    O     O_R   0.038850 0.666600 0.954370 -0.508580
O8    O     O_R   0.813260 0.476410 0.948680 -0.494426
O9    O     O_R   0.630060 0.454430 0.944230 -0.510969
O10   O     O_R   0.657630 0.675880 0.960300 -0.496424
O11   O     O_3   0.830530 0.660780 0.008860 -0.245885
O12   O     O_R   0.664100 0.185180 0.560770 -0.486924
O13   O     O_R   0.704290 0.994500 0.446090 -0.520236
O14   O     O_R   0.662870 0.181760 0.460430 -0.491036
O15   O     O_R   0.498970 0.199080 0.457120 -0.509831
O16   O     O_R   0.309350 0.975930 0.448180 -0.516314
O17   O     O_R   0.296060 0.804610 0.542650 -0.509522
O18   O     O_R   0.527240 0.840670 0.541200 -0.498353
O19   O     O_R   0.705610 0.998200 0.554330 -0.501829
O20   O     O_R   0.500290 0.202770 0.565360 -0.510430
O21   O     O_R   0.310570 0.979360 0.548520 -0.493626
O22   O     O_3   0.499990 0.999990 0.500010 -0.267726
O23   O     O_R   0.819910 0.858260 0.073860 -0.510737
O24   O     O_R   0.018180 0.827180 0.067430 -0.501791
O25   O     O_R   0.044260 0.672570 0.062730 -0.501963
O26   O     O_R   0.818270 0.481940 0.049130 -0.488706

loop_
_geom_bond_atom_site_label_1
_geom_bond_atom_site_label_2
_ccdc_geom_bond_type
C74   H37   S    
Cr1   O17   S    
C27   N5    S    
Cr2   O22   S    
C27   C29   A    
C75   H35   S    
C73   C74   S    
C49   O3    A    
C79   H52   S    
H60   N1    S    
C65   H14   S    
C60   H12   S    
C77   N4    S    
C72   H25   S    
C58   H58   S    
C80   N6    S    
C39   C41   A    
Cr2   O12   S    
C12   C23   A    
C45   C57   A    
C26   C27   A    
C22   C32   T    
Cr4   O23   S    
C5    C6    S    
C36   C37   A    
C61   N1    S    
C64   H6    S    
C38   C42   A    
C29   C32   S    
H40   N3    S    
C40   O20   A    
C24   C73   S    
C66   C68   S    
C70   H30   S    
C73   H39   S    
C63   H8    S    
Cr5   O25   S    
C72   H27   S    
C56   C78   T    
C51   O9    A    
C18   C19   T    
C48   C78   S    
C37   C42   A    
C24   C29   A    
C62   H11   S    
C76   H43   S    
C16   O16   A    
C28   O19   A    
C19   C20   S    
C45   C56   S    
C8    C9    T    
C80   H57   S    
C57   N2    S    
C71   H29   S    
C31   C33   T    
C51   O8    A    
C70   C71   S    
C68   H20   S    
C15   C51   S    
C66   H24   S    
Cr3   O22   S    
Cr6   O10   S    
H53   N6    S    
Cr6   O11   S    
C59   H56   S    
C34   C55   A    
C37   N1    S    
C13   C14   T    
C23   C70   S    
C36   C41   A    
C77   H46   S    
C65   H15   S    
Cr3   O21   S    
H49   N5    S    
C61   H2    S    
C36   N6    S    
Cr2   O13   S    
C59   H45   S    
C74   C75   S    
C50   O6    A    
C75   H32   S    
C24   C25   A    
C28   C35   S    
Cr3   O16   S    
C52   O17   A    
Cr1   O4    S    
C69   H18   S    
C53   O10   A    
C54   C67   T    
C50   O7    A    
C58   C59   S    
Cr2   O14   S    
C63   H9    S    
C4    O15   A    
C38   H1    S    
C25   N3    S    
C77   H47   S    
C62   C63   S    
Cr3   O15   S    
C62   H10   S    
C76   H42   S    
C28   O18   A    
C76   N3    S    
C30   C31   S    
C23   C34   A    
Cr2   O19   S    
Cr6   O9    S    
C17   C18   S    
C53   O5    A    
C71   H28   S    
Cr5   O8    S    
Cr1   O22   S    
C35   C44   T    
C40   O12   A    
C7    C16   S    
C79   H50   S    
C48   O2    A    
C26   C30   A    
C80   H55   S    
C55   C57   A    
C16   O1    A    
C76   H41   S    
C41   C44   S    
Cr6   O2    S    
Cr5   O11   S    
Cr4   O5    S    
C64   H5    S    
Cr3   O20   S    
C52   O21   A    
C48   O26   A    
C61   H3    S    
C22   C52   S    
C9    C10   S    
C69   H17   S    
C25   C30   A    
C15   C17   T    
C39   C62   S    
Cr1   O18   S    
C26   N4    S    
C4    C54   S    
C68   C69   S    
C75   H33   S    
C12   C45   A    
C3    C5    T    
C34   C67   S    
C69   H19   S    
C58   H59   S    
C6    C7    T    
H13   N2    S    
C47   O25   A    
C68   H21   S    
C4    O14   A    
C1    O4    A    
C2    C3    S    
C33   C50   S    
C64   H7    S    
C71   C72   S    
C47   O24   A    
C11   C13   S    
C38   C39   A    
C21   C40   S    
C12   C66   S    
C1    O13   A    
C70   H31   S    
C73   H38   S    
C72   H26   S    
C46   C53   S    
Cr5   O26   S    
H44   N4    S    
C74   H36   S    
C47   C81   S    
C66   H22   S    
C65   N2    S    
C60   H34   S    
C43   C46   T    
C60   H23   S    
C10   C11   T    
C77   H48   S    
C63   C64   S    
Cr1   O1    S    
C59   C60   S    
C79   H51   S    
C20   C21   T    
Cr4   O24   S    
C80   H54   S    
C42   C43   S    
C55   C58   S    
Cr4   O11   S    
C65   H16   S    
Cr6   O3    S    
C2    C81   T    
C1    C14   S    
Cr4   O6    S    
Cr5   O7    S    
C8    C49   S    
C49   O23   A    
C61   H4    S    
C79   N5    S    
