data_mof_unit_15864.cif
_audit_creation_date              2012-12-11T14:25:02-0500
_audit_creation_method            fapswitch 2.2
_symmetry_space_group_name_H-M    P1
_symmetry_Int_Tables_number       1
_space_group_crystal_system       triclinic
_cell_length_a                    19.254089
_cell_length_b                    11.088633
_cell_length_c                    18.749766
_cell_angle_alpha                 89.417193
_cell_angle_beta                  91.773716
_cell_angle_gamma                 90.053649
_cell_volume                      4000.97786893

loop_
_atom_site_label
_atom_site_type_symbol
_atom_type_description
_atom_site_fract_x
_atom_site_fract_y
_atom_site_fract_z
_atom_type_partial_charge
C1    C     C_R   0.728986 0.376010 0.145695 0.539261
C2    C     C_R   0.268896 0.380363 0.851909 0.564866
C3    C     C_R   0.230423 0.878458 0.146903 0.567884
C4    C     C_R   0.769517 0.876522 0.853364 0.544390
C5    C     C_3   0.507377 0.045329 0.022965 -0.149446
C6    C     C_3   0.541679 0.120831 0.964300 -0.133188
C7    C     C_3   0.926410 0.635013 0.044710 -0.162239
C8    C     C_3   0.956255 0.550158 0.988301 -0.174005
C9    C     C_R   0.750128 0.914230 0.925854 -0.043867
C10   C     C_R   0.249190 0.920701 0.074558 -0.008458
C11   C     C_R   0.247527 0.431280 0.921261 -0.010822
C12   C     C_R   0.743095 0.410805 0.070998 -0.035381
C13   C     C_R   0.695684 0.857552 0.963788 0.005051
C14   C     C_R   0.304805 0.869633 0.038432 0.010863
C15   C     C_R   0.191332 0.383299 0.957681 0.017941
C16   C     C_R   0.803949 0.373407 0.037674 0.007783
C17   C     C_R   0.699210 0.854251 0.039820 -0.006263
C18   C     C_R   0.300509 0.859556 0.962856 -0.024897
C19   C     C_R   0.194710 0.374091 0.033398 -0.006406
C20   C     C_R   0.803269 0.359728 0.962436 -0.012437
C21   C     C_R   0.805193 0.970693 0.037883 0.140219
C22   C     C_R   0.191864 0.970425 0.961059 0.202903
C23   C     C_R   0.302293 0.488916 0.034111 0.199785
C24   C     C_R   0.686868 0.436390 0.953988 0.134414
C25   C     C_R   0.801594 0.976540 0.964492 -0.140432
C26   C     C_R   0.198326 0.983260 0.034558 -0.079689
C27   C     C_R   0.296506 0.498818 0.960112 -0.077941
C28   C     C_R   0.685294 0.444609 0.027606 -0.137439
C29   C     C_R   0.639207 0.799817 0.928767 -0.069374
C30   C     C_R   0.367275 0.838163 0.074826 -0.044447
C31   C     C_R   0.131370 0.345344 0.920246 -0.041178
C32   C     C_R   0.864345 0.342767 0.077406 -0.067947
C33   C     C_R   0.080684 0.282169 0.955268 -0.085094
C34   C     C_R   0.915384 0.274987 0.046634 -0.076477
C35   C     C_R   0.595780 0.723805 0.966207 -0.105057
C36   C     C_R   0.421876 0.789572 0.037755 -0.084875
C37   C     C_R   0.603533 0.711020 0.039704 -0.142501
C38   C     C_R   0.412906 0.762327 0.965738 -0.093682
C39   C     C_R   0.090706 0.250832 0.027033 -0.129252
C40   C     C_R   0.907433 0.238555 0.975697 -0.123236
C41   C     C_R   0.653812 0.777431 0.076681 -0.097793
C42   C     C_R   0.352511 0.795340 0.928658 -0.095300
C43   C     C_R   0.146035 0.299319 0.066731 -0.101130
C44   C     C_R   0.854068 0.286697 0.932348 -0.112265
C45   C     C_R   0.532746 0.154676 0.144462 0.614087
C46   C     C_R   0.442529 0.151061 0.862412 0.573425
C47   C     C_R   0.030915 0.655197 0.145293 0.594363
C48   C     C_R   0.939033 0.650675 0.862290 0.571254
C49   C     C_R   0.751187 0.921072 0.076613 0.013463
C50   C     C_R   0.246650 0.919249 0.923667 0.035359
C51   C     C_R   0.248509 0.434372 0.072289 0.050627
C52   C     C_R   0.748001 0.409081 0.920779 0.015825
C53   C     C_R   0.497805 0.145802 0.575675 0.054278
C54   C     C_R   0.512972 0.167927 0.428088 0.015765
C55   C     C_R   0.997844 0.645771 0.575702 0.053492
C56   C     C_R   0.012989 0.667887 0.428107 0.017808
C57   C     C_R   0.479026 0.047377 0.528669 0.030807
C58   C     C_R   0.470783 0.076906 0.455425 -0.006469
C59   C     C_R   0.979085 0.547309 0.528712 0.029383
C60   C     C_R   0.970843 0.576802 0.455461 -0.003539
C61   C     C_R   0.549635 0.244632 0.475495 -0.146913
C62   C     C_R   0.536946 0.240364 0.548397 -0.132156
C63   C     C_R   0.049642 0.744620 0.475506 -0.147112
C64   C     C_R   0.036971 0.740346 0.548413 -0.131766
C65   C     C_R   0.471966 0.921069 0.547088 0.196308
C66   C     C_R   0.432591 0.999891 0.409483 0.154744
C67   C     C_R   0.971995 0.421009 0.547163 0.195316
C68   C     C_R   0.932656 0.499753 0.409534 0.157700
C69   C     C_R   0.950257 0.339544 0.494541 -0.143514
C70   C     C_R   0.928960 0.379011 0.426924 -0.102419
C71   C     C_R   0.450258 0.839628 0.494444 -0.143335
C72   C     C_R   0.428926 0.879134 0.426843 -0.105200
C73   C     C_R   0.779327 0.869162 0.564553 0.021648
C74   C     C_R   0.252011 0.916205 0.424919 0.030671
C75   C     C_R   0.279315 0.369193 0.564540 0.021867
C76   C     C_R   0.752019 0.416254 0.424897 0.031935
C77   C     C_R   0.836862 0.880060 0.518682 0.001358
C78   C     C_R   0.220435 0.021144 0.449850 -0.000482
C79   C     C_R   0.336848 0.380071 0.518669 0.001081
C80   C     C_R   0.720473 0.521242 0.449800 0.001231
C81   C     C_R   0.823234 0.880513 0.444663 0.037508
C82   C     C_R   0.204114 0.023962 0.521937 -0.002134
C83   C     C_R   0.323219 0.380493 0.444649 0.036231
C84   C     C_R   0.704194 0.524173 0.521896 -0.001919
C85   C     C_R   0.701866 0.923620 0.468491 -0.093570
C86   C     C_R   0.281654 0.853542 0.545483 -0.099999
C87   C     C_R   0.201839 0.423570 0.468478 -0.095406
C88   C     C_R   0.781675 0.353663 0.545461 -0.100841
C89   C     C_R   0.741743 0.968707 0.149019 0.551493
C90   C     C_R   0.257784 0.967841 0.851000 0.560484
C91   C     C_R   0.241026 0.471807 0.147464 0.576927
C92   C     C_R   0.758365 0.466745 0.850521 0.559664
C93   C     C_R   0.714340 0.909047 0.540242 0.170067
C94   C     C_R   0.280997 0.831354 0.474483 0.117056
C95   C     C_R   0.214316 0.409017 0.540231 0.169945
C96   C     C_R   0.780994 0.331421 0.474473 0.117558
C97   C     C_R   0.904406 0.916075 0.542519 -0.074338
C98   C     C_R   0.194722 0.112159 0.402695 -0.074436
C99   C     C_R   0.404393 0.416085 0.542499 -0.073761
C100  C     C_R   0.694755 0.612210 0.402616 -0.074986
C101  C     C_R   0.953943 0.952051 0.493816 -0.112912
C102  C     C_R   0.140767 0.186081 0.422635 -0.132993
C103  C     C_R   0.453930 0.452040 0.493782 -0.112782
C104  C     C_R   0.640811 0.686167 0.422536 -0.133669
C105  C     C_R   0.942775 0.930608 0.421567 -0.079717
C106  C     C_R   0.116576 0.177661 0.491353 -0.134852
C107  C     C_R   0.442760 0.430565 0.421535 -0.080871
C108  C     C_R   0.616669 0.677887 0.491273 -0.134439
C109  C     C_R   0.879082 0.885593 0.397559 -0.039850
C110  C     C_R   0.148095 0.099422 0.541072 -0.081027
C111  C     C_R   0.379065 0.385540 0.397537 -0.039592
C112  C     C_R   0.648227 0.599758 0.541026 -0.080939
C113  C     C_R   0.755064 0.905629 0.420280 -0.000196
C114  C     C_R   0.243145 0.946699 0.570052 -0.021675
C115  C     C_R   0.255050 0.405610 0.420270 -0.000124
C116  C     C_R   0.743203 0.446879 0.570015 -0.022065
C117  C     C_R   0.730899 0.376650 0.354481 0.581555
C118  C     C_R   0.288216 0.334919 0.638639 0.554279
C119  C     C_R   0.230900 0.876646 0.354484 0.579549
C120  C     C_R   0.788229 0.834885 0.638658 0.557970
C121  C     C_R   0.537471 0.157464 0.355295 0.599772
C122  C     C_R   0.467680 0.154313 0.647123 0.563395
C123  C     C_R   0.037473 0.657459 0.355301 0.592889
C124  C     C_R   0.967699 0.654313 0.647141 0.573033
C125  C     C_R   0.743660 0.965239 0.352789 0.552511
C126  C     C_R   0.257005 0.977755 0.642663 0.545418
C127  C     C_R   0.243657 0.465236 0.352785 0.559305
C128  C     C_R   0.757031 0.477851 0.642636 0.543571
C129  C     C_3   0.468554 0.268207 0.983478 0.230124
C130  C     C_3   0.434152 0.192716 0.042033 0.173915
C131  C     C_3   0.037474 0.681096 0.964813 0.202790
C132  C     C_3   0.008091 0.766300 0.020542 0.238684
C133  C     C_3   0.541428 0.232286 0.012929 -0.098452
C134  C     C_3   0.434637 0.081606 0.993552 -0.153655
C135  C     C_3   0.030710 0.574486 0.016718 -0.135110
C136  C     C_3   0.933190 0.742618 0.992078 -0.113398
C137  C     C_3   0.506245 0.157593 0.070738 0.026402
C138  C     C_3   0.469213 0.157274 0.935953 0.029256
C139  C     C_3   0.000835 0.660290 0.072240 0.029661
C140  C     C_3   0.963336 0.657124 0.937040 0.014180
Cr1   Cr    Cr6+3 0.772820 0.169820 0.252640 1.086378
Cr2   Cr    Cr6+3 0.227180 0.169820 0.747360 1.094834
Cr3   Cr    Cr6+3 0.272820 0.669820 0.252640 1.091177
Cr4   Cr    Cr6+3 0.727180 0.669820 0.747360 1.082576
Cr5   Cr    Cr6+3 0.615040 0.323610 0.249150 1.045382
Cr6   Cr    Cr6+3 0.384960 0.323610 0.750850 1.084154
Cr7   Cr    Cr6+3 0.115040 0.823610 0.249150 1.073854
Cr8   Cr    Cr6+3 0.884960 0.823610 0.750850 1.059533
Cr9   Cr    Cr6+3 0.616720 0.011130 0.250660 1.022541
Cr10  Cr    Cr6+3 0.383280 0.011130 0.749340 1.068798
Cr11  Cr    Cr6+3 0.116720 0.511130 0.250660 1.025380
Cr12  Cr    Cr6+3 0.883280 0.511130 0.749340 1.069278
H1    H     H_    0.586158 0.290151 0.025493 0.153208
H2    H     H_    0.389140 0.026440 0.980054 0.142502
H3    H     H_    0.071140 0.506243 0.028925 0.158852
H4    H     H_    0.893339 0.809670 0.977035 0.157407
H5    H     H_    0.585449 0.311655 0.455712 0.142487
H6    H     H_    0.557577 0.310065 0.583155 0.131765
H7    H     H_    0.085437 0.811672 0.455715 0.142377
H8    H     H_    0.057597 0.810064 0.583165 0.133153
H9    H     H_    0.949131 0.243850 0.506424 0.176159
H10   H     H_    0.909580 0.315798 0.387571 0.193246
H11   H     H_    0.449187 0.743928 0.506300 0.176526
H12   H     H_    0.409559 0.815938 0.387475 0.192081
H13   H     H_    0.652172 0.961731 0.451226 0.162566
H14   H     H_    0.308991 0.793049 0.582661 0.189584
H15   H     H_    0.152132 0.461640 0.451208 0.161912
H16   H     H_    0.808991 0.293154 0.582647 0.188665
H17   H     H_    0.919119 0.930113 0.597396 0.175212
H18   H     H_    0.212175 0.119105 0.348415 0.154799
H19   H     H_    0.419101 0.430147 0.597372 0.175553
H20   H     H_    0.712186 0.619081 0.348327 0.148950
H21   H     H_    0.003023 0.989439 0.512679 0.110332
H22   H     H_    0.117375 0.249355 0.384698 0.133941
H23   H     H_    0.503012 0.489437 0.512636 0.110592
H24   H     H_    0.617403 0.749384 0.384578 0.132417
H25   H     H_    0.983219 0.949809 0.384258 0.133287
H26   H     H_    0.074274 0.233933 0.506691 0.160626
H27   H     H_    0.483206 0.449740 0.384219 0.133404
H28   H     H_    0.574387 0.734220 0.506601 0.160879
H29   H     H_    0.870934 0.872382 0.340749 0.147228
H30   H     H_    0.123603 0.094326 0.591900 0.181396
H31   H     H_    0.370914 0.372296 0.340727 0.157257
H32   H     H_    0.623783 0.594864 0.591877 0.181928
H33   H     H_    0.525379 0.954578 0.040329 0.152720
H34   H     H_    0.585327 0.092014 0.931108 0.156061
H35   H     H_    0.881265 0.616601 0.078584 0.144761
H36   H     H_    0.937191 0.464171 0.967820 0.163007
H37   H     H_    0.627714 0.811671 0.872437 0.165931
H38   H     H_    0.375790 0.856779 0.130951 0.164874
H39   H     H_    0.123397 0.364165 0.863814 0.172757
H40   H     H_    0.871613 0.367202 0.132849 0.152197
H41   H     H_    0.845544 0.015639 0.938095 0.176374
H42   H     H_    0.159804 0.034339 0.061546 0.191172
H43   H     H_    0.335316 0.548631 0.932127 0.192957
H44   H     H_    0.636220 0.466635 0.050644 0.168681
H45   H     H_    0.037146 0.249481 0.924006 0.150551
H46   H     H_    0.957756 0.243838 0.080518 0.154857
H47   H     H_    0.557800 0.671117 0.937256 0.182611
H48   H     H_    0.469487 0.766389 0.066364 0.136800
H49   H     H_    0.057215 0.186038 0.051600 0.170901
H50   H     H_    0.941722 0.171931 0.954563 0.162676
H51   H     H_    0.570722 0.648881 0.068151 0.149208
H52   H     H_    0.451758 0.714435 0.937886 0.151799
H53   H     H_    0.659551 0.761873 0.133570 0.138696
H54   H     H_    0.346992 0.769894 0.873241 0.155078
H55   H     H_    0.152081 0.272833 0.122218 0.151848
H56   H     H_    0.850223 0.260411 0.876927 0.147100
O1    O     O_R   0.788190 0.043000 0.172520 -0.452278
O2    O     O_R   0.211810 0.043000 0.827480 -0.446906
O3    O     O_R   0.288190 0.543000 0.172520 -0.452139
O4    O     O_R   0.711810 0.543000 0.827480 -0.452255
O5    O     O_R   0.556550 0.253260 0.323480 -0.508359
O6    O     O_R   0.443450 0.253260 0.676520 -0.540744
O7    O     O_R   0.056550 0.753260 0.323480 -0.513334
O8    O     O_R   0.943450 0.753260 0.676520 -0.538344
O9    O     O_R   0.545830 0.051610 0.330160 -0.487172
O10   O     O_R   0.454170 0.051610 0.669840 -0.448644
O11   O     O_R   0.045830 0.551610 0.330160 -0.488704
O12   O     O_R   0.954170 0.551610 0.669840 -0.445755
O13   O     O_R   0.681920 0.959720 0.327070 -0.535666
O14   O     O_R   0.318080 0.959720 0.672930 -0.494355
O15   O     O_R   0.181920 0.459720 0.327070 -0.533090
O16   O     O_R   0.818080 0.459720 0.672930 -0.495692
O17   O     O_3   0.668190 0.168190 0.250820 -0.280412
O18   O     O_3   0.331810 0.168190 0.749180 -0.332500
O19   O     O_3   0.168190 0.668190 0.250820 -0.283539
O20   O     O_3   0.831810 0.668190 0.749180 -0.333128
O21   O     O_R   0.766240 0.292300 0.176860 -0.490344
O22   O     O_R   0.233760 0.292300 0.823140 -0.494855
O23   O     O_R   0.266240 0.792300 0.176860 -0.499679
O24   O     O_R   0.733760 0.792300 0.823140 -0.498594
O25   O     O_R   0.670310 0.409160 0.168720 -0.530277
O26   O     O_R   0.329690 0.409160 0.831280 -0.481189
O27   O     O_R   0.170310 0.909160 0.168720 -0.488849
O28   O     O_R   0.829690 0.909160 0.831280 -0.520253
O29   O     O_R   0.556160 0.251900 0.173380 -0.479695
O30   O     O_R   0.443840 0.251900 0.826620 -0.427650
O31   O     O_R   0.056160 0.751900 0.173380 -0.441796
O32   O     O_R   0.943840 0.751900 0.826620 -0.451858
O33   O     O_R   0.545410 0.050140 0.168240 -0.510294
O34   O     O_R   0.454590 0.050140 0.831760 -0.504309
O35   O     O_R   0.045410 0.550140 0.168240 -0.520047
O36   O     O_R   0.954590 0.550140 0.831760 -0.484661
O37   O     O_R   0.681530 0.958350 0.176970 -0.533653
O38   O     O_R   0.318470 0.958350 0.823030 -0.536364
O39   O     O_R   0.181530 0.458350 0.176970 -0.533544
O40   O     O_R   0.818470 0.458350 0.823030 -0.536806
O41   O     O_R   0.788610 0.044480 0.334450 -0.464336
O42   O     O_R   0.211390 0.044480 0.665550 -0.533454
O43   O     O_R   0.288610 0.544480 0.334450 -0.464259
O44   O     O_R   0.711390 0.544480 0.665550 -0.533088
O45   O     O_R   0.766630 0.293670 0.326970 -0.451418
O46   O     O_R   0.233370 0.293670 0.673030 -0.442988
O47   O     O_R   0.266630 0.793670 0.326970 -0.454162
O48   O     O_R   0.733370 0.793670 0.673030 -0.440375
O49   O     O_R   0.670730 0.410640 0.330640 -0.540525
O50   O     O_R   0.329270 0.410640 0.669360 -0.510248
O51   O     O_R   0.170730 0.910640 0.330640 -0.540797
O52   O     O_R   0.829270 0.910640 0.669360 -0.509868
Br1   Br    Br    0.506645 0.836133 0.631824 -0.462528
Br2   Br    Br    0.387637 0.054500 0.321650 -0.522454
Br3   Br    Br    0.006660 0.336077 0.631926 -0.461465
Br4   Br    Br    0.887677 0.554304 0.321706 -0.573366
Br5   Br    Br    0.653004 0.989818 0.602514 -0.436441
Br6   Br    Br    0.313593 0.674778 0.457681 -0.548983
Br7   Br    Br    0.152959 0.489757 0.602525 -0.426514
Br8   Br    Br    0.813531 0.174799 0.457701 -0.548137
Br9   Br    Br    0.450200 0.423227 0.941722 -0.444817
Br10  Br    Br    0.358265 0.216028 0.105388 -0.494369
Br11  Br    Br    0.117299 0.696047 0.905171 -0.459089
Br12  Br    Br    0.041978 0.915865 0.056549 -0.441038
Br13  Br    Br    0.892170 0.006691 0.083197 -0.500447
Br14  Br    Br    0.104061 0.013106 0.913297 -0.425280
Br15  Br    Br    0.390723 0.529627 0.080800 -0.452152
Br16  Br    Br    0.603509 0.439149 0.897064 -0.476672

loop_
_geom_bond_atom_site_label_1
_geom_bond_atom_site_label_2
_ccdc_geom_bond_type
C96   Br8   S    
Cr11  O19   S    
Cr6   O26   S    
C24   C52   A    
Cr2   O42   S    
Cr5   O25   S    
C100  H20   S    
Cr1   O41   S    
C14   C18   A    
C119  O51   A    
Cr8   O20   S    
C73   C93   A    
C133  C137  S    
C48   O36   A    
C29   H37   S    
C128  O16   A    
C88   C96   A    
C92   O40   A    
C75   C95   A    
C7    C8    S    
C112  H32   S    
C8    H36   S    
C132  C139  S    
C135  C139  S    
C74   C119  S    
Cr4   O48   S    
C58   C66   A    
C123  O7    A    
C33   C39   A    
C75   C79   A    
C71   H11   S    
C12   C28   A    
C37   C41   A    
Cr10  O18   S    
C53   C57   A    
C4    O24   A    
C13   C29   A    
C35   C37   A    
C69   H9    S    
C102  H22   S    
C38   C42   A    
C6    C133  S    
C55   C59   A    
C53   C122  S    
C18   C42   A    
C124  O8    A    
C5    C6    S    
C114  C126  S    
C132  C136  S    
Cr2   O22   S    
C113  C125  S    
C6    H34   S    
Cr1   O21   S    
C24   Br16  S    
C31   H39   S    
C104  C108  A    
C100  C104  A    
C115  C127  S    
C124  O12   A    
C108  H28   S    
C43   H55   S    
C21   C25   A    
C97   C101  A    
Cr10  O10   S    
C82   C110  A    
Cr9   O33   S    
C9    C13   A    
C105  C109  A    
C131  C140  S    
C86   C94   A    
C51   C91   S    
C120  O52   A    
Cr12  O20   S    
Cr7   O7    S    
C85   C93   A    
C50   C90   S    
C66   C72   A    
C129  C138  S    
C12   C16   A    
Cr11  O15   S    
C88   H16   S    
Cr5   O29   S    
C78   C98   A    
C31   C33   A    
C77   C97   A    
C5    H33   S    
C74   C78   A    
C118  O46   A    
C87   C115  A    
C61   C62   A    
C3    O27   A    
C136  C140  S    
C22   C50   A    
C59   C67   A    
C10   C26   A    
C11   C15   A    
C30   H38   S    
Cr4   O44   S    
C59   C60   A    
C84   C116  A    
C73   C120  S    
C38   H52   S    
C80   C100  A    
C8    C135  S    
C41   H53   S    
C67   Br3   S    
Cr10  O14   S    
C44   H56   S    
C130  C134  S    
C1    C12   S    
C117  O45   A    
Cr8   O52   S    
Cr12  O12   S    
C2    C11   S    
C70   H10   S    
Cr11  O39   S    
C87   H15   S    
C48   O32   A    
C4    O28   A    
C2    O26   A    
C11   C27   A    
Cr2   O18   S    
C37   H51   S    
Cr1   O17   S    
C5    C134  S    
C94   Br6   S    
C91   O39   A    
C101  C105  A    
C49   C89   S    
C101  H21   S    
C48   C140  S    
C125  O13   A    
C35   H47   S    
C80   C84   A    
C56   C123  S    
C83   C115  A    
Cr11  O11   S    
C129  Br9   S    
C82   C114  A    
Cr4   O4    S    
C91   O3    A    
C99   C103  A    
C10   C14   A    
C135  H3    S    
C3    O23   A    
C23   Br15  S    
C90   O2    A    
Cr7   O19   S    
Cr3   O3    S    
C19   C43   A    
C45   C137  S    
C65   C71   A    
C45   O33   A    
Cr5   O49   S    
C15   C31   A    
C108  C112  A    
C87   C95   A    
C28   H44   S    
Cr8   O28   S    
C32   C34   A    
C88   C116  A    
C15   C19   A    
C30   C36   A    
C120  O48   A    
C132  Br12  S    
C63   H7    S    
Cr8   O8    S    
C103  H23   S    
C1    O21   A    
C117  O49   A    
C53   C62   A    
C78   C82   A    
Cr10  O34   S    
C23   C51   A    
C21   C49   A    
C33   H45   S    
C16   C20   A    
Cr3   O23   S    
C57   C65   A    
C55   C64   A    
C64   H8    S    
C45   O29   A    
C111  H31   S    
C72   H12   S    
C56   C63   A    
C131  Br11  S    
C9    C25   A    
C128  O44   A    
C5    C137  S    
C104  H24   S    
C6    C138  S    
C60   C68   A    
Cr6   O6    S    
Cr3   O43   S    
Cr9   O13   S    
C129  C133  S    
C61   H5    S    
Cr5   O5    S    
C105  H25   S    
C2    O22   A    
C54   C121  S    
C40   H50   S    
Cr6   O30   S    
C20   C44   A    
C23   C27   A    
Cr12  O16   S    
C116  C128  S    
C54   C58   A    
C34   C40   A    
C92   O4    A    
C76   C80   A    
C46   O34   A    
C17   C49   A    
C131  C132  S    
C26   H42   S    
C7    C139  S    
Cr1   O1    S    
C136  H4    S    
C68   Br4   S    
C25   H41   S    
C18   C50   A    
C127  O43   A    
C103  C107  A    
C129  C130  S    
C106  C110  A    
C79   C99   A    
C7    H35   S    
Cr10  O38   S    
C123  O11   A    
C55   C124  S    
C133  H1    S    
Cr9   O37   S    
Cr7   O31   S    
C122  O10   A    
C1    O25   A    
C107  H27   S    
C86   C114  A    
Cr8   O32   S    
C107  C111  A    
Cr4   O24   S    
C75   C118  S    
C24   C28   A    
Cr3   O19   S    
C119  O47   A    
C134  C138  S    
C89   O1    A    
C126  O14   A    
Cr12  O36   S    
C36   H48   S    
C118  O50   A    
C54   C61   A    
C127  O15   A    
C16   C32   A    
C121  O9    A    
Cr6   O18   S    
C29   C35   A    
C81   C109  A    
C131  C135  S    
C76   C117  S    
Cr2   O46   S    
C13   C17   A    
C8    C140  S    
C85   H13   S    
C85   C113  A    
C97   H17   S    
Cr1   O45   S    
C71   C72   A    
C20   C52   A    
C3    C10   S    
C98   C102  A    
C76   C96   A    
C36   C38   A    
C79   C83   A    
C34   H46   S    
C57   C58   A    
C134  H2    S    
C27   H43   S    
Cr5   O17   S    
C125  O41   A    
C7    C136  S    
C130  Br10  S    
Cr9   O17   S    
C90   O38   A    
C109  H29   S    
C47   O35   A    
C47   O31   A    
C89   O37   A    
C62   H6    S    
C42   H54   S    
C19   C51   A    
C83   C111  A    
C46   O30   A    
C39   H49   S    
Cr7   O51   S    
C69   C70   A    
C81   C113  A    
C17   C41   A    
Cr9   O9    S    
Cr12  O40   S    
C21   Br13  S    
Cr6   O50   S    
C126  O42   A    
Cr11  O35   S    
C63   C64   A    
C98   H18   S    
C122  O6    A    
C95   Br7   S    
C40   C44   A    
C56   C60   A    
C86   H14   S    
C110  H30   S    
C73   C77   A    
C68   C70   A    
C77   C81   A    
C22   C26   A    
C102  C106  A    
C47   C139  S    
C74   C94   A    
Cr2   O2    S    
C46   C138  S    
Cr4   O20   S    
C93   Br5   S    
Cr3   O47   S    
C65   Br1   S    
C32   H40   S    
C67   C69   A    
C4    C9    S    
C66   Br2   S    
C130  C137  S    
C84   C112  A    
C39   C43   A    
C106  H26   S    
C52   C92   S    
C14   C30   A    
C22   Br14  S    
C99   H19   S    
C121  O5    A    
Cr7   O27   S    
