data_mof_unit_62405.cif
_audit_creation_date              2012-12-10T18:18:58-0500
_audit_creation_method            fapswitch 2.2
_symmetry_space_group_name_H-M    P1
_symmetry_Int_Tables_number       1
_space_group_crystal_system       triclinic
_cell_length_a                    18.494391
_cell_length_b                    18.78369
_cell_length_c                    18.639193
_cell_angle_alpha                 109.838116
_cell_angle_beta                  109.055526
_cell_angle_gamma                 109.340939
_cell_volume                      4995.35904163

loop_
_atom_site_label
_atom_site_type_symbol
_atom_type_description
_atom_site_fract_x
_atom_site_fract_y
_atom_site_fract_z
_atom_type_partial_charge
C1    C     C_R   0.622250 0.500760 0.621055 0.882981
C2    C     C_3   0.852245 0.800110 0.579151 -0.467556
C3    C     C_3   0.183140 0.152699 0.410363 -0.467497
C4    C     C_3   0.741003 0.838473 0.507709 -0.456101
C5    C     C_3   0.759235 0.596625 0.764590 -0.402686
C6    C     C_3   0.236909 0.403082 0.238882 -0.401716
C7    C     C_3   0.821789 0.597484 0.843724 -0.160501
C8    C     C_3   0.175904 0.401362 0.158138 -0.164209
C9    C     C_3   0.647545 0.449867 0.726880 -0.464578
C10   C     C_3   0.351226 0.545250 0.269549 -0.463026
C11   C     C_3   0.738398 0.455050 0.651815 -0.224092
C12   C     C_R   0.377468 0.499050 0.379031 0.845663
C13   C     C_3   0.264806 0.549711 0.349154 -0.214060
C14   C     C_3   0.691051 0.501061 0.688856 0.059345
C15   C     C_3   0.308558 0.498892 0.311490 0.063393
C16   C     C_R   0.375101 0.379066 0.496917 0.842212
C17   C     C_R   0.620151 0.621228 0.498429 0.866735
C18   C     C_3   0.811562 0.504088 0.813356 0.037750
C19   C     C_3   0.188204 0.495471 0.186448 0.035473
C20   C     C_3   0.717043 0.441650 0.791413 -0.501248
C21   C     C_3   0.282514 0.554765 0.205694 -0.503285
C22   C     C_3   0.819885 0.472022 0.728899 0.337398
C23   C     C_3   0.260185 0.219601 0.412301 -0.229716
C24   C     C_3   0.182301 0.531380 0.272053 0.332198
C25   C     C_3   0.000178 0.311637 0.809420 0.024108
C26   C     C_3   0.999927 0.688395 0.190708 0.022063
C27   C     C_R   0.999069 0.120311 0.621297 0.858974
C28   C     C_R   0.001074 0.879875 0.378692 0.865354
C29   C     C_R   0.121522 0.121428 0.500698 0.878081
C30   C     C_R   0.878690 0.880338 0.501167 0.878166
C31   C     C_R   0.001064 0.620816 0.122726 0.886302
C32   C     C_R   0.998974 0.379189 0.877329 0.884590
C33   C     C_R   0.878651 0.502621 0.881470 0.851782
C34   C     C_3   0.663037 0.761226 0.493810 -0.252449
C35   C     C_R   0.121293 0.497010 0.118204 0.848795
C36   C     C_3   0.903783 0.167588 0.666157 -0.445043
C37   C     C_3   0.096136 0.831259 0.334970 -0.445545
C38   C     C_3   0.046617 0.197370 0.779993 -0.447852
C39   C     C_3   0.955482 0.804221 0.220317 -0.449373
C40   C     C_3   0.046556 0.349894 0.764172 -0.388956
C41   C     C_3   0.953692 0.650359 0.236218 -0.389811
C42   C     C_3   0.049735 0.271543 0.852075 -0.238083
C43   C     C_3   0.950391 0.728497 0.147967 -0.237956
C44   C     C_3   0.903301 0.238200 0.738399 0.390051
C45   C     C_3   0.305764 0.311388 0.497543 -0.026520
C46   C     C_3   0.096777 0.761890 0.261715 0.389398
C47   C     C_3   0.999876 0.189744 0.689111 0.048071
C48   C     C_3   0.000087 0.810370 0.310817 0.043426
C49   C     C_3   0.050649 0.278973 0.696173 -0.161089
C50   C     C_3   0.947096 0.720752 0.301972 -0.166164
C51   C     C_3   0.352232 0.299522 0.576387 -0.205426
C52   C     C_3   0.699745 0.651814 0.415926 -0.182596
C53   C     C_3   0.283630 0.222894 0.573786 -0.421490
C54   C     C_3   0.765625 0.726327 0.413907 -0.461110
C55   C     C_3   0.233709 0.336648 0.507229 0.514610
C56   C     C_3   0.690026 0.690519 0.500024 -0.023101
C57   C     C_3   0.781259 0.734221 0.586103 0.486447
C58   C     C_1   0.230555 0.219561 0.328306 0.198195
C59   C     C_1   0.630457 0.795215 0.552738 0.215061
C60   C     C_1   0.179991 0.334287 0.426343 0.103134
C61   C     C_1   0.776882 0.780867 0.665626 0.139252
C62   C     C_1   0.912068 0.670277 0.884831 0.272621
C63   C     C_1   0.084949 0.329983 0.117468 0.297562
C64   C     C_1   0.761280 0.476609 0.590175 0.287768
C65   C     C_1   0.244366 0.534318 0.414687 0.292740
C66   C     C_3   0.949450 0.501120 0.720983 -0.285169
C67   C     C_3   0.189455 0.189794 0.501324 0.073046
C68   C     C_3   0.053587 0.505186 0.281049 -0.250033
C69   C     C_1   0.017119 0.277409 0.611559 0.166013
C70   C     C_1   0.975933 0.721351 0.386284 0.172391
C71   C     C_3   0.765757 0.226955 0.675576 -0.380091
C72   C     C_3   0.235177 0.774867 0.324215 -0.380526
C73   C     C_1   0.142196 0.337670 0.920803 0.161117
C74   C     C_1   0.857329 0.662640 0.080821 0.162741
C75   C     C_1   0.400019 0.379224 0.663237 0.269148
C76   C     C_1   0.726486 0.584754 0.407551 0.326128
C77   C     C_3   0.218738 0.448389 0.601155 -0.262315
C78   C     C_3   0.810368 0.812586 0.500587 0.082794
C79   C     C_3   0.887175 0.700667 0.658649 -0.304199
C80   C     C_3   0.172506 0.267650 0.519805 -0.492630
H1    H     H_    0.114815 0.404920 0.813179 0.176746
H2    H     H_    0.893981 0.864216 0.641456 0.145121
H3    H     H_    0.726072 0.631779 0.787278 0.185026
H4    H     H_    0.266700 0.363250 0.217302 0.184585
H5    H     H_    0.795321 0.632422 0.739738 0.191045
H6    H     H_    0.199462 0.372860 0.266422 0.211264
H7    H     H_    0.801148 0.612024 0.894138 0.137868
H8    H     H_    0.196824 0.384435 0.108184 0.136019
H9    H     H_    0.120890 0.296213 0.719039 0.122093
H10   H     H_    0.876618 0.703529 0.275948 0.128481
H11   H     H_    0.620230 0.484409 0.761564 0.214269
H12   H     H_    0.886183 0.593891 0.187312 0.179935
H13   H     H_    0.374969 0.506733 0.233534 0.204436
H14   H     H_    0.711736 0.457576 0.852053 0.219680
H15   H     H_    0.286091 0.536740 0.144084 0.218794
H16   H     H_    0.691519 0.383438 0.612686 0.095477
H17   H     H_    0.313053 0.620801 0.384956 0.097347
H18   H     H_    0.818160 0.408282 0.713137 0.083091
H19   H     H_    0.184413 0.595034 0.286168 0.082038
H20   H     H_    0.591831 0.383632 0.673567 0.164101
H21   H     H_    0.409262 0.610937 0.320843 0.164177
H22   H     H_    0.703036 0.372922 0.761669 0.185087
H23   H     H_    0.309124 0.196889 0.415958 0.164735
H24   H     H_    0.298701 0.624201 0.235076 0.186497
H25   H     H_    0.873621 0.207405 0.771071 0.083723
H26   H     H_    0.125830 0.793655 0.229306 0.082297
H27   H     H_    0.867288 0.103036 0.659407 0.111898
H28   H     H_    0.134701 0.896765 0.344580 0.110236
H29   H     H_    0.868274 0.162187 0.601818 0.226220
H30   H     H_    0.129344 0.833662 0.398141 0.226252
H31   H     H_    0.010269 0.377177 0.732794 0.186296
H32   H     H_    0.991560 0.625520 0.269835 0.186916
H33   H     H_    0.114351 0.208268 0.796243 0.205429
H34   H     H_    0.607481 0.730300 0.426310 0.133184
H35   H     H_    0.888485 0.795829 0.203675 0.206719
H36   H     H_    0.010110 0.134784 0.776740 0.169833
H37   H     H_    0.994493 0.866489 0.224327 0.169028
H38   H     H_    0.016574 0.243955 0.884116 0.135614
H39   H     H_    0.982469 0.754614 0.114453 0.136327
H40   H     H_    0.402905 0.282924 0.569155 0.106630
H41   H     H_    0.634499 0.619396 0.356304 0.114776
H42   H     H_    0.299080 0.168882 0.559359 0.174485
H43   H     H_    0.729724 0.732776 0.357627 0.179090
H44   H     H_    0.286360 0.242390 0.638587 0.181203
H45   H     H_    0.185564 0.090917 0.392483 0.153240
H46   H     H_    0.816702 0.712675 0.403386 0.163152
H47   H     H_    0.184678 0.296350 0.588324 0.173954
H48   H     H_    0.897378 0.776278 0.568391 0.209228
H49   H     H_    0.910027 0.443484 0.653532 0.163271
H50   H     H_    0.978625 0.483912 0.770015 0.194901
H51   H     H_    0.004310 0.551252 0.723265 0.182450
H52   H     H_    0.024059 0.519971 0.229897 0.187936
H53   H     H_    0.093175 0.564553 0.347317 0.158382
H54   H     H_    0.998983 0.456665 0.280578 0.189256
H55   H     H_    0.757094 0.239383 0.734109 0.180212
H56   H     H_    0.715773 0.856285 0.457398 0.188525
H57   H     H_    0.737034 0.155772 0.632226 0.169290
H58   H     H_    0.728633 0.249621 0.637799 0.180935
H59   H     H_    0.262810 0.845640 0.368407 0.167063
H60   H     H_    0.244381 0.764243 0.266149 0.179259
H61   H     H_    0.272987 0.752290 0.361449 0.182796
H62   H     H_    0.216197 0.439646 0.656427 0.158855
H63   H     H_    0.150549 0.413422 0.545263 0.160204
H64   H     H_    0.245906 0.518957 0.623601 0.195291
H65   H     H_    0.931217 0.700868 0.630036 0.183624
H66   H     H_    0.886564 0.656164 0.685158 0.221380
H67   H     H_    0.118456 0.136634 0.359710 0.202266
H68   H     H_    0.916066 0.766691 0.714954 0.149341
H69   H     H_    0.772980 0.897452 0.573221 0.165459
H70   H     H_    0.102003 0.245321 0.477264 0.179067
N1    N     N_1   0.207522 0.219153 0.262423 -0.213638
N2    N     N_1   0.998310 0.721704 0.452152 -0.204152
N3    N     N_1   0.214662 0.389448 0.973904 -0.241968
N4    N     N_1   0.784419 0.611050 0.028999 -0.236273
N5    N     N_1   0.437517 0.441538 0.731258 -0.195763
N6    N     N_1   0.747391 0.532180 0.399732 -0.185576
N7    N     N_1   0.604796 0.822046 0.598570 -0.199065
N8    N     N_1   0.136551 0.331212 0.363220 -0.187774
N9    N     N_1   0.773975 0.817057 0.727846 -0.205680
N10   N     N_1   0.982644 0.727443 0.917040 -0.206250
N11   N     N_1   0.013838 0.273902 0.085584 -0.187528
N12   N     N_1   0.779082 0.491696 0.541108 -0.146826
N13   N     N_1   0.228947 0.524351 0.466997 -0.193441
N14   N     N_1   0.990824 0.276371 0.545504 -0.214596
O1    O     O_R   0.592570 0.552270 0.644860 -0.622705
O2    O     O_R   0.407350 0.552250 0.459650 -0.628966
O3    O     O_R   0.407370 0.459660 0.552260 -0.555467
O4    O     O_R   0.592630 0.540340 0.447740 -0.613579
O5    O     O_R   0.407450 0.355140 0.447760 -0.641859
O6    O     O_R   0.592550 0.644860 0.552240 -0.616570
O7    O     O_R   0.052270 0.092540 0.644860 -0.636748
O8    O     O_R   0.947730 0.907460 0.355140 -0.634099
O9    O     O_R   0.947710 0.092600 0.540380 -0.616861
O10   O     O_R   0.052290 0.907400 0.459620 -0.616981
O11   O     O_R   0.144880 0.092570 0.552230 -0.635530
O12   O     O_R   0.407430 0.447730 0.355140 -0.632402
O13   O     O_R   0.855120 0.907430 0.447770 -0.633455
O14   O     O_R   0.040310 0.092630 0.447750 -0.621795
O15   O     O_R   0.959690 0.907370 0.552250 -0.627206
O16   O     O_R   0.052260 0.644880 0.092510 -0.638013
O17   O     O_R   0.947740 0.355120 0.907490 -0.639411
O18   O     O_3   0.898670 0.536852 0.742979 -0.598242
O19   O     O_3   0.104365 0.468393 0.261093 -0.580752
O20   O     O_3   0.855647 0.274144 0.701458 -0.620076
O21   O     O_3   0.145257 0.725907 0.297367 -0.623047
O22   O     O_3   0.276640 0.422413 0.580685 -0.582158
O23   O     O_R   0.947720 0.540390 0.092600 -0.638426
O24   O     O_3   0.800300 0.667865 0.591924 -0.619006
O25   O     O_R   0.052280 0.459610 0.907400 -0.638635
O26   O     O_R   0.959660 0.552230 0.907350 -0.587872
O27   O     O_R   0.040340 0.447770 0.092650 -0.592842
O28   O     O_R   0.855120 0.447750 0.907440 -0.631509
O29   O     O_R   0.144880 0.552250 0.092560 -0.629771
O30   O     O_R   0.592650 0.447750 0.540350 -0.628515
Zn1   Zn    Zn3+2 0.499940 0.569790 0.569780 1.015329
Zn2   Zn    Zn3+2 0.500060 0.430210 0.430220 0.961126
Zn3   Zn    Zn3+2 0.069820 0.999960 0.569760 0.941004
Zn4   Zn    Zn3+2 0.930180 0.000040 0.430240 0.948322
Zn5   Zn    Zn3+2 0.069800 0.569760 0.999940 0.956779
Zn6   Zn    Zn3+2 0.930200 0.430240 0.000060 0.959784

loop_
_geom_bond_atom_site_label_1
_geom_bond_atom_site_label_2
_ccdc_geom_bond_type
C11   H16   S    
C23   C58   S    
O30   Zn2   S    
C54   H43   S    
C68   O19   S    
C34   C56   S    
C23   C45   S    
C24   H19   S    
C3    C23   S    
C69   N14   T    
C24   O19   S    
C27   O9    A    
C2    C57   S    
C47   C49   S    
C13   C65   S    
C44   H25   S    
C3    H67   S    
C4    H69   S    
C54   H46   S    
C19   C24   S    
C33   O28   A    
C22   H18   S    
C68   H53   S    
C19   C21   S    
C51   C75   S    
C38   C42   S    
C53   H42   S    
C61   N9    T    
C25   C40   S    
C71   H55   S    
O6    Zn1   S    
C5    H3    S    
C11   C14   S    
C79   H65   S    
C20   H22   S    
C45   C51   S    
C16   O3    A    
C40   C49   S    
C56   C57   S    
C74   N4    T    
C36   C47   S    
C55   O22   S    
C68   H52   S    
C77   H62   S    
O11   Zn3   S    
C57   O24   S    
C6    C15   S    
C29   C67   S    
C21   H24   S    
C16   O5    A    
C28   O8    A    
C72   H59   S    
C7    H7    S    
C42   C73   S    
C41   H32   S    
C50   H10   S    
C26   C43   S    
C30   O15   A    
O8    Zn4   S    
C71   O20   S    
O5    Zn2   S    
C66   H50   S    
C44   O20   S    
C4    H56   S    
C66   H49   S    
C5    H5    S    
O25   Zn5   S    
C43   C74   S    
C48   C50   S    
C66   O18   S    
C26   C31   S    
C49   C69   S    
C55   C60   S    
C36   H27   S    
C13   H17   S    
C77   O22   S    
C9    H11   S    
C29   O11   A    
O1    Zn1   S    
C25   C44   S    
C52   C54   S    
O26   Zn5   S    
C40   H31   S    
C10   C21   S    
C72   H61   S    
C4    C34   S    
C8    C19   S    
C6    H4    S    
C79   O24   S    
C32   O17   A    
C60   N8    T    
C70   N2    T    
O2    Zn1   S    
C37   H28   S    
C71   H57   S    
C11   C64   S    
C5    C7    S    
C38   H33   S    
C26   C46   S    
C17   O6    A    
C42   H38   S    
C39   C43   S    
C21   H15   S    
C10   H13   S    
C39   H37   S    
C76   N6    T    
C13   C24   S    
C33   O26   A    
C51   C53   S    
C16   C45   S    
C80   H70   S    
C9    C14   S    
C77   H63   S    
C7    C62   S    
C4    C78   S    
C2    C78   S    
C38   H36   S    
C52   H41   S    
C9    C20   S    
C12   C15   S    
C1    O1    A    
C7    C18   S    
C65   N13   T    
C51   H40   S    
C38   C47   S    
C71   H58   S    
O12   Zn2   S    
C37   C48   S    
C17   C56   S    
C5    C14   S    
C23   H23   S    
C9    H20   S    
C39   H35   S    
C29   O14   A    
C13   C15   S    
C34   C59   S    
C62   N10   T    
C36   C44   S    
C37   H30   S    
C31   O23   A    
C27   O7    A    
C41   C50   S    
C58   N1    T    
C66   H51   S    
C27   C47   S    
C63   N11   T    
C20   H14   S    
C28   C48   S    
O10   Zn3   S    
C35   O27   A    
O9    Zn4   S    
C18   C22   S    
O3    Zn1   S    
C40   H1    S    
C10   H21   S    
C3    C67   S    
C67   C80   S    
C49   H9    S    
C52   C76   S    
C53   H44   S    
C25   C42   S    
C6    C8    S    
C3    H45   S    
C57   C61   S    
C79   H68   S    
C80   H47   S    
C34   H34   S    
O15   Zn3   S    
O23   Zn6   S    
C11   C22   S    
C6    H6    S    
C12   O12   A    
C31   O16   A    
C10   C15   S    
C68   H54   S    
C1    O30   A    
C50   C70   S    
C77   H64   S    
O27   Zn6   S    
O7    Zn3   S    
O16   Zn5   S    
O29   Zn5   S    
C12   O2    A    
C55   C80   S    
C59   N7    T    
C28   O10   A    
C25   C32   S    
C46   H26   S    
C30   O13   A    
C32   O25   A    
C64   N12   T    
C18   C20   S    
O28   Zn6   S    
C46   O21   S    
O14   Zn4   S    
C53   C67   S    
C18   C33   S    
C72   O21   S    
C2    H2    S    
C35   O29   A    
C8    C63   S    
C30   C78   S    
C75   N5    T    
C72   H60   S    
C41   H12   S    
C45   C55   S    
C22   O18   S    
O4    Zn2   S    
C73   N3    T    
C36   H29   S    
C17   O4    A    
C19   C35   S    
C1    C14   S    
C8    H8    S    
C37   C46   S    
O17   Zn6   S    
O13   Zn4   S    
C52   C56   S    
C26   C41   S    
C43   H39   S    
C39   C48   S    
C54   C78   S    
C79   H66   S    
C2    H48   S    
