data_mof_unit_15624.cif
_audit_creation_date              2013-03-05T15:44:28-0500
_audit_creation_method            fapswitch 2.2
_symmetry_space_group_name_H-M    P1
_symmetry_Int_Tables_number       1
_space_group_crystal_system       triclinic
_cell_length_a                    19.984353
_cell_length_b                    7.217498
_cell_length_c                    19.761045
_cell_angle_alpha                 90.000764
_cell_angle_beta                  98.230667
_cell_angle_gamma                 89.999557
_cell_volume                      2820.9158535

loop_
_atom_site_label
_atom_site_type_symbol
_atom_site_description
_atom_site_fract_x
_atom_site_fract_y
_atom_site_fract_z
_atom_type_partial_charge
O1    O     O_R   0.673210 0.377390 0.686390 -0.525101
O2    O     O_R   0.326790 0.622610 0.313610 -0.525281
O3    O     O_R   0.826790 0.877390 0.813610 -0.525129
O4    O     O_R   0.173210 0.122610 0.186390 -0.525341
O5    O     O_R   0.810750 0.706450 0.681250 -0.520552
O6    O     O_R   0.189250 0.293550 0.318750 -0.518343
O7    O     O_R   0.689250 0.206450 0.818750 -0.520561
O8    O     O_R   0.310750 0.793550 0.181250 -0.518398
C1    C     C_R   0.831198 0.538414 0.665419 0.923560
C2    C     C_R   0.168963 0.461573 0.334557 0.923095
C3    C     C_R   0.668800 0.038416 0.834580 0.923570
C4    C     C_R   0.331032 0.961569 0.165438 0.923162
O9    O     O_R   0.672750 0.707060 0.678240 -0.518653
O10   O     O_R   0.327250 0.292940 0.321760 -0.525533
O11   O     O_R   0.827250 0.207060 0.821760 -0.518594
O12   O     O_R   0.172750 0.792940 0.178240 -0.525893
O13   O     O_R   0.687800 0.877990 0.810580 -0.499594
O14   O     O_R   0.312200 0.122010 0.189420 -0.509451
O15   O     O_R   0.812200 0.377990 0.689420 -0.499621
O16   O     O_R   0.187800 0.622010 0.310580 -0.509440
C5    C     C_R   0.648596 0.539280 0.661128 0.922566
C6    C     C_R   0.350913 0.461118 0.339237 0.921767
C7    C     C_R   0.851407 0.039283 0.838874 0.922571
C8    C     C_R   0.149114 0.961130 0.160733 0.921768
O17   O     O_3   0.755100 0.544060 0.793420 -0.248064
O18   O     O_3   0.244900 0.455940 0.206580 -0.248996
O19   O     O_3   0.744900 0.044060 0.706580 -0.248046
O20   O     O_3   0.255100 0.955940 0.293420 -0.248650
V1    V     V_3+5 0.749050 0.818670 0.741950 1.416447
V2    V     V_3+5 0.250950 0.181330 0.258050 1.409858
V3    V     V_3+5 0.750950 0.318670 0.758050 1.416452
V4    V     V_3+5 0.249050 0.681330 0.241950 1.409667
C9    C     C_R   0.087890 0.965035 0.107963 -0.261155
C10   C     C_R   0.912213 0.038597 0.892630 -0.267341
C11   C     C_R   0.412144 0.464961 0.392009 -0.260834
C12   C     C_R   0.587791 0.538571 0.607379 -0.267323
C13   C     C_R   0.016357 0.195200 0.941761 0.361358
C14   C     C_R   0.978323 0.828339 0.064691 0.358697
C15   C     C_R   0.483611 0.695014 0.558300 0.360930
C16   C     C_R   0.521585 0.327807 0.435427 0.358694
C17   C     C_R   0.961234 0.176312 0.890070 0.568840
C18   C     C_R   0.034780 0.843788 0.115195 0.570877
C19   C     C_R   0.538744 0.676166 0.609969 0.569172
C20   C     C_R   0.465132 0.343177 0.384924 0.570864
C21   C     C_R   0.919009 0.915187 0.948738 0.288659
C22   C     C_R   0.083626 0.078502 0.049324 0.282199
C23   C     C_R   0.580984 0.415108 0.551291 0.288712
C24   C     C_R   0.416519 0.579006 0.450497 0.282064
C25   C     C_R   0.973619 0.936337 0.003819 -0.192523
C26   C     C_R   0.024990 0.071536 0.998371 -0.194091
C27   C     C_R   0.526359 0.436186 0.496215 -0.192244
C28   C     C_R   0.475039 0.571634 0.501595 -0.194503
C29   C     C_R   0.570642 0.167674 0.885767 0.632818
C30   C     C_R   0.432631 0.840944 0.118541 0.651342
C31   C     C_R   0.929349 0.667676 0.614229 0.632812
C32   C     C_R   0.067373 0.340922 0.381464 0.651317
C33   C     C_R   0.619744 0.028765 0.884653 -0.260633
C34   C     C_R   0.380468 0.971869 0.116091 -0.254794
C35   C     C_R   0.880252 0.528759 0.615344 -0.260649
C36   C     C_R   0.119520 0.471890 0.383898 -0.254748
C37   C     C_R   0.621163 0.878839 0.930429 0.619839
C38   C     C_R   0.376130 0.115233 0.067533 0.618411
C39   C     C_R   0.878834 0.378828 0.569570 0.619820
C40   C     C_R   0.123829 0.615325 0.432428 0.618615
C41   C     C_R   0.576065 0.870653 0.979496 -0.120144
C42   C     C_R   0.425085 0.133464 0.022670 -0.113036
C43   C     C_R   0.923931 0.370644 0.520501 -0.120150
C44   C     C_R   0.074890 0.633509 0.477309 -0.113093
C45   C     C_R   0.525267 0.008602 0.978596 -0.131873
C46   C     C_R   0.476985 0.998083 0.024720 -0.142823
C47   C     C_R   0.974723 0.508606 0.521398 -0.131866
C48   C     C_R   0.023002 0.498097 0.475270 -0.142816
C49   C     C_R   0.522466 0.156686 0.931304 -0.084863
C50   C     C_R   0.480250 0.850814 0.072435 -0.096444
C51   C     C_R   0.977521 0.656695 0.568688 -0.084854
C52   C     C_R   0.019747 0.350807 0.427563 -0.096413
C53   C     C_R   0.579442 0.726385 0.028627 0.299471
C54   C     C_R   0.422994 0.280701 0.974834 0.306950
C55   C     C_R   0.920558 0.226366 0.471373 0.299440
C56   C     C_R   0.076985 0.780730 0.525155 0.306942
C57   C     C_R   0.531457 0.716669 0.073703 0.640507
C58   C     C_R   0.471483 0.291429 0.930306 0.627264
C59   C     C_R   0.968547 0.216647 0.426300 0.640547
C60   C     C_R   0.028500 0.791445 0.569686 0.627264
N1    N     N_R   0.142480 0.180436 0.037529 0.118750
O21   O     O_R   0.178798 0.122099 0.992211 -0.234893
O22   O     O_R   0.160188 0.330241 0.072115 -0.236344
N2    N     N_R   0.871292 0.766876 0.948403 0.129297
O23   O     O_R   0.889776 0.597752 0.937783 -0.267200
O24   O     O_R   0.807950 0.802671 0.951182 -0.250767
N3    N     N_R   0.357894 0.682523 0.461868 0.118918
O25   O     O_R   0.320442 0.623762 0.506125 -0.235023
O26   O     O_R   0.341214 0.833362 0.427524 -0.237349
N4    N     N_R   0.628734 0.266882 0.551631 0.129233
O27   O     O_R   0.610365 0.097835 0.562554 -0.266962
O28   O     O_R   0.692039 0.302798 0.548697 -0.250803
F1    F     F_    0.037118 0.740802 0.173133 -0.611562
F2    F     F_    0.955052 0.297509 0.836818 -0.611515
F3    F     F_    0.462712 0.239667 0.327102 -0.611626
F4    F     F_    0.544848 0.797164 0.663283 -0.611500
N5    N     N_R   0.059053 0.353627 0.938786 0.162950
O29   O     O_R   0.055011 0.490799 0.980722 -0.294730
O30   O     O_R   0.090077 0.378332 0.885923 -0.177003
N6    N     N_R   0.924226 0.711356 0.079175 0.163071
O31   O     O_R   0.868633 0.786080 0.093340 -0.202401
O32   O     O_R   0.935592 0.536674 0.092503 -0.217439
N7    N     N_R   0.440698 0.852805 0.561567 0.163148
O33   O     O_R   0.445422 0.992104 0.520731 -0.293629
O34   O     O_R   0.408873 0.874725 0.614026 -0.177257
N8    N     N_R   0.575575 0.210277 0.421053 0.163021
O35   O     O_R   0.631156 0.284455 0.406614 -0.202193
O36   O     O_R   0.564083 0.035483 0.408053 -0.218114
F5    F     F_    0.568194 0.309419 0.840150 -0.585094
F6    F     F_    0.437083 0.704976 0.166619 -0.581445
F7    F     F_    0.931796 0.809424 0.659845 -0.585118
F8    F     F_    0.062939 0.204903 0.333405 -0.581345
F9    F     F_    0.666044 0.739798 0.925881 -0.586380
F10   F     F_    0.322104 0.231000 0.062848 -0.582673
F11   F     F_    0.833955 0.239783 0.574119 -0.586389
F12   F     F_    0.177804 0.731255 0.437055 -0.582594
N9    N     N_R   0.633370 0.593418 0.036273 0.176396
O37   O     O_R   0.695077 0.648212 0.056236 -0.167125
O38   O     O_R   0.619719 0.417185 0.036349 -0.289437
N10   N     N_R   0.372508 0.423052 0.970865 0.167733
O39   O     O_R   0.371743 0.537298 0.021612 -0.283003
O40   O     O_R   0.335415 0.458882 0.912723 -0.183563
N11   N     N_R   0.866633 0.093392 0.463727 0.176395
O41   O     O_R   0.804925 0.148179 0.443766 -0.167157
O42   O     O_R   0.880288 0.917162 0.463647 -0.289439
N12   N     N_R   0.127489 0.923034 0.529152 0.167780
O43   O     O_R   0.128227 0.037457 0.478454 -0.283007
O44   O     O_R   0.164621 0.958655 0.587291 -0.183603
F13   F     F_    0.536410 0.576405 0.120065 -0.562071
F14   F     F_    0.468736 0.437378 0.886506 -0.578689
F15   F     F_    0.963600 0.076368 0.379943 -0.561987
F16   F     F_    0.031255 0.937377 0.613496 -0.578720

loop_
_geom_bond_atom_site_label_1
_geom_bond_atom_site_label_2
_geom_bond_distance
_ccdc_geom_bond_type
C34   C38   1.405394 A    
C47   C51   1.415575 A    
O1    C5    1.336462 A    
N5    O29   1.301006 A    
C32   C52   1.410331 A    
C31   C35   1.405230 A    
O19   V1    1.767813 S    
O13   V1    1.999033 S    
O3    C7    1.336502 A    
C56   C60   1.401190 A    
O15   V3    1.999048 S    
N6    O32   1.301300 A    
C5    C12   1.495055 S    
N1    O21   1.300825 A    
O7    C3    1.331291 A    
C6    C11   1.490040 S    
C9    C18   1.398625 A    
C40   C44   1.417281 A    
O9    V1    2.002327 S    
O7    V3    2.009649 S    
C14   C18   1.399656 A    
C46   C50   1.416171 A    
C30   C34   1.402682 A    
O4    C8    1.333184 A    
C20   F3    1.360226 S    
C51   C60   1.406572 A    
O1    V3    1.992137 S    
C12   C23   1.413432 A    
O2    V4    1.992139 S    
C33   C37   1.408064 A    
O3    V1    1.992138 S    
N8    O35   1.300994 A    
C14   N6    1.432544 S    
C13   N5    1.432944 S    
C30   C50   1.410329 A    
C1    O15   1.327139 A    
C3    O13   1.327142 A    
C2    O16   1.325960 A    
C24   N3    1.434098 S    
O2    C6    1.333243 A    
N7    O33   1.301059 A    
C45   C49   1.415574 A    
O14   V2    1.999033 S    
C21   C25   1.434922 A    
C54   N10   1.434223 S    
C16   C20   1.399540 A    
C59   F15   1.359435 S    
C44   C48   1.421311 A    
N4    O28   1.300782 A    
C22   N1    1.434396 S    
C4    C34   1.486039 S    
O11   C7    1.329301 A    
C15   C28   1.422305 A    
O12   C8    1.330260 A    
C9    C22   1.411520 A    
N7    O34   1.301116 A    
C45   C46   1.421029 A    
C10   C17   1.401585 A    
O10   V2    2.002324 S    
C11   C24   1.411403 A    
C52   C59   1.406369 A    
N6    O31   1.300985 A    
C29   F5    1.359779 S    
O5    V1    2.009630 S    
N1    O22   1.300810 A    
C42   C54   1.418932 A    
C39   C43   1.416380 A    
C41   C53   1.418676 A    
C38   C42   1.417294 A    
C37   F9    1.357443 S    
C27   C28   1.431793 A    
O8    V4    2.009648 S    
C21   N2    1.432973 S    
C56   N12   1.434209 S    
C19   F4    1.360387 S    
C18   F1    1.360221 S    
N3    O25   1.300901 A    
C14   C25   1.425133 A    
C29   C33   1.405239 A    
O18   V4    1.767796 S    
C15   C19   1.397444 A    
C32   C36   1.402686 A    
C1    C35   1.490901 S    
C58   F14   1.359487 S    
N12   O44   1.300995 A    
N11   O42   1.300936 A    
O5    C1    1.331286 A    
N3    O26   1.300841 A    
C39   F11   1.357450 S    
C54   C58   1.401216 A    
C53   C57   1.400908 A    
O8    C4    1.329956 A    
C7    C10   1.495157 S    
C32   F8    1.359931 S    
O9    C5    1.329293 A    
C48   C52   1.416171 A    
C10   C21   1.413534 A    
O11   V3    2.002330 S    
C11   C20   1.398564 A    
N9    O37   1.301321 A    
O6    V2    2.009629 S    
N2    O24   1.300781 A    
C50   C57   1.406362 A    
C44   C56   1.418936 A    
C49   C58   1.406582 A    
N10   O40   1.301000 A    
O16   V4    1.999048 S    
C55   N11   1.434808 S    
C2    C36   1.486061 S    
C60   F16   1.359486 S    
O17   V3    1.767796 S    
C29   C49   1.411031 A    
O6    C2    1.329976 A    
C23   C27   1.434981 A    
C57   F13   1.359437 S    
O12   V4    2.002330 S    
C16   C27   1.425178 A    
C22   C26   1.432365 A    
C35   C39   1.408063 A    
C8    C9    1.489944 S    
C40   F12   1.357834 S    
C36   C40   1.405407 A    
O10   C6    1.330229 A    
O20   V2    1.767811 S    
N12   O43   1.300069 A    
C31   C51   1.411012 A    
C47   C48   1.421025 A    
C55   C59   1.400910 A    
C13   C26   1.422169 A    
C42   C46   1.421310 A    
C31   F7    1.359777 S    
C41   C45   1.420208 A    
C30   F6    1.359935 S    
C23   N4    1.432943 S    
C43   C47   1.420211 A    
C13   C17   1.397615 A    
N4    O27   1.301032 A    
C15   N7    1.432643 S    
N8    O36   1.301307 A    
C16   N8    1.432517 S    
N9    O38   1.300937 A    
C53   N9    1.434805 S    
C37   C41   1.416378 A    
C24   C28   1.432494 A    
N2    O23   1.301025 A    
N5    O30   1.301085 A    
C25   C26   1.431560 A    
C4    O14   1.325970 A    
C17   F2    1.360372 S    
C12   C19   1.401414 A    
C3    C33   1.490923 S    
C43   C55   1.418675 A    
O4    V2    1.992138 S    
C38   F10   1.357854 S    
N11   O41   1.301321 A    
N10   O39   1.300070 A    
