data_mof_unit_21035.cif
_audit_creation_date              2012-12-10T19:47:24-0500
_audit_creation_method            fapswitch 2.2
_symmetry_space_group_name_H-M    P1
_symmetry_Int_Tables_number       1
_space_group_crystal_system       triclinic
_cell_length_a                    10.884177
_cell_length_b                    10.814547
_cell_length_c                    12.719471
_cell_angle_alpha                 92.649964
_cell_angle_beta                  92.119634
_cell_angle_gamma                 89.992128
_cell_volume                      1494.55022401

loop_
_atom_site_label
_atom_site_type_symbol
_atom_type_description
_atom_site_fract_x
_atom_site_fract_y
_atom_site_fract_z
_atom_type_partial_charge
C1    C     C_R   0.261858 0.500174 0.501499 0.804051
C2    C     C_R   0.738138 0.499738 0.498495 0.804248
C3    C     C_R   0.494894 0.871660 0.498608 -0.062053
C4    C     C_R   0.505270 0.128348 0.501406 -0.061525
C5    C     C_R   0.431349 0.934776 0.418734 0.011230
C6    C     C_R   0.568792 0.065236 0.581314 0.011624
C7    C     C_R   0.192589 0.481715 0.871139 -0.107452
C8    C     C_R   0.807937 0.516686 0.128425 -0.107329
C9    C     C_R   0.143557 0.457742 0.769301 -0.190021
C10   C     C_R   0.857286 0.541060 0.230104 -0.190279
C11   C     C_R   0.125030 0.554808 0.700885 0.049757
C12   C     C_R   0.874894 0.444481 0.299149 0.049973
C13   C     C_R   0.157116 0.676674 0.735513 0.411744
C14   C     C_R   0.841612 0.322686 0.265269 0.412241
C15   C     C_R   0.207508 0.699592 0.837431 -0.175165
C16   C     C_R   0.790844 0.299395 0.163532 -0.174834
C17   C     C_R   0.224348 0.602445 0.905154 -0.210608
C18   C     C_R   0.774910 0.396050 0.095201 -0.210899
C19   C     C_R   0.937129 0.528386 0.591223 -0.220206
C20   C     C_R   0.062862 0.471359 0.408737 -0.220856
C21   C     C_R   0.871691 0.499990 0.496316 -0.071460
C22   C     C_R   0.128298 0.499768 0.503657 -0.071763
C23   C     C_R   0.503321 0.262010 0.500709 0.801847
C24   C     C_R   0.496751 0.737994 0.499295 0.801912
C25   C     C_R   0.935563 0.471807 0.403589 0.053996
C26   C     C_R   0.064414 0.527844 0.596385 0.053998
C27   C     C_2   0.481206 0.453345 0.030127 0.266902
C28   C     C_2   0.518839 0.546580 0.969883 0.267288
C29   C     C_1   0.519651 0.528773 0.852676 0.148395
C30   C     C_1   0.480359 0.471200 0.147327 0.148501
C31   C     C_R   0.826979 0.254818 0.715815 -0.104506
C32   C     C_R   0.172760 0.745358 0.284771 -0.104072
C33   C     C_R   0.748913 0.200192 0.637287 -0.074943
C34   C     C_R   0.250860 0.800211 0.363155 -0.076033
C35   C     C_R   0.648350 0.128422 0.664382 0.103357
C36   C     C_R   0.351622 0.871569 0.335827 0.103172
C37   C     C_R   0.627428 0.111995 0.771159 -0.114065
C38   C     C_R   0.372689 0.887417 0.228989 -0.113615
C39   C     C_R   0.704947 0.168040 0.849559 -0.110867
C40   C     C_R   0.295119 0.831155 0.150739 -0.111081
C41   C     C_R   0.805073 0.238929 0.821821 -0.134996
C42   C     C_R   0.194820 0.760622 0.178693 -0.135295
C43   C     C_R   0.561775 0.937033 0.579218 -0.197953
C44   C     C_R   0.438412 0.062962 0.420783 -0.198077
Cu1   Cu    Cu3+1 0.492140 0.492110 0.395880 0.999587
Cu2   Cu    Cu3+1 0.507860 0.507890 0.604120 0.999453
H1    H     H_    0.866314 0.280851 0.882262 0.127455
H2    H     H_    0.133569 0.718499 0.118359 0.127210
H3    H     H_    0.232664 0.792854 0.864593 0.157069
H4    H     H_    0.764689 0.206205 0.136982 0.156954
H5    H     H_    0.889143 0.550832 0.662874 0.163295
H6    H     H_    0.110859 0.448906 0.337091 0.163295
H7    H     H_    0.905062 0.308537 0.694433 0.132699
H8    H     H_    0.094554 0.691929 0.306332 0.132708
H9    H     H_    0.767459 0.212714 0.555546 0.164788
H10   H     H_    0.232206 0.788173 0.444970 0.164342
H11   H     H_    0.551318 0.055579 0.793286 0.125261
H12   H     H_    0.448973 0.943508 0.206700 0.125414
H13   H     H_    0.687975 0.155677 0.931714 0.131743
H14   H     H_    0.312205 0.843061 0.068536 0.132101
H15   H     H_    0.612525 0.887594 0.639109 0.152085
H16   H     H_    0.387652 0.112376 0.360881 0.151947
H17   H     H_    0.262838 0.620464 0.983881 0.152144
H18   H     H_    0.736117 0.377732 0.016617 0.152553
H19   H     H_    0.205550 0.406703 0.923801 0.161647
H20   H     H_    0.795650 0.591318 0.075284 0.160839
H21   H     H_    0.119078 0.363699 0.743990 0.142685
H22   H     H_    0.882645 0.635045 0.254814 0.142259
N1    N     N_1   0.480320 0.480250 0.239400 -0.157677
N2    N     N_1   0.519680 0.519750 0.760600 -0.157663
O1    O     O_R   0.313000 0.493330 0.412070 -0.591290
O2    O     O_R   0.687000 0.506670 0.587930 -0.591421
O3    O     O_R   0.326280 0.506660 0.587930 -0.564040
O4    O     O_R   0.673720 0.493340 0.412070 -0.564043
O5    O     O_R   0.493370 0.312980 0.412070 -0.582312
O6    O     O_R   0.506630 0.687020 0.587930 -0.582442
O7    O     O_R   0.506650 0.326310 0.587930 -0.563741
O8    O     O_R   0.493350 0.673690 0.412070 -0.563409
Cl1   Cl    Cl    0.133250 0.802137 0.654001 -0.675266
Cl2   Cl    Cl    0.864547 0.197698 0.347426 -0.676172
O9    O     O_3   0.549999 0.659875 0.021840 -0.602383
C45   C     C_3   0.601944 0.744727 0.954722 0.052076
H23   H     H_    0.533064 0.772124 0.893176 0.152120
H24   H     H_    0.684615 0.704272 0.917182 0.140109
C46   C     C_3   0.642029 0.860820 0.018844 -0.786983
H25   H     H_    0.705232 0.836276 0.085224 0.260396
H26   H     H_    0.690489 0.924114 0.967941 0.199159
H27   H     H_    0.560497 0.909315 0.050302 0.233716
O10   O     O_3   0.450128 0.340007 0.978195 -0.602544
C47   C     C_3   0.398708 0.254963 0.045435 0.051615
H28   H     H_    0.315943 0.295075 0.083069 0.140220
H29   H     H_    0.467829 0.227901 0.106909 0.152089
C48   C     C_3   0.359013 0.138659 0.981434 -0.787097
H30   H     H_    0.440694 0.090480 0.949930 0.233767
H31   H     H_    0.310926 0.075218 0.032453 0.199113
H32   H     H_    0.295600 0.162855 0.915091 0.260284

loop_
_geom_bond_atom_site_label_1
_geom_bond_atom_site_label_2
_ccdc_geom_bond_type
C33   H9    S    
C13   Cl1   S    
C34   H10   S    
C48   H30   S    
C40   H14   S    
Cu1   O1    S    
Cu2   O6    S    
O9    C45   S    
C39   C41   A    
Cu1   Cu2   S    
C8    H20   S    
C3    C43   A    
C1    O1    A    
C28   C29   S    
C19   C21   A    
C16   H4    S    
C20   C25   A    
C5    C36   S    
C6    C35   S    
C7    C9    A    
C19   C26   A    
C38   H12   S    
C7    C17   A    
C31   C33   A    
Cu1   O8    S    
C14   Cl2   S    
Cu2   O2    S    
C2    O4    A    
C40   C42   A    
C1    C22   S    
C48   H31   S    
C27   C30   S    
C3    C24   S    
C2    O2    A    
C32   H8    S    
C46   H26   S    
Cu1   N1    S    
C4    C6    A    
C23   O5    A    
C4    C23   S    
C24   O6    A    
C4    C44   A    
C11   C26   S    
C44   H16   S    
C46   H25   S    
C31   H7    S    
Cu1   O4    S    
C32   C34   A    
C9    H21   S    
C7    H19   S    
C47   H29   S    
C39   H13   S    
C2    C21   S    
C41   H1    S    
C16   C18   A    
C42   H2    S    
C23   O7    A    
C9    C11   A    
C10   C12   A    
C24   O8    A    
C5    C44   A    
C12   C14   A    
C48   H32   S    
C45   H24   S    
C6    C43   A    
C13   C15   A    
C14   C16   A    
C30   N1    T    
C43   H15   S    
C47   C48   S    
C29   N2    T    
C46   H27   S    
C15   C17   A    
C21   C25   A    
C31   C41   A    
C35   C37   A    
C28   O9    S    
C20   C22   A    
C3    C5    A    
Cu2   O7    S    
C10   H22   S    
C45   C46   S    
C20   H6    S    
C12   C25   S    
Cu1   O5    S    
C1    O3    A    
C36   C38   A    
C37   C39   A    
C17   H17   S    
C38   C40   A    
C11   C13   A    
C18   H18   S    
C47   H28   S    
C33   C35   A    
C27   O10   S    
C34   C36   A    
C15   H3    S    
C8    C18   A    
Cu2   N2    S    
C19   H5    S    
C8    C10   A    
C45   H23   S    
C22   C26   A    
C27   C28   D    
C32   C42   A    
O10   C47   S    
Cu2   O3    S    
C37   H11   S    
