data_mof_unit_35820.cif
_audit_creation_date              2013-03-05T16:04:54-0500
_audit_creation_method            fapswitch 2.2
_symmetry_space_group_name_H-M    P1
_symmetry_Int_Tables_number       1
_space_group_crystal_system       triclinic
_cell_length_a                    23.196397
_cell_length_b                    20.058179
_cell_length_c                    14.830338
_cell_angle_alpha                 90.274758
_cell_angle_beta                  100.318577
_cell_angle_gamma                 90.052058
_cell_volume                      6788.5361224

loop_
_atom_site_label
_atom_site_type_symbol
_atom_site_description
_atom_site_fract_x
_atom_site_fract_y
_atom_site_fract_z
_atom_type_partial_charge
O1    O     O_R   0.541320 0.066090 0.608930 -0.628090
O2    O     O_R   0.458680 0.933910 0.391070 -0.636511
O3    O     O_R   0.458680 0.066090 0.391070 -0.611008
O4    O     O_R   0.541320 0.933910 0.608930 -0.614767
O5    O     O_R   0.041320 0.566090 0.608930 -0.626482
O6    O     O_R   0.958680 0.433910 0.391070 -0.636499
O7    O     O_R   0.958680 0.566090 0.391070 -0.612903
O8    O     O_R   0.041320 0.433910 0.608930 -0.615641
O9    O     O_R   0.572880 0.066110 0.470280 -0.579794
O10   O     O_R   0.427120 0.933890 0.529720 -0.546092
O11   O     O_R   0.427120 0.066110 0.529720 -0.561183
O12   O     O_R   0.572880 0.933890 0.470280 -0.598282
O13   O     O_R   0.072880 0.566110 0.470280 -0.580238
O14   O     O_R   0.927120 0.433890 0.529720 -0.546979
O15   O     O_R   0.927120 0.566110 0.529720 -0.560447
O16   O     O_R   0.072880 0.433890 0.470280 -0.598560
C1    C     C_R   0.575882 0.087238 0.554698 0.956457
C2    C     C_R   0.425982 0.909988 0.447199 0.909751
C3    C     C_R   0.423423 0.086618 0.444881 0.934355
C4    C     C_R   0.575373 0.912177 0.554097 0.927319
C5    C     C_R   0.075973 0.587072 0.554803 0.958242
C6    C     C_R   0.925898 0.410095 0.447116 0.908537
C7    C     C_R   0.923319 0.586482 0.444778 0.935151
C8    C     C_R   0.075430 0.412215 0.554143 0.926254
Zn1   Zn    Zn3+2 0.478910 0.000000 0.592580 1.034704
Zn2   Zn    Zn3+2 0.521090 1.000000 0.407420 0.990574
Zn3   Zn    Zn3+2 0.978910 0.500000 0.592580 1.035434
Zn4   Zn    Zn3+2 0.021090 0.500000 0.407420 0.988999
C9    C     C_R   0.610515 0.852952 0.580027 -0.154877
C10   C     C_R   0.377461 0.134409 0.407434 -0.174056
C11   C     C_R   0.387073 0.852895 0.417314 -0.148141
C12   C     C_R   0.627215 0.126359 0.593812 -0.133148
C13   C     C_R   0.110762 0.353114 0.580285 -0.157881
C14   C     C_R   0.877032 0.633826 0.407027 -0.174310
C15   C     C_R   0.886668 0.353385 0.416814 -0.147612
C16   C     C_R   0.127613 0.625419 0.594524 -0.132033
C17   C     C_R   0.603711 0.735466 0.611641 -0.096841
C18   C     C_R   0.349422 0.231304 0.313372 -0.091697
C19   C     C_R   0.324371 0.795459 0.292847 -0.090007
C20   C     C_R   0.717396 0.124894 0.704776 -0.077605
C21   C     C_R   0.104194 0.235625 0.611983 -0.095669
C22   C     C_R   0.847382 0.728617 0.309525 -0.101141
C23   C     C_R   0.823562 0.296925 0.291868 -0.091728
C24   C     C_R   0.218100 0.622175 0.704875 -0.072415
C25   C     C_R   0.585616 0.800623 0.621932 -0.225901
C26   C     C_R   0.388348 0.179843 0.341236 -0.208415
C27   C     C_R   0.366864 0.843045 0.323779 -0.244719
C28   C     C_R   0.658417 0.108445 0.680027 -0.205498
C29   C     C_R   0.085961 0.300732 0.622209 -0.224070
C30   C     C_R   0.886455 0.677303 0.337589 -0.200069
C31   C     C_R   0.866084 0.344354 0.323237 -0.245765
C32   C     C_R   0.159356 0.605047 0.679246 -0.204451
C33   C     C_R   0.659725 0.841244 0.539794 0.249292
C34   C     C_R   0.324065 0.136561 0.439918 0.285274
C35   C     C_R   0.367854 0.810153 0.481455 0.287413
C36   C     C_R   0.653575 0.167019 0.536237 0.235540
C37   C     C_R   0.160188 0.341553 0.540478 0.250093
C38   C     C_R   0.824250 0.636825 0.441196 0.286171
C39   C     C_R   0.867519 0.310252 0.480543 0.285966
C40   C     C_R   0.153612 0.667678 0.538355 0.233756
C41   C     C_R   0.670580 0.775143 0.513900 -0.021159
C42   C     C_R   0.283464 0.188503 0.411084 -0.030243
C43   C     C_R   0.326460 0.759269 0.450303 -0.025608
C44   C     C_R   0.715353 0.171191 0.552555 -0.009407
C45   C     C_R   0.171328 0.275458 0.514760 -0.021122
C46   C     C_R   0.783662 0.688698 0.412324 -0.027697
C47   C     C_R   0.825947 0.259641 0.448943 -0.026097
C48   C     C_R   0.215332 0.672794 0.555153 -0.006818
C49   C     C_R   0.643446 0.721370 0.552849 -0.010519
C50   C     C_R   0.298146 0.238209 0.350502 -0.004932
C51   C     C_R   0.301824 0.755018 0.355291 0.007646
C52   C     C_R   0.747464 0.153127 0.639931 0.003663
C53   C     C_R   0.143993 0.221618 0.553258 -0.012054
C54   C     C_R   0.798300 0.738123 0.351364 -0.014577
C55   C     C_R   0.801257 0.255872 0.353880 0.008943
C56   C     C_R   0.247354 0.655162 0.642771 -0.000172
C57   C     C_R   0.708117 0.761086 0.451084 0.036915
C58   C     C_R   0.231955 0.197040 0.448890 0.017489
C59   C     C_R   0.303413 0.717858 0.512315 0.022539
C60   C     C_R   0.745946 0.193280 0.484244 0.044447
C61   C     C_R   0.208956 0.261504 0.451986 0.038428
C62   C     C_R   0.731871 0.696952 0.449435 0.018542
C63   C     C_R   0.803054 0.217728 0.510545 0.021115
C64   C     C_R   0.246006 0.694233 0.486537 0.044337
C65   C     C_R   0.201912 0.143966 0.481756 -0.155781
C66   C     C_R   0.720311 0.808039 0.386829 -0.175894
C67   C     C_R   0.722682 0.187435 0.390165 -0.171439
C68   C     C_R   0.335403 0.699011 0.598201 -0.150080
C69   C     C_R   0.702039 0.643789 0.482570 -0.158413
C70   C     C_R   0.221173 0.308647 0.387973 -0.181946
C71   C     C_R   0.222691 0.687922 0.392482 -0.170058
C72   C     C_R   0.835246 0.198169 0.595979 -0.147530
C73   C     C_R   0.157396 0.155407 0.532059 0.287784
C74   C     C_R   0.763826 0.796270 0.334889 0.320539
C75   C     C_R   0.751940 0.214651 0.324338 0.306434
C76   C     C_R   0.308196 0.667822 0.663546 0.302750
C77   C     C_R   0.657189 0.655151 0.532265 0.288352
C78   C     C_R   0.263201 0.295990 0.333475 0.313005
C79   C     C_R   0.252223 0.714122 0.326275 0.305209
C80   C     C_R   0.808589 0.164114 0.659652 0.297327
H1    H     H_    0.428992 0.178058 0.314917 0.209447
H2    H     H_    0.549798 0.809598 0.658100 0.225774
H3    H     H_    0.638083 0.078537 0.726379 0.166400
H4    H     H_    0.380993 0.875723 0.274655 0.178157
H5    H     H_    0.925845 0.673839 0.308096 0.206535
H6    H     H_    0.050055 0.309606 0.658224 0.226207
H7    H     H_    0.139731 0.572378 0.723357 0.164642
H8    H     H_    0.880017 0.377503 0.274485 0.177916
H9    H     H_    0.583989 0.696419 0.645979 0.213000
H10   H     H_    0.362105 0.267998 0.267428 0.212713
H11   H     H_    0.306765 0.794136 0.220261 0.201326
H12   H     H_    0.739548 0.111892 0.772846 0.201335
H13   H     H_    0.084416 0.196521 0.646139 0.212709
H14   H     H_    0.857533 0.762274 0.257820 0.207774
H15   H     H_    0.805806 0.296112 0.219321 0.199751
H16   H     H_    0.241124 0.604307 0.770100 0.202600
H17   H     H_    0.210316 0.093087 0.463933 0.221029
H18   H     H_    0.696125 0.854356 0.376627 0.180765
H19   H     H_    0.682952 0.159042 0.367493 0.184762
H20   H     H_    0.382158 0.707040 0.614529 0.217490
H21   H     H_    0.710856 0.592898 0.465399 0.221004
H22   H     H_    0.196456 0.354583 0.377534 0.182518
H23   H     H_    0.182742 0.659861 0.370117 0.185570
H24   H     H_    0.882133 0.205431 0.611487 0.216862
N1    N     N_R   0.549130 0.000000 0.284090 -0.108699
N2    N     N_R   0.450870 1.000000 0.715910 -0.123823
N3    N     N_R   0.049130 0.500000 0.284090 -0.109705
N4    N     N_R   0.950870 0.500000 0.715910 -0.123629
C81   C     C_R   0.630392 0.992515 0.207017 -0.197733
C82   C     C_R   0.373014 0.971932 0.793065 -0.214235
C83   C     C_R   0.130330 0.490722 0.207112 -0.215437
C84   C     C_R   0.872792 0.472657 0.792983 -0.217189
C85   C     C_R   0.607869 0.002080 0.286696 0.042746
C86   C     C_R   0.393016 0.988825 0.713658 0.181089
C87   C     C_R   0.107901 0.500947 0.286756 0.049212
C88   C     C_R   0.892961 0.489162 0.713588 0.181276
C89   C     C_R   0.510663 0.989090 0.205573 -0.037470
C90   C     C_R   0.490949 0.995749 0.793850 -0.041539
C91   C     C_R   0.010556 0.489586 0.205545 -0.037912
C92   C     C_R   0.990884 0.495529 0.793898 -0.040396
C93   C     C_R   0.530956 0.973483 0.124016 -0.004343
C94   C     C_R   0.474265 0.972914 0.874929 0.009077
C95   C     C_R   0.030684 0.473401 0.124035 -0.000243
C96   C     C_R   0.973999 0.472965 0.874962 0.009229
C97   C     C_R   0.592013 0.978170 0.125186 0.108180
C98   C     C_R   0.413579 0.963675 0.874028 0.087503
C99   C     C_R   0.091792 0.476995 0.125244 0.102067
C100  C     C_R   0.913248 0.464319 0.874026 0.089543
C101  C     C_R   0.492645 0.957985 0.040618 0.029836
C102  C     C_R   0.514972 0.962603 0.957454 0.035978
C103  C     C_R   0.992220 0.458259 0.040666 0.028757
C104  C     C_R   0.014598 0.462358 0.957499 0.036344
C105  C     C_R   0.576711 0.956709 0.961682 0.142434
C106  C     C_R   0.433077 0.938341 0.035630 0.177576
C107  C     C_R   0.076266 0.455575 0.961715 0.149259
C108  C     C_R   0.932479 0.439353 0.035729 0.178998
C109  C     C_R   0.614274 0.966616 0.045367 -0.136535
C110  C     C_R   0.394110 0.943647 0.952894 -0.153376
C111  C     C_R   0.113928 0.464947 0.045432 -0.144884
C112  C     C_R   0.893589 0.444782 0.952941 -0.157985
H25   H     H_    0.661323 0.964478 0.048299 0.191986
H26   H     H_    0.348296 0.930957 0.949856 0.173457
H27   H     H_    0.160948 0.462035 0.048386 0.188591
H28   H     H_    0.847673 0.432590 0.949910 0.170751
H29   H     H_    0.535388 0.009226 0.790254 0.145611
H30   H     H_    0.464747 0.992974 0.208518 0.149831
H31   H     H_    0.035422 0.508632 0.790384 0.145798
H32   H     H_    0.964683 0.494201 0.208449 0.148718
H33   H     H_    0.362857 0.990048 0.649265 0.216669
H34   H     H_    0.637227 0.010062 0.351228 0.168625
H35   H     H_    0.862863 0.490395 0.649184 0.216645
H36   H     H_    0.137343 0.508426 0.351331 0.172199
H37   H     H_    0.677316 0.995241 0.209629 0.204849
H38   H     H_    0.326644 0.963101 0.790519 0.184370
H39   H     H_    0.177277 0.492450 0.209728 0.209356
H40   H     H_    0.826364 0.464197 0.790377 0.182540
N5    N     N_R   0.126479 0.099333 0.560378 0.211374
O17   O     O_R   0.154574 0.044588 0.586273 -0.300225
O18   O     O_R   0.069460 0.098589 0.544980 -0.344235
N6    N     N_R   0.775518 0.846686 0.272230 0.203544
O19   O     O_R   0.732420 0.871697 0.214031 -0.409782
O20   O     O_R   0.826085 0.876743 0.285468 -0.327376
N7    N     N_R   0.729243 0.202848 0.228831 0.202101
O21   O     O_R   0.673024 0.197081 0.200416 -0.346585
O22   O     O_R   0.764593 0.186218 0.173590 -0.364575
N8    N     N_R   0.342678 0.652108 0.751300 0.213560
O23   O     O_R   0.395116 0.627777 0.756087 -0.319160
O24   O     O_R   0.326798 0.673908 0.825920 -0.344720
N9    N     N_R   0.626462 0.599029 0.560883 0.210851
O25   O     O_R   0.654734 0.544448 0.587080 -0.303587
O26   O     O_R   0.569447 0.598067 0.545594 -0.345423
N10   N     N_R   0.272053 0.344049 0.265658 0.203148
O27   O     O_R   0.267817 0.407459 0.282180 -0.366625
O28   O     O_R   0.274962 0.324620 0.182755 -0.377833
N11   N     N_R   0.229471 0.701777 0.230916 0.203619
O29   O     O_R   0.173222 0.696346 0.202541 -0.342895
O30   O     O_R   0.264733 0.684386 0.175899 -0.356773
N12   N     N_R   0.844208 0.141654 0.743363 0.210177
O31   O     O_R   0.887131 0.178691 0.784619 -0.320406
O32   O     O_R   0.840864 0.080046 0.769060 -0.330336
C113  C     C_3   0.604301 0.929256 0.884383 -0.852018
H41   H     H_    0.637141 0.890559 0.911013 0.265213
H42   H     H_    0.571818 0.903933 0.831170 0.250861
H43   H     H_    0.627189 0.969616 0.853733 0.236916
C114  C     C_3   0.410725 0.901722 0.110770 -0.908420
H44   H     H_    0.385297 0.857064 0.082229 0.271336
H45   H     H_    0.446873 0.882656 0.163538 0.248968
H46   H     H_    0.381132 0.934906 0.141506 0.233100
C115  C     C_3   0.103557 0.427710 0.884340 -0.853802
H47   H     H_    0.136023 0.388610 0.910878 0.265879
H48   H     H_    0.070817 0.402769 0.831113 0.251064
H49   H     H_    0.126822 0.467753 0.853724 0.235898
C116  C     C_3   0.909794 0.403299 0.111009 -0.913398
H50   H     H_    0.883902 0.358907 0.082648 0.268827
H51   H     H_    0.945776 0.383893 0.163781 0.249616
H52   H     H_    0.880567 0.436999 0.141694 0.232751
N13   N     N_R   0.314517 0.090070 0.508923 0.181462
O33   O     O_R   0.316120 0.110198 0.592903 -0.376433
O34   O     O_R   0.308055 0.026927 0.488948 -0.409140
N14   N     N_R   0.702571 0.893671 0.538572 0.197457
O35   O     O_R   0.758140 0.879116 0.555510 -0.318080
O36   O     O_R   0.687858 0.956251 0.539100 -0.412498
N15   N     N_R   0.618155 0.210612 0.470901 0.205350
O37   O     O_R   0.637707 0.269724 0.456246 -0.314454
O38   O     O_R   0.563035 0.198030 0.440445 -0.379292
N16   N     N_R   0.383673 0.824629 0.577659 0.194771
O39   O     O_R   0.344331 0.846452 0.622973 -0.363344
O40   O     O_R   0.437437 0.816819 0.619773 -0.425212
N17   N     N_R   0.815091 0.590938 0.511119 0.181405
O41   O     O_R   0.816602 0.611797 0.594753 -0.374583
O42   O     O_R   0.808199 0.527711 0.491956 -0.412898
N18   N     N_R   0.202853 0.394174 0.539302 0.198642
O43   O     O_R   0.258472 0.379906 0.556544 -0.324047
O44   O     O_R   0.187881 0.456674 0.539463 -0.417606
N19   N     N_R   0.117903 0.711319 0.473407 0.206332
O45   O     O_R   0.137489 0.770284 0.458103 -0.309870
O46   O     O_R   0.062652 0.698956 0.443899 -0.373635
N20   N     N_R   0.883830 0.323884 0.576906 0.197145
O47   O     O_R   0.844861 0.345484 0.623090 -0.363183
O48   O     O_R   0.937717 0.315713 0.618251 -0.420848

loop_
_geom_bond_atom_site_label_1
_geom_bond_atom_site_label_2
_geom_bond_distance
_ccdc_geom_bond_type
O16   Zn4   1.919436 S    
C18   C50   1.404051 A    
C47   C63   1.415538 A    
C17   C49   1.405602 A    
O2    C2    1.314447 A    
C113  H42   1.109494 S    
C113  H41   1.111301 S    
C54   C74   1.412068 A    
C91   C95   1.408312 A    
N15   O37   1.302145 A    
C53   C73   1.411046 A    
Zn1   N2    2.048066 S    
C99   C111  1.392229 A    
C68   C76   1.397499 A    
O4    Zn1   1.947499 S    
N19   O45   1.302040 A    
C93   C101  1.420622 A    
C20   H12   1.080783 S    
C5    C16   1.454204 S    
C43   C59   1.415677 A    
C116  H50   1.111490 S    
C82   H38   1.083883 S    
C95   C99   1.416136 A    
C6    C15   1.473311 S    
C10   C34   1.407741 A    
O11   C3    1.313764 A    
C62   C69   1.408175 A    
N3    C91   1.350958 A    
C90   H29   1.076028 S    
C112  H28   1.085574 S    
C35   N16   1.436257 S    
N3    C87   1.356870 A    
C106  C110  1.392110 A    
C60   C67   1.407201 A    
C83   C87   1.387757 A    
N4    C88   1.354872 A    
C105  C109  1.396031 A    
C84   H40   1.083889 S    
C59   C64   1.399531 A    
C116  H52   1.109979 S    
C11   C35   1.413384 A    
C82   C98   1.397139 A    
O11   Zn1   1.919434 S    
C13   C29   1.398132 A    
O6    C6    1.314106 A    
C79   N11   1.438352 S    
C115  H49   1.110403 S    
C45   C53   1.424298 A    
C42   C50   1.426468 A    
C15   C39   1.412999 A    
C100  C112  1.387982 A    
N9    O26   1.301320 A    
C94   C98   1.417359 A    
N14   O35   1.302009 A    
C66   C74   1.394693 A    
C23   H15   1.080990 S    
O5    Zn3   1.944121 S    
C65   C73   1.396522 A    
C22   H14   1.080997 S    
O6    Zn4   1.944122 S    
C32   H7    1.083884 S    
C41   C57   1.412095 A    
C31   H8    1.075765 S    
N5    O18   1.301320 A    
C86   H33   1.078378 S    
C35   C43   1.418425 A    
C70   H22   1.082673 S    
C30   H5    1.083493 S    
C103  C104  1.423982 A    
C104  C107  1.427263 A    
O13   Zn4   1.911734 S    
O3    C3    1.306340 A    
N12   O31   1.301398 A    
C114  H44   1.111486 S    
C64   C71   1.407877 A    
O14   Zn3   1.911735 S    
C18   H10   1.081081 S    
C81   C97   1.399029 A    
C16   C32   1.400666 A    
Zn4   N3    2.048064 S    
C96   C100  1.417276 A    
C39   C47   1.418410 A    
O15   C7    1.314097 A    
C24   C32   1.389847 A    
C33   N14   1.448695 S    
C77   N9    1.437651 S    
C23   C31   1.387083 A    
O16   C8    1.310808 A    
C71   H23   1.082912 S    
O1    Zn1   1.944121 S    
N19   O46   1.301162 A    
C72   C80   1.398297 A    
C81   H37   1.083525 S    
C68   H20   1.079835 S    
C82   C86   1.384258 A    
C40   N19   1.450415 S    
C33   C41   1.413906 A    
C60   C63   1.399746 A    
C44   C60   1.409787 A    
C21   C29   1.389033 A    
C89   H30   1.076645 S    
C38   C46   1.419153 A    
O9    Zn2   1.911734 S    
C105  C113  1.511425 S    
C4    C9    1.455138 S    
C114  H45   1.109126 S    
C23   C55   1.403029 A    
C26   H1    1.083619 S    
N20   O48   1.300788 A    
C22   C54   1.403528 A    
C14   C30   1.399164 A    
C55   C75   1.414044 A    
C48   C64   1.410587 A    
C76   N8    1.436765 S    
C107  C115  1.511483 S    
C39   N20   1.436181 S    
C69   C77   1.396759 A    
C92   H31   1.076130 S    
C78   N10   1.437316 S    
C90   C94   1.406076 A    
C21   H13   1.081052 S    
C37   N18   1.448534 S    
C73   N5    1.437603 S    
C34   C42   1.420251 A    
N1    C89   1.350910 A    
N13   O33   1.301577 A    
C103  C108  1.425485 A    
C28   H3    1.083726 S    
C107  C111  1.396025 A    
C102  C105  1.427261 A    
O7    Zn4   1.947497 S    
O12   Zn2   1.919436 S    
Zn2   N1    2.048064 S    
N10   O28   1.301242 A    
N20   O47   1.301385 A    
C65   H17   1.079637 S    
C101  C106  1.425523 A    
N7    O21   1.301524 A    
C67   H19   1.083016 S    
N17   O41   1.301569 A    
C63   C72   1.408270 A    
C115  H48   1.109473 S    
C46   C62   1.417719 A    
C97   C109  1.392187 A    
Zn3   N4    2.048066 S    
O15   Zn3   1.919434 S    
C69   H21   1.079443 S    
C88   H35   1.077814 S    
C108  C112  1.392031 A    
C84   C88   1.384086 A    
C7    C14   1.469571 S    
O12   C4    1.310590 A    
N18   O44   1.301264 A    
C115  H47   1.111301 S    
O13   C5    1.309909 A    
C66   H18   1.082898 S    
C74   N6    1.434735 S    
C87   H36   1.081742 S    
C83   C99   1.398791 A    
C24   H16   1.080721 S    
C59   C68   1.407993 A    
C22   C30   1.387363 A    
C81   C85   1.387533 A    
C61   C70   1.407207 A    
C27   H4    1.075884 S    
C58   C65   1.407765 A    
O9    C1    1.309761 A    
C72   H24   1.080179 S    
C43   C51   1.424628 A    
C57   C66   1.407037 A    
N5    O17   1.301410 A    
N16   O40   1.300862 A    
C85   H34   1.081734 S    
C15   C31   1.395270 A    
O14   C6    1.308157 A    
C113  H43   1.110424 S    
C111  H27   1.085328 S    
C47   C55   1.425105 A    
N8    O24   1.301243 A    
C109  H25   1.085312 S    
C49   C77   1.410954 A    
N6    O19   1.300786 A    
O10   Zn1   1.911735 S    
C34   N13   1.433833 S    
C19   C27   1.387491 A    
C52   C80   1.412353 A    
C114  H46   1.109966 S    
N1    C85   1.356744 A    
N9    O25   1.301424 A    
C1    C12   1.454845 S    
C89   C93   1.408238 A    
C67   C75   1.397648 A    
N2    C90   1.350461 A    
C13   C37   1.399429 A    
C95   C103  1.420445 A    
C20   C52   1.405968 A    
C84   C100  1.396901 A    
C17   H9    1.081048 S    
C42   C58   1.418008 A    
O3    Zn2   1.947497 S    
C92   C96   1.406089 A    
C37   C45   1.414558 A    
C16   C40   1.400669 A    
O2    Zn2   1.944122 S    
C36   N15   1.450084 S    
N12   O32   1.301242 A    
N15   O38   1.301483 A    
C29   H6    1.081400 S    
C98   C110  1.388068 A    
C93   C97   1.416311 A    
N13   O34   1.301733 A    
O1    C1    1.305055 A    
C8    C13   1.455911 S    
C10   C26   1.398230 A    
N14   O36   1.301464 A    
C40   C48   1.412102 A    
C41   C49   1.424136 A    
N10   O27   1.301242 A    
C94   C102  1.421632 A    
N7    O22   1.301290 A    
N4    C92   1.350486 A    
C116  H51   1.109120 S    
C96   C104  1.421401 A    
C38   N17   1.433649 S    
C71   C79   1.398141 A    
C101  C102  1.424012 A    
C56   C76   1.412102 A    
N6    O20   1.301143 A    
C19   H11   1.080968 S    
C48   C56   1.422806 A    
C58   C61   1.402887 A    
C75   N7    1.438347 S    
C36   C44   1.412274 A    
C12   C28   1.400410 A    
C9    C33   1.399050 A    
C57   C62   1.401736 A    
O10   C2    1.308065 A    
O7    C7    1.306169 A    
C83   H39   1.083245 S    
N18   O43   1.301921 A    
O8    C8    1.305036 A    
C12   C36   1.400319 A    
C44   C52   1.422836 A    
C51   C79   1.413987 A    
C91   H32   1.076678 S    
C18   C26   1.386956 A    
C106  C114  1.504742 S    
C25   H2    1.081390 S    
C110  H26   1.085572 S    
C21   C53   1.405667 A    
N11   O29   1.301526 A    
O4    C4    1.304835 A    
O5    C5    1.304389 A    
N2    C86   1.354873 A    
N17   O42   1.301769 A    
N16   O39   1.301393 A    
C9    C25   1.398305 A    
C108  C116  1.504606 S    
C14   C38   1.407674 A    
O8    Zn3   1.947499 S    
C19   C51   1.403255 A    
C45   C61   1.412762 A    
C11   C27   1.395425 A    
C2    C11   1.473919 S    
C24   C56   1.405531 A    
N8    O23   1.301254 A    
C3    C10   1.469305 S    
C17   C25   1.389093 A    
C20   C28   1.390479 A    
C70   C78   1.396002 A    
C50   C78   1.412537 A    
C80   N12   1.437158 S    
N11   O30   1.301287 A    
C46   C54   1.425977 A    
