data_mof_unit_42417.cif
_audit_creation_date              2012-12-10T19:44:26-0500
_audit_creation_method            fapswitch 2.2
_symmetry_space_group_name_H-M    P1
_symmetry_Int_Tables_number       1
_space_group_crystal_system       triclinic
_cell_length_a                    10.94551
_cell_length_b                    12.424858
_cell_length_c                    13.194226
_cell_angle_alpha                 117.08267
_cell_angle_beta                  74.577983
_cell_angle_gamma                 100.639528
_cell_volume                      1535.86237136

loop_
_atom_site_label
_atom_site_type_symbol
_atom_type_description
_atom_site_fract_x
_atom_site_fract_y
_atom_site_fract_z
_atom_type_partial_charge
C1    C     C_R   0.517343 0.854323 0.285449 0.894506
C2    C     C_R   0.667760 0.682198 0.671733 0.571395
C3    C     C_R   0.038080 0.930462 0.543699 0.628102
C4    C     C_R   0.129533 0.002877 0.500085 -0.298220
C5    C     C_R   0.090219 0.077355 0.460788 -0.091202
C6    C     C_R   0.961705 0.074980 0.464099 0.673301
C7    C     C_R   0.870302 0.001442 0.506028 -0.266399
C8    C     C_R   0.909731 0.928637 0.547189 -0.091598
C9    C     C_R   0.163432 0.281741 0.459549 0.335584
C10   C     C_R   0.222338 0.349101 0.396349 0.587745
C11   C     C_R   0.301255 0.294170 0.287312 -0.299077
C12   C     C_R   0.736860 0.000911 0.502621 0.969122
C13   C     C_R   0.321154 0.171431 0.240161 0.361191
C14   C     C_R   0.257382 0.101620 0.299638 -0.181873
C15   C     C_R   0.177218 0.155694 0.409565 -0.026890
C16   C     C_R   0.260705 0.307761 0.999961 0.430438
C17   C     C_R   0.437736 0.229055 0.837343 -0.176743
C18   C     C_R   0.651216 0.787907 0.085578 0.567766
C19   C     C_R   0.687611 0.700371 0.972755 0.297560
C20   C     C_R   0.618909 0.588300 0.934272 0.605142
C21   C     C_R   0.515869 0.558824 0.010918 -0.044333
C22   C     C_R   0.469542 0.653841 0.120092 -0.118488
C23   C     C_R   0.478348 0.145203 0.714314 0.875296
C24   C     C_R   0.453499 0.439873 0.979876 -0.027277
C25   C     C_R   0.329072 0.423490 0.044404 -0.131490
C26   C     C_R   0.279885 0.523685 0.148664 0.428223
C27   C     C_R   0.351152 0.634474 0.185608 -0.124639
C28   C     C_R   0.511807 0.335847 0.887229 0.456126
C29   C     C_R   0.313208 0.216052 0.894282 -0.221135
C30   C     C_R   0.541335 0.767686 0.160415 -0.250891
C31   C     C_R   0.667724 0.316934 0.292805 0.610865
C32   C     C_R   0.333002 0.764774 0.657288 0.495581
C33   C     C_R   0.297779 0.670843 0.691374 0.650186
C34   C     C_R   0.263024 0.000607 0.499590 0.835582
C35   C     C_R   0.355595 0.563341 0.627787 -0.142007
C36   C     C_R   0.448337 0.545490 0.526255 -0.046787
C37   C     C_R   0.483337 0.643362 0.491296 0.026668
C38   C     C_R   0.511569 0.434939 0.461026 -0.124415
C39   C     C_R   0.589761 0.414182 0.350803 -0.273786
C40   C     C_R   0.595857 0.496101 0.304654 0.392351
C41   C     C_R   0.569479 0.615267 0.380171 0.319703
C42   C     C_R   0.500740 0.343011 0.499724 0.022800
C43   C     C_R   0.661653 0.237188 0.340553 0.486767
C44   C     C_R   0.655571 0.806559 0.737325 0.247808
C45   C     C_R   0.735679 0.889176 0.699425 0.328217
C46   C     C_R   0.822828 0.845571 0.591728 0.050654
C47   C     C_R   0.835871 0.720244 0.528849 -0.116719
C48   C     C_R   0.759232 0.639228 0.569074 -0.199524
Cu1   Cu    Cu3+1 0.529370 0.098270 0.475420 1.086002
Cu2   Cu    Cu3+1 0.470630 0.901730 0.524580 1.074869
H1    H     H_    0.347480 0.347286 0.239654 0.205321
H2    H     H_    0.267687 0.004967 0.259195 0.188132
H3    H     H_    0.254247 0.135057 0.854659 0.243929
H4    H     H_    0.309082 0.708280 0.264767 0.170409
H5    H     H_    0.435230 0.345905 0.577730 0.171975
H6    H     H_    0.323100 0.494094 0.658563 0.189838
H7    H     H_    0.905221 0.685301 0.447887 0.250865
H8    H     H_    0.769270 0.542836 0.519425 0.219209
N1    N     N_R   0.573890 0.246290 0.438210 -0.279109
N2    N     N_R   0.426890 0.754320 0.561170 -0.277151
O1    O     O_R   0.536940 0.972510 0.318130 -0.528912
O2    O     O_R   0.487330 0.806530 0.359650 -0.563092
O3    O     O_R   0.705160 0.082990 0.479250 -0.472372
O4    O     O_R   0.655550 0.917010 0.520760 -0.576253
O5    O     O_R   0.512670 0.193470 0.640350 -0.565799
O6    O     O_R   0.463060 0.027490 0.681870 -0.535790
O7    O     O_R   0.344450 0.082990 0.479240 -0.625018
O8    O     O_R   0.294840 0.917010 0.520750 -0.493154
F1    F     F_    0.589457 0.602493 0.706911 -0.604087
Cl1   Cl    Cl    0.422608 0.104786 0.104243 -0.401770
Cl2   Cl    Cl    0.131540 0.522109 0.242669 -0.418996
Cl3   Cl    Cl    0.105364 0.269040 0.062204 -0.296999
Cl4   Cl    Cl    0.678447 0.324212 0.850520 -0.312732
F2    F     F_    0.727434 0.890347 0.122965 -0.525106
F3    F     F_    0.648075 0.513072 0.819522 -0.534707
Cl5   Cl    Cl    0.825343 0.729115 0.880681 -0.263453
Cl6   Cl    Cl    0.539970 0.856218 0.867152 -0.400655
Cl7   Cl    Cl    0.771525 0.127263 0.272434 -0.229066
Cl8   Cl    Cl    0.651772 0.456143 0.153666 -0.379710
F4    F     F_    0.757772 0.303877 0.195356 -0.481654
Cl9   Cl    Cl    0.245629 0.892674 0.740023 -0.364698
F5    F     F_    0.205169 0.683256 0.787033 -0.526062
Cl10  Cl    Cl    0.694679 0.709103 0.340566 -0.553033
Cl11  Cl    Cl    0.730474 0.045659 0.788834 -0.367349
F6    F     F_    0.072233 0.860769 0.585172 -0.573247
F7    F     F_    0.927512 0.144174 0.422406 -0.569024
Cl12  Cl    Cl    0.068903 0.356271 0.599313 -0.383571
F8    F     F_    0.201742 0.467840 0.439854 -0.593162

loop_
_geom_bond_atom_site_label_1
_geom_bond_atom_site_label_2
_ccdc_geom_bond_type
Cu1   O3    S    
C3    F6    S    
C17   C29   A    
C35   C36   A    
C16   Cl3   S    
C1    O2    A    
C27   H4    S    
C31   F4    S    
C45   C46   A    
C43   Cl7   S    
C32   Cl9   S    
C10   F8    S    
C26   C27   A    
C17   C23   S    
C31   C43   A    
C23   O6    A    
C19   Cl5   S    
C38   C42   A    
C38   C39   A    
C12   O4    A    
C13   Cl1   S    
C41   Cl10  S    
Cu2   O4    S    
C18   C19   A    
C14   H2    S    
C19   C20   A    
C2    C44   A    
C18   C30   A    
C2    F1    S    
C22   C30   A    
C9    C10   A    
C43   N1    A    
C18   F2    S    
C13   C14   A    
C26   Cl2   S    
C28   Cl4   S    
C25   C26   A    
C7    C12   S    
C4    C34   S    
Cu1   O1    S    
C7    C8    A    
C24   C25   A    
C3    C8    A    
C34   O8    A    
C39   C40   A    
C12   O3    A    
C2    C48   A    
C16   C29   A    
C20   F3    S    
C1    O1    A    
C42   N1    A    
C42   H5    S    
C47   H7    S    
C47   C48   A    
C40   Cl8   S    
Cu2   O6    S    
Cu1   O5    S    
C40   C41   A    
C22   C27   A    
Cu2   O2    S    
C45   Cl11  S    
C32   N2    A    
C3    C4    A    
C44   C45   A    
C33   F5    S    
C16   C25   A    
C46   C47   A    
C36   C37   A    
Cu1   O7    S    
C35   H6    S    
C17   C28   A    
C24   C28   A    
C4    C5    A    
C6    F7    S    
C34   O7    A    
C48   H8    S    
C6    C7    A    
C44   Cl6   S    
Cu1   N1    S    
Cu2   N2    S    
C32   C33   A    
C23   O5    A    
C36   C38   A    
C9    C15   A    
C9    Cl12  S    
C11   C13   A    
C5    C6    A    
C29   H3    S    
C1    C30   S    
C33   C35   A    
C31   C39   A    
C37   C41   A    
C8    C46   S    
C5    C15   S    
C37   N2    A    
C11   H1    S    
C10   C11   A    
C20   C21   A    
Cu1   Cu2   S    
C21   C24   A    
C14   C15   A    
C21   C22   A    
Cu2   O8    S    
