data_mof_unit_37266.cif
_audit_creation_date              2012-12-10T17:20:36-0500
_audit_creation_method            fapswitch 2.2
_symmetry_space_group_name_H-M    P1
_symmetry_Int_Tables_number       1
_space_group_crystal_system       triclinic
_cell_length_a                    10.338104
_cell_length_b                    10.550318
_cell_length_c                    13.557665
_cell_angle_alpha                 93.444682
_cell_angle_beta                  75.771837
_cell_angle_gamma                 93.830803
_cell_volume                      1428.71672265

loop_
_atom_site_label
_atom_site_type_symbol
_atom_type_description
_atom_site_fract_x
_atom_site_fract_y
_atom_site_fract_z
_atom_type_partial_charge
C1    C     C_R   0.552687 0.733746 0.500646 0.913978
C2    C     C_2   0.080033 0.509022 0.476284 -0.132594
C3    C     C_1   0.466188 0.545162 0.879934 -0.034678
C4    C     C_1   0.557630 0.504636 0.116710 0.014281
C5    C     C_2   0.573232 0.870044 0.516190 -0.380539
C6    C     C_2   0.420711 0.132404 0.526302 -0.411362
C7    C     C_2   0.480136 0.937282 0.582448 -0.017799
C8    C     C_2   0.491248 0.074391 0.580209 -0.005482
C9    C     C_2   0.089680 0.541974 0.645237 0.609185
C10   C     C_2   0.882842 0.323597 0.422677 0.591258
C11   C     C_R   0.568958 0.142783 0.647206 0.180171
C12   C     C_R   0.445849 0.266686 0.509144 0.923726
C13   C     C_R   0.504370 0.183436 0.746396 -0.191506
C14   C     C_R   0.578791 0.240548 0.811915 -0.140750
C15   C     C_R   0.717455 0.259827 0.778029 -0.114565
C16   C     C_R   0.782161 0.219312 0.679278 -0.195113
C17   C     C_R   0.708277 0.158910 0.614649 -0.102416
C18   C     C_R   0.373907 0.883564 0.666533 0.184562
C19   C     C_R   0.409244 0.834194 0.749511 -0.156647
C20   C     C_R   0.311956 0.810677 0.839326 -0.118406
C21   C     C_R   0.178804 0.835496 0.846800 -0.054416
C22   C     C_R   0.142407 0.883247 0.764189 -0.087676
C23   C     C_R   0.478143 0.505709 0.687909 0.889152
C24   C     C_R   0.239258 0.906889 0.674297 -0.113627
C25   C     C_R   0.144010 0.466620 0.370231 0.213730
C26   C     C_R   0.193771 0.344423 0.348219 -0.113950
C27   C     C_R   0.239233 0.299485 0.247263 -0.170001
C28   C     C_R   0.232508 0.374607 0.167476 -0.085444
C29   C     C_R   0.181006 0.495027 0.188577 -0.141942
C30   C     C_R   0.137639 0.541215 0.289308 -0.141203
C31   C     C_R   0.881704 0.642237 0.557878 0.214080
C32   C     C_R   0.813051 0.639092 0.661049 -0.101206
C33   C     C_R   0.779661 0.751758 0.718441 -0.182955
C34   C     C_R   0.522884 0.497111 0.311986 0.888686
C35   C     C_R   0.816603 0.868798 0.674009 -0.142059
C36   C     C_R   0.888092 0.873307 0.572301 -0.163575
C37   C     C_R   0.920789 0.760644 0.514427 -0.120525
C38   C     C_1   0.541571 0.500637 0.206213 -0.153057
C39   C     C_1   0.468229 0.525854 0.792489 -0.146207
C40   C     C_2   0.567768 0.509586 0.011451 -0.176425
C41   C     C_2   0.471757 0.563270 0.982611 -0.191911
C42   C     C_2   0.929718 0.523757 0.499698 -0.123084
H1    H     H_    0.393444 0.612542 0.036373 0.154787
H2    H     H_    0.889660 0.232739 0.653401 0.114160
H3    H     H_    0.759067 0.124227 0.539392 0.127635
H4    H     H_    0.512777 0.820109 0.746511 0.126461
H5    H     H_    0.340150 0.776323 0.904201 0.126954
H6    H     H_    0.103929 0.818041 0.916642 0.116930
H7    H     H_    0.039378 0.903016 0.770184 0.131643
H8    H     H_    0.209603 0.946870 0.612096 0.115735
H9    H     H_    0.192804 0.282174 0.408851 0.125136
H10   H     H_    0.277326 0.205452 0.230958 0.129058
H11   H     H_    0.266263 0.339176 0.089345 0.133374
H12   H     H_    0.645915 0.459947 0.957671 0.150617
H13   H     H_    0.172913 0.552117 0.126922 0.125515
H14   H     H_    0.096253 0.633857 0.304059 0.112276
H15   H     H_    0.789414 0.549599 0.698242 0.135226
H16   H     H_    0.726947 0.748305 0.797874 0.141516
H17   H     H_    0.791844 0.955773 0.719120 0.150429
H18   H     H_    0.919492 0.964006 0.538446 0.122709
H19   H     H_    0.977488 0.765949 0.436206 0.109572
H20   H     H_    0.352371 0.078435 0.488207 0.131595
H21   H     H_    0.658881 0.918100 0.466612 0.152558
H22   H     H_    0.006727 0.473339 0.670718 -0.048224
H23   H     H_    0.953392 0.274108 0.451549 -0.054905
H24   H     H_    0.397007 0.168988 0.773317 0.131488
H25   H     H_    0.528726 0.269868 0.888890 0.139905
H26   H     H_    0.774951 0.304954 0.828471 0.121640
N1    N     N_2   0.847200 0.448220 0.460120 -0.140899
N2    N     N_2   0.152800 0.551780 0.539880 -0.146781
O1    O     O_R   0.430150 0.692610 0.508030 -0.587286
O2    O     O_2   0.829046 0.268587 0.360438 -0.572651
O3    O     O_R   0.569850 0.307390 0.491970 -0.561407
O4    O     O_R   0.653100 0.659360 0.482430 -0.605568
O5    O     O_R   0.346900 0.340640 0.517570 -0.645486
O6    O     O_R   0.372470 0.518990 0.654990 -0.564510
O7    O     O_R   0.627530 0.481010 0.345010 -0.575183
O8    O     O_R   0.595430 0.485740 0.629390 -0.624239
O9    O     O_R   0.404570 0.514260 0.370610 -0.605189
O10   O     O_2   0.130545 0.608443 0.708797 -0.570753
Zn1   Zn    Zn3+2 0.351130 0.522200 0.517090 0.973699
Zn2   Zn    Zn3+2 0.648870 0.477800 0.482910 0.990772

loop_
_geom_bond_atom_site_label_1
_geom_bond_atom_site_label_2
_ccdc_geom_bond_type
C33   H16   S    
C31   C42   S    
C9    H22   S    
C19   C20   A    
C23   O6    A    
C19   H4    S    
C7    C8    S    
C26   C27   A    
C1    O1    A    
C1    C5    S    
C1    O4    A    
C28   C29   A    
C17   H3    S    
C34   O7    A    
C6    C12   S    
C15   C16   A    
C5    H21   S    
C35   H17   S    
C18   C19   A    
N2    Zn1   S    
N1    Zn2   S    
C3    C41   S    
C4    C40   S    
C16   C17   A    
C14   H25   S    
C18   C24   A    
C13   C14   A    
C16   H2    S    
C21   H6    S    
C3    C39   T    
C21   C22   A    
C41   H1    S    
C32   H15   S    
O4    Zn2   S    
C13   H24   S    
C24   H8    S    
C9    N2    S    
C5    C7    D    
O5    Zn1   S    
C6    C8    D    
C29   H13   S    
C25   C26   A    
C30   H14   S    
C42   N1    D    
C31   C37   A    
C35   C36   A    
C29   C30   A    
C34   O9    A    
O8    Zn2   S    
C31   C32   A    
C7    C18   S    
C22   H7    S    
C40   C41   D    
C4    C38   T    
C40   H12   S    
C22   C24   A    
O3    Zn2   S    
C27   H10   S    
O9    Zn1   S    
C10   H23   S    
C25   C30   A    
C36   C37   A    
C34   C38   S    
C36   H18   S    
C11   C17   A    
O6    Zn1   S    
C37   H19   S    
C28   H11   S    
C32   C33   A    
C6    H20   S    
C2    N2    D    
C26   H9    S    
C11   C13   A    
O7    Zn2   S    
C2    C42   S    
C8    C11   S    
C23   C39   S    
C15   H26   S    
C33   C35   A    
C2    C25   S    
C23   O8    A    
C20   H5    S    
C10   N1    S    
C20   C21   A    
C12   O5    A    
C27   C28   A    
C14   C15   A    
C12   O3    A    
C9    O10   D    
O1    Zn1   S    
C10   O2    D    
