data_mof_unit_26522.cif
_audit_creation_date              2012-10-26T21:13:40-0400
_audit_creation_method            fapswitch 2.2
_symmetry_space_group_name_H-M    P1
_symmetry_Int_Tables_number       1
_space_group_crystal_system       triclinic
_cell_length_a                    9.074592
_cell_length_b                    10.823185
_cell_length_c                    9.579984
_cell_angle_alpha                 90.471823
_cell_angle_beta                  90.454417
_cell_angle_gamma                 90.554474
_cell_volume                      940.801441517

loop_
_atom_site_label
_atom_site_type_symbol
_atom_type_description
_atom_site_fract_x
_atom_site_fract_y
_atom_site_fract_z
_atom_type_partial_charge
Br1   Br    Br    0.719056 0.140314 0.268207 -0.326210
Br2   Br    Br    0.854645 0.700974 0.178077 -0.351777
Br3   Br    Br    0.535767 0.124781 0.854092 -0.403648
Br4   Br    Br    0.258314 0.323159 0.154400 -0.350090
Br5   Br    Br    0.859683 0.693540 0.833878 -0.289454
C1    C     C_R   0.504192 0.262754 0.499440 0.577643
C2    C     C_R   0.614276 0.552407 0.928044 0.163698
C3    C     C_3   0.667927 0.682785 0.922576 0.067530
C4    C     C_R   0.220781 0.499995 0.499660 0.574379
C5    C     C_3   0.665079 0.684821 0.082301 0.041969
C6    C     C_R   0.498719 0.737330 0.500152 0.567284
C7    C     C_R   0.779210 0.499889 0.500354 0.583217
C8    C     C_1   0.065569 0.499920 0.499536 0.046226
C9    C     C_1   0.934423 0.499848 0.500478 0.054284
C10   C     C_R   0.408923 0.064446 0.583242 -0.027144
C11   C     C_R   0.504136 0.129551 0.496444 0.042688
C12   C     C_R   0.582069 0.933416 0.398328 -0.092400
C13   C     C_R   0.586267 0.062620 0.396830 0.161638
C14   C     C_R   0.496528 0.870391 0.497081 -0.017742
C15   C     C_R   0.400727 0.938010 0.580065 0.030788
C16   C     C_3   0.357947 0.931214 0.729733 0.138395
C17   C     C_3   0.371489 0.071923 0.734977 0.047683
C18   C     C_R   0.613481 0.553650 0.074957 0.158040
C19   C     C_R   0.399724 0.431602 0.071035 0.286485
C20   C     C_R   0.398719 0.434022 0.922996 0.071399
Cl1   Cl    Cl    0.173049 0.877336 0.747364 -0.470252
Cu1   Cu    Cu3+1 0.499990 0.499980 0.640670 1.055237
Cu2   Cu    Cu3+1 0.500010 0.500020 0.359330 1.106032
H1    H     H_    0.585637 0.744411 0.875653 0.115922
H2    H     H_    0.579352 0.747342 0.124299 0.124468
H3    H     H_    0.651405 0.882644 0.327143 0.184419
H4    H     H_    0.438417 0.882605 0.795737 0.155940
H5    H     H_    0.266280 0.120791 0.754153 0.186726
H6    H     H_    0.316141 0.381701 0.865188 0.161072
N1    N     N_R   0.500920 0.500930 0.147930 -0.252145
N2    N     N_R   0.500930 0.500890 0.852020 -0.276626
O1    O     O_R   0.500000 0.319640 0.618810 -0.488553
O2    O     O_R   0.500020 0.319680 0.381230 -0.444987
O3    O     O_R   0.288380 0.499980 0.618770 -0.503740
O4    O     O_R   0.288400 0.500020 0.381190 -0.459165
O5    O     O_R   0.499980 0.680320 0.618770 -0.500767
O6    O     O_R   0.500000 0.680360 0.381190 -0.512628
O7    O     O_R   0.711600 0.499980 0.618810 -0.471427
O8    O     O_R   0.711620 0.500020 0.381230 -0.464406

loop_
_geom_bond_atom_site_label_1
_geom_bond_atom_site_label_2
_ccdc_geom_bond_type
Br5   C3    S    
C16   Cl1   S    
C1    O2    A    
Cu1   N2    S    
C2    N2    A    
Cu1   O5    S    
C14   C15   A    
Cu2   O2    S    
C20   H6    S    
C12   C13   A    
C1    O1    A    
C2    C3    S    
C7    O8    A    
C8    C9    T    
C19   C20   A    
C6    C14   S    
Br1   C13   S    
Cu1   O1    S    
Br4   C19   S    
C2    C18   A    
C3    H1    S    
C11   C13   A    
C12   C14   A    
C12   H3    S    
C7    C9    S    
C6    O5    A    
C7    O7    A    
C18   N1    A    
C10   C17   S    
C10   C15   A    
C5    C18   S    
C16   H4    S    
C19   N1    A    
Cu2   O4    S    
C20   N2    A    
C1    C11   S    
C10   C11   A    
Br2   C5    S    
Cu1   O7    S    
C4    O3    A    
C15   C16   S    
C6    O6    A    
C3    C5    S    
Cu2   O6    S    
Cu1   Cu2   S    
C17   H5    S    
C5    H2    S    
Br3   C17   S    
C4    C8    S    
C16   C17   S    
Cu2   O8    S    
C4    O4    A    
Cu2   N1    S    
Cu1   O3    S    
