data_mof_unit_47230.cif
_audit_creation_date              2012-12-11T14:56:38-0500
_audit_creation_method            fapswitch 2.2
_symmetry_space_group_name_H-M    P1
_symmetry_Int_Tables_number       1
_space_group_crystal_system       triclinic
_cell_length_a                    10.596374
_cell_length_b                    10.72359
_cell_length_c                    17.176668
_cell_angle_alpha                 80.169132
_cell_angle_beta                  89.786763
_cell_angle_gamma                 119.565104
_cell_volume                      1663.90788617

loop_
_atom_site_label
_atom_site_type_symbol
_atom_type_description
_atom_site_fract_x
_atom_site_fract_y
_atom_site_fract_z
_atom_type_partial_charge
C1    C     C_R   0.223138 0.854429 0.128822 0.546449
C2    C     C_R   0.781829 0.376886 0.271993 -0.158350
C3    C     C_R   0.779499 0.376048 0.192692 -0.158473
C4    C     C_R   0.652270 0.343938 0.156788 -0.010227
C5    C     C_1   0.668813 0.848383 0.205425 -0.008587
C6    C     C_1   0.680801 0.839090 0.274674 -0.011408
C7    C     C_1   0.180871 0.825864 0.211336 -0.017979
C8    C     C_1   0.151249 0.820293 0.279703 -0.012636
C9    C     C_1   0.645000 0.324723 0.778209 0.000228
C10   C     C_1   0.651957 0.346832 0.707733 -0.005741
C11   C     C_R   0.625879 0.720571 0.803461 -0.143027
C12   C     C_R   0.636607 0.281033 0.086018 0.549835
C13   C     C_R   0.610575 0.701559 0.726373 -0.129729
C14   C     C_R   0.668307 0.823250 0.664297 -0.000488
C15   C     C_R   0.748310 0.963918 0.679156 -0.112831
C16   C     C_R   0.764500 0.987184 0.756789 0.053587
C17   C     C_R   0.692926 0.861498 0.820129 0.013736
C18   C     C_R   0.208938 0.965603 0.757218 0.218676
C19   C     C_R   0.220732 0.959580 0.678342 -0.110952
C20   C     C_R   0.176136 0.825886 0.656685 -0.019080
C21   C     C_R   0.160280 0.707121 0.713281 -0.142329
C22   C     C_R   0.174854 0.719719 0.792542 -0.166988
C23   C     C_R   0.640298 0.858366 0.125457 0.561690
C24   C     C_R   0.193263 0.846506 0.816186 0.006584
C25   C     C_R   0.686915 0.809837 0.357040 0.547926
C26   C     C_R   0.686209 0.391883 0.396030 0.563791
C27   C     C_R   0.103309 0.810428 0.359044 0.559802
C28   C     C_R   0.677594 0.799509 0.585389 0.541908
C29   C     C_R   0.679107 0.383348 0.624656 0.557071
C30   C     C_R   0.104421 0.804031 0.584154 0.555982
C31   C     C_R   0.227807 0.866854 0.897158 0.549876
C32   C     C_R   0.637685 0.284724 0.860954 0.540473
C33   C     C_R   0.646726 0.869898 0.897824 0.551150
C34   C     C_R   0.530794 0.333524 0.199278 0.016422
C35   C     C_R   0.532239 0.332367 0.281640 0.010140
C36   C     C_R   0.659681 0.353992 0.317792 -0.016452
Cr1   Cr    Cr6+3 0.402240 0.783890 0.019450 1.057385
Cr2   Cr    Cr6+3 0.382360 0.097900 0.991800 1.130464
Cr3   Cr    Cr6+3 0.715380 0.118170 0.988700 1.094438
Cr4   Cr    Cr6+3 0.936650 0.882420 0.465510 1.086714
Cr5   Cr    Cr6+3 0.605770 0.565620 0.493360 1.060240
Cr6   Cr    Cr6+3 0.921340 0.550490 0.496380 1.046235
H1    H     H_    0.239323 0.053227 0.633845 0.172050
H2    H     H_    0.130284 0.603692 0.696983 0.145340
H3    H     H_    0.165924 0.628582 0.835654 0.160433
H4    H     H_    0.883313 0.399896 0.296666 0.163737
H5    H     H_    0.875612 0.390214 0.160792 0.162063
H6    H     H_    0.575247 0.624052 0.850556 0.161369
H7    H     H_    0.556606 0.591088 0.715332 0.162607
H8    H     H_    0.801024 0.055057 0.629155 0.180578
O1    O     O_R   0.521780 0.757110 0.108900 -0.470113
O2    O     O_R   0.513330 0.228330 0.898660 -0.460807
O3    O     O_R   0.739230 0.266130 0.888050 -0.493811
O4    O     O_R   0.712580 0.991850 0.918770 -0.455470
O5    O     O_3   0.499990 0.999980 0.999980 -0.296791
O6    O     O_R   0.083770 0.911170 0.376030 -0.455588
O7    O     O_R   0.808770 0.880340 0.383890 -0.497334
O8    O     O_R   0.584340 0.689460 0.394160 -0.493571
O9    O     O_R   0.614320 0.443940 0.423590 -0.474533
O10   O     O_R   0.805020 0.410040 0.421340 -0.525803
O11   O     O_R   0.049240 0.685450 0.403290 -0.511919
O12   O     O_R   0.275160 0.783810 0.101120 -0.501247
O13   O     O_R   0.077520 0.903010 0.551800 -0.491774
O14   O     O_R   0.802980 0.872780 0.546830 -0.494978
O15   O     O_R   0.578090 0.681300 0.569920 -0.520096
O16   O     O_R   0.608530 0.436370 0.586530 -0.507858
O17   O     O_R   0.798770 0.401880 0.597100 -0.474817
O18   O     O_R   0.043450 0.677890 0.566230 -0.505550
O19   O     O_3   0.821250 0.666180 0.485090 -0.278952
O20   O     O_R   0.237900 0.972600 0.090980 -0.478748
O21   O     O_R   0.511190 0.220540 0.061620 -0.482122
O22   O     O_R   0.736920 0.257720 0.063840 -0.522480
O23   O     O_R   0.710450 0.984050 0.081720 -0.494008
O24   O     O_R   0.524090 0.765520 0.933110 -0.513081
O25   O     O_R   0.277300 0.791600 0.938160 -0.520820
O26   O     O_R   0.240210 0.981010 0.915190 -0.423894
C37   C     C_2   0.403871 0.323430 0.157941 0.635303
O27   O     O_2   0.279677 0.227862 0.184612 -0.483203
O28   O     O_R   0.427778 0.422538 0.087359 -0.668075
H9    H     H_    0.333738 0.404752 0.064270 0.333870
C38   C     C_2   0.402377 0.309514 0.329187 0.625891
O29   O     O_2   0.350753 0.215043 0.389723 -0.504483
O30   O     O_R   0.340831 0.397301 0.305328 -0.659750
H10   H     H_    0.253561 0.371558 0.342761 0.335358
C39   C     C_2   0.856305 0.143550 0.765123 0.648219
O31   O     O_2   0.915929 0.176887 0.824845 -0.404720
O32   O     O_R   0.886473 0.255193 0.700206 -0.693438
H11   H     H_    0.953900 0.355841 0.711607 0.339368
S1    S     S_3+6 0.182671 0.109264 0.775791 0.026067
O33   O     O_2   0.065609 0.048891 0.843538 -0.213385
O34   O     O_2   0.320476 0.230472 0.797150 -0.297740
O35   O     O_3   0.130250 0.177778 0.694979 -0.523409
H12   H     H_    0.221059 0.262849 0.665964 0.346590

loop_
_geom_bond_atom_site_label_1
_geom_bond_atom_site_label_2
_ccdc_geom_bond_type
Cr1   O24   S    
Cr2   O20   S    
C19   C20   A    
O32   H11   S    
C1    O12   A    
Cr1   O12   S    
C35   C38   S    
C7    C8    T    
C20   C30   S    
C37   O27   D    
C2    H4    S    
Cr3   O3    S    
Cr4   O13   S    
C25   O7    A    
C18   C24   A    
Cr3   O4    S    
Cr5   O8    S    
C18   C19   A    
C34   C37   S    
C5    C6    T    
Cr1   O1    S    
C6    C25   S    
Cr2   O2    S    
C15   C16   A    
C34   C35   A    
C15   H8    S    
C32   O2    A    
C27   O11   A    
C9    C32   S    
C29   O17   A    
C23   O1    A    
Cr3   O5    S    
Cr2   O5    S    
C35   C36   A    
C16   C17   A    
Cr4   O6    S    
Cr3   O22   S    
S1    O34   D    
C26   O9    A    
C37   O28   S    
C12   O22   A    
C13   C14   A    
Cr2   O26   S    
Cr6   O18   S    
C11   H6    S    
C17   C33   S    
C23   O23   A    
C30   O13   A    
C38   O30   S    
C19   H1    S    
C38   O29   D    
C39   O32   S    
C4    C34   A    
Cr4   O19   S    
Cr5   O9    S    
Cr6   O10   S    
C27   O6    A    
Cr5   O15   S    
C39   O31   D    
Cr6   O19   S    
C29   O16   A    
C21   H2    S    
C31   O25   A    
O30   H10   S    
C5    C23   S    
S1    O35   S    
Cr6   O11   S    
C13   H7    S    
C28   O14   A    
C26   C36   S    
C12   O21   A    
C16   C39   S    
C22   C24   A    
C4    C12   S    
C25   O8    A    
C3    C4    A    
C32   O3    A    
Cr5   O19   S    
C9    C10   T    
C2    C36   A    
C33   O4    A    
Cr2   O21   S    
C11   C17   A    
Cr4   O7    S    
C1    C7    S    
C18   S1    S    
Cr5   O16   S    
C1    O20   A    
Cr4   O14   S    
C28   O15   A    
C24   C31   S    
C11   C13   A    
C10   C29   S    
C31   O26   A    
Cr6   O17   S    
C3    H5    S    
O35   H12   S    
C2    C3    A    
Cr3   O23   S    
Cr1   O25   S    
O28   H9    S    
Cr1   O5    S    
C33   O24   A    
C22   H3    S    
C20   C21   A    
C8    C27   S    
C14   C15   A    
C14   C28   S    
S1    O33   D    
C21   C22   A    
C26   O10   A    
C30   O18   A    
