data_mof_unit_12823.cif
_audit_creation_date              2013-03-05T16:50:07-0500
_audit_creation_method            fapswitch 2.2
_symmetry_space_group_name_H-M    P1
_symmetry_Int_Tables_number       1
_space_group_crystal_system       triclinic
_cell_length_a                    27.806278
_cell_length_b                    10.843152
_cell_length_c                    26.396027
_cell_angle_alpha                 90.842327
_cell_angle_beta                  89.949829
_cell_angle_gamma                 90.311863
_cell_volume                      7957.62492799

loop_
_atom_site_label
_atom_site_type_symbol
_atom_site_description
_atom_site_fract_x
_atom_site_fract_y
_atom_site_fract_z
_atom_type_partial_charge
O1    O     O_R   0.500000 0.319660 0.542350 -0.576607
O2    O     O_R   0.500000 0.680340 0.457650 -0.576299
O3    O     O_R   0.500000 0.319630 0.457650 -0.574700
O4    O     O_R   0.500000 0.680370 0.542350 -0.581330
C1    C     C_R   0.500655 0.262129 0.499525 0.835446
C2    C     C_R   0.499519 0.737975 0.500491 0.825667
O5    O     O_R   0.430260 0.500030 0.542340 -0.593139
O6    O     O_R   0.569740 0.499970 0.457660 -0.591893
O7    O     O_R   0.430270 0.500010 0.457650 -0.579839
O8    O     O_R   0.569730 0.499990 0.542350 -0.585239
C3    C     C_R   0.407359 0.501638 0.500047 0.794205
C4    C     C_R   0.592595 0.499077 0.499937 0.788124
Cu1   Cu    Cu3+1 0.500000 0.500020 0.550150 0.942375
Cu2   Cu    Cu3+1 0.500000 0.499980 0.449850 0.951142
O9    O     O_2   0.554906 0.666922 0.786762 -0.546804
O10   O     O_2   0.424917 0.387672 0.213606 -0.536331
C5    C     C_R   0.569644 0.624871 0.055157 -0.213305
C6    C     C_R   0.440447 0.337747 0.944353 -0.212792
H1    H     H_    0.437457 0.610460 0.631286 0.127424
H2    H     H_    0.559657 0.379670 0.368552 0.128978
C7    C     C_R   0.178240 0.399676 0.502094 0.517450
C8    C     C_R   0.821491 0.607486 0.503453 0.532957
O11   O     O_2   0.203222 0.293516 0.504224 -0.576168
O12   O     O_2   0.796407 0.713448 0.507287 -0.530740
N1    N     N_R   0.202144 0.510185 0.500057 -0.461093
N2    N     N_R   0.797645 0.496949 0.500203 -0.468674
C9    C     C_R   0.177701 0.619130 0.497703 0.536581
C10   C     C_R   0.822080 0.387944 0.497063 0.530339
C11   C     C_R   0.279459 0.552708 0.458250 -0.118543
C12   C     C_R   0.721055 0.545793 0.458937 -0.096541
C13   C     C_R   0.329607 0.550144 0.458132 -0.148020
C14   C     C_R   0.670925 0.546121 0.458768 -0.222803
C15   C     C_R   0.328810 0.467469 0.543035 -0.241846
C16   C     C_R   0.670317 0.444574 0.540022 -0.184901
C17   C     C_R   0.278704 0.469925 0.543069 -0.108034
C18   C     C_R   0.720469 0.444242 0.540166 -0.097382
C19   C     C_R   0.253783 0.511653 0.500563 0.326822
C20   C     C_R   0.746035 0.495510 0.499762 0.355659
C21   C     C_R   0.101841 0.506904 0.499462 -0.045281
C22   C     C_R   0.897921 0.500193 0.500029 -0.044157
C23   C     C_R   0.127782 0.396003 0.501692 -0.010972
C24   C     C_R   0.871972 0.611184 0.503154 -0.021741
C25   C     C_R   0.102970 0.283954 0.503763 -0.155499
C26   C     C_R   0.896803 0.723251 0.506243 -0.148078
C27   C     C_R   0.127190 0.619501 0.497393 -0.020115
C28   C     C_R   0.872579 0.387520 0.497142 -0.018883
C29   C     C_R   0.354607 0.506189 0.500328 -0.033116
C30   C     C_R   0.645274 0.496807 0.499633 -0.017629
H3    H     H_    0.347341 0.433737 0.576098 0.162233
H4    H     H_    0.651040 0.403484 0.571258 0.128874
H5    H     H_    0.259156 0.438747 0.576030 0.151339
H6    H     H_    0.739500 0.404788 0.571765 0.132528
H7    H     H_    0.122082 0.197391 0.506047 0.184818
H8    H     H_    0.877696 0.809858 0.509377 0.186735
C31   C     C_R   0.974650 0.388750 0.498125 0.042966
C32   C     C_R   0.025109 0.618294 0.498833 0.043515
C33   C     C_R   0.974018 0.616647 0.501187 0.042893
C34   C     C_R   0.025749 0.390449 0.500075 0.043460
C35   C     C_R   0.949077 0.501870 0.499779 0.066600
C36   C     C_R   0.050686 0.505209 0.499427 0.065629
C37   C     C_R   0.947957 0.277413 0.494271 -0.207139
C38   C     C_R   0.051787 0.729526 0.495580 -0.206234
C39   C     C_R   0.898021 0.277098 0.493881 -0.147825
C40   C     C_R   0.101734 0.729841 0.494986 -0.151775
H9    H     H_    0.600728 0.663190 0.036496 0.165865
H10   H     H_    0.421224 0.264242 0.962768 0.164286
H11   H     H_    0.436135 0.610360 0.725048 0.122673
H12   H     H_    0.559767 0.376215 0.274720 0.142230
O13   O     O_2   0.797577 0.280385 0.493422 -0.538247
O14   O     O_2   0.202193 0.726839 0.496246 -0.549160
C41   C     C_R   0.053054 0.280955 0.503066 -0.207279
C42   C     C_R   0.946730 0.726209 0.505360 -0.206429
H13   H     H_    0.652232 0.586357 0.427097 0.159840
H14   H     H_    0.348808 0.581693 0.424988 0.152990
H15   H     H_    0.740559 0.584828 0.427418 0.145562
H16   H     H_    0.260502 0.584846 0.425195 0.144497
H17   H     H_    0.879392 0.189256 0.490938 0.186592
H18   H     H_    0.120358 0.817612 0.492624 0.183636
H19   H     H_    0.964446 0.188184 0.490536 0.135159
H20   H     H_    0.035258 0.818622 0.492529 0.134622
H21   H     H_    0.037071 0.190715 0.505923 0.135346
H22   H     H_    0.962758 0.816469 0.508995 0.135441
H23   H     H_    0.381138 0.289542 0.312026 0.191072
H24   H     H_    0.603985 0.750077 0.705318 0.195688
C43   C     C_R   0.379837 0.245808 0.391321 0.440295
C44   C     C_R   0.608937 0.752625 0.622545 0.442330
C45   C     C_R   0.404826 0.190134 0.431194 -0.242686
C46   C     C_R   0.588077 0.803353 0.579230 -0.151086
H25   H     H_    0.391063 0.196545 0.469543 0.132194
H26   H     H_    0.604250 0.785940 0.542469 0.146299
C47   C     C_R   0.447627 0.126308 0.421481 0.039978
C48   C     C_R   0.547079 0.877723 0.582958 0.017565
C49   C     C_R   0.465972 0.120403 0.372009 -0.245665
C50   C     C_R   0.526736 0.902465 0.630567 -0.277828
H27   H     H_    0.499219 0.071870 0.364473 0.149774
H28   H     H_    0.496187 0.963627 0.632986 0.148787
C51   C     C_R   0.441561 0.177336 0.332168 0.431260
C52   C     C_R   0.546738 0.852834 0.674702 0.482211
C53   C     C_R   0.399428 0.243018 0.342432 -0.227733
C54   C     C_R   0.588182 0.780983 0.670443 -0.282203
C55   C     C_R   0.470337 0.933678 0.465307 0.127767
C56   C     C_R   0.530103 0.066593 0.534262 0.120378
C57   C     C_R   0.498442 0.871861 0.501521 -0.140083
C58   C     C_R   0.501735 0.128331 0.498440 -0.143501
C59   C     C_R   0.526215 0.938245 0.537786 -0.000546
C60   C     C_R   0.473256 0.062368 0.462814 0.000784
H29   H     H_    0.570939 0.753830 0.872718 0.194705
H30   H     H_    0.389950 0.355830 0.127837 0.187405
C61   C     C_R   0.534903 0.553895 0.188034 0.520251
C62   C     C_R   0.472655 0.416488 0.811488 0.536880
O15   O     O_2   0.571695 0.605927 0.214054 -0.557105
O16   O     O_2   0.446991 0.331500 0.785057 -0.563399
N3    N     N_R   0.498133 0.497529 0.213705 -0.451852
N4    N     N_R   0.500298 0.500661 0.786180 -0.452854
C63   C     C_R   0.460545 0.443757 0.187785 0.567540
C64   C     C_R   0.527221 0.586539 0.812347 0.532077
C65   C     C_R   0.533198 0.430125 0.295109 -0.175821
C66   C     C_R   0.464311 0.561986 0.704740 -0.258058
C67   C     C_R   0.533190 0.432410 0.348270 0.051211
C68   C     C_R   0.464989 0.561498 0.651606 0.044219
C69   C     C_R   0.465748 0.564820 0.349519 0.052479
C70   C     C_R   0.535439 0.439764 0.650706 0.033582
C71   C     C_R   0.464389 0.564635 0.296444 -0.265671
C72   C     C_R   0.536338 0.439163 0.703840 -0.264931
C73   C     C_R   0.498522 0.497080 0.268619 0.382615
C74   C     C_R   0.500331 0.500442 0.731352 0.395181
C75   C     C_R   0.495782 0.505546 0.107460 -0.048003
C76   C     C_R   0.497344 0.507708 0.892434 -0.047762
C77   C     C_R   0.534292 0.559465 0.134613 -0.005896
C78   C     C_R   0.470741 0.418251 0.864988 -0.010083
C79   C     C_R   0.571612 0.616190 0.107787 -0.161016
C80   C     C_R   0.443457 0.331649 0.891599 -0.161912
C81   C     C_R   0.458863 0.446164 0.134273 -0.081915
C82   C     C_R   0.526073 0.591975 0.865855 -0.071277
N5    N     N_R   0.500000 0.499970 0.374520 -0.170680
N6    N     N_R   0.500000 0.500030 0.625480 -0.163500
H31   H     H_    0.439214 0.616592 0.370734 0.126039
H32   H     H_    0.563262 0.392165 0.629678 0.123369
H33   H     H_    0.437174 0.617238 0.277120 0.139242
H34   H     H_    0.564707 0.391230 0.723396 0.136381
H35   H     H_    0.602705 0.654015 0.127365 0.183806
H36   H     H_    0.424382 0.258193 0.871748 0.180492
C83   C     C_R   0.525376 0.595954 0.973832 0.022027
C84   C     C_R   0.457843 0.446385 0.026231 0.021569
C85   C     C_R   0.463396 0.432809 0.972546 0.055366
C86   C     C_R   0.529695 0.580210 0.027321 0.054826
C87   C     C_R   0.495351 0.512371 0.946394 0.030794
C88   C     C_R   0.494355 0.510782 0.053548 0.031114
C89   C     C_R   0.549737 0.689984 0.946151 0.158300
C90   C     C_R   0.417999 0.398482 0.054218 0.163210
C91   C     C_R   0.551307 0.683321 0.893004 -0.154806
C92   C     C_R   0.420061 0.395023 0.107355 -0.159355
O17   O     O_3   0.338105 0.311648 0.399927 -0.618114
C93   C     C_3   0.300329 0.231820 0.414703 0.076278
H37   H     H_    0.273155 0.288865 0.434781 0.215620
H38   H     H_    0.311739 0.160262 0.441992 0.138321
C94   C     C_3   0.276322 0.171599 0.368249 -0.397574
H39   H     H_    0.264950 0.244402 0.341648 0.233869
H40   H     H_    0.302416 0.110397 0.348423 0.208233
C95   C     C_3   0.232435 0.095450 0.383421 -0.842891
H41   H     H_    0.243101 0.021130 0.409602 0.268444
H42   H     H_    0.215975 0.052535 0.349097 0.248767
H43   H     H_    0.205236 0.155184 0.402281 0.272943
O18   O     O_3   0.651021 0.684687 0.615245 -0.594324
C96   C     C_3   0.663838 0.609159 0.656369 0.063189
H44   H     H_    0.682233 0.526629 0.640657 0.154956
H45   H     H_    0.632266 0.571649 0.677168 0.130447
C97   C     C_3   0.699961 0.676046 0.691146 -0.341826
H46   H     H_    0.734088 0.690879 0.670069 0.234128
H47   H     H_    0.686202 0.767972 0.702932 0.221969
C98   C     C_3   0.710278 0.601023 0.738309 -0.898176
H48   H     H_    0.676781 0.588024 0.760634 0.270207
H49   H     H_    0.737031 0.650649 0.762373 0.261426
H50   H     H_    0.725085 0.509408 0.727469 0.252791
O19   O     O_3   0.459871 0.175586 0.283432 -0.577101
C99   C     C_3   0.459095 0.054056 0.262864 0.063833
H51   H     H_    0.434575 0.053046 0.229635 0.171170
H52   H     H_    0.445475 0.981936 0.289217 0.110869
C100  C     C_3   0.509615 0.019331 0.244967 -0.354452
H53   H     H_    0.522113 0.086740 0.216408 0.232260
H54   H     H_    0.534763 0.023226 0.277653 0.217059
C101  C     C_3   0.510507 0.889785 0.221491 -0.863174
H55   H     H_    0.499563 0.820405 0.249897 0.259989
H56   H     H_    0.547504 0.868181 0.208365 0.280378
H57   H     H_    0.485833 0.883681 0.188463 0.246670
O20   O     O_3   0.530932 0.884166 0.723186 -0.572092
C102  C     C_3   0.480179 0.882704 0.727846 0.068665
H58   H     H_    0.471022 0.826160 0.761308 0.177540
H59   H     H_    0.460924 0.838661 0.695177 0.110021
C103  C     C_3   0.461992 0.013942 0.737641 -0.323360
H60   H     H_    0.478599 0.051506 0.772967 0.246019
H61   H     H_    0.472679 0.074543 0.705956 0.222804
C104  C     C_3   0.407389 0.016173 0.743196 -0.881618
H62   H     H_    0.390004 0.981388 0.707865 0.248753
H63   H     H_    0.395348 0.112251 0.750526 0.291667
H64   H     H_    0.395918 0.958182 0.775427 0.247787
C105  C     C_3   0.434876 0.863837 0.431401 -0.833971
H65   H     H_    0.403173 0.920522 0.421755 0.222464
H66   H     H_    0.453082 0.834951 0.395764 0.230384
H67   H     H_    0.419584 0.782203 0.450679 0.218860
C106  C     C_3   0.566114 0.136627 0.567395 -0.810341
H68   H     H_    0.596556 0.077644 0.578969 0.232622
H69   H     H_    0.582839 0.213955 0.546477 0.213864
H70   H     H_    0.547899 0.172409 0.601982 0.235015
C107  C     C_3   0.567867 0.808892 0.970034 -0.884983
H71   H     H_    0.557578 0.888436 0.946348 0.237825
H72   H     H_    0.551435 0.827026 0.007685 0.245210
H73   H     H_    0.607692 0.807556 0.972790 0.231815
C108  C     C_3   0.369713 0.368388 0.030769 -0.888760
H74   H     H_    0.340311 0.405184 0.055106 0.235976
H75   H     H_    0.365032 0.412731 0.993522 0.246668
H76   H     H_    0.364887 0.266920 0.027341 0.230224

loop_
_geom_bond_atom_site_label_1
_geom_bond_atom_site_label_2
_geom_bond_distance
_ccdc_geom_bond_type
C83   C86   1.429880 A    
C98   H48   1.111183 S    
C94   H39   1.111577 S    
C51   O19   1.383039 S    
C45   C47   1.401556 A    
C5    C79   1.394937 A    
C106  H69   1.110453 S    
C106  H68   1.109501 S    
C3    C29   1.467946 S    
C10   O13   1.349766 S    
C4    C30   1.465158 S    
C6    C85   1.412322 A    
C66   C68   1.402554 A    
C58   C60   1.413629 A    
C21   C23   1.407618 A    
C11   H16   1.082737 S    
C8    C24   1.404051 A    
C107  H71   1.111547 S    
C83   C87   1.420044 A    
C98   H49   1.110353 S    
C10   C28   1.404203 A    
C96   H44   1.108212 S    
O1    C1    1.283213 A    
C38   H20   1.076213 S    
O18   C96   1.416361 S    
C17   C19   1.401227 A    
C56   C106  1.522477 S    
C31   C35   1.421233 A    
C65   C67   1.403104 A    
N4    C74   1.447197 S    
C44   C46   1.403355 A    
C34   C41   1.415961 A    
C71   C73   1.402634 A    
N3    C73   1.449641 S    
Cu2   N5    1.988411 S    
C50   C52   1.406773 A    
C15   H3    1.083150 S    
C71   H33   1.082642 S    
C108  H76   1.110047 S    
C32   C33   1.421984 A    
C12   C20   1.401319 A    
C56   C59   1.399755 A    
C105  H66   1.109721 S    
C55   C105  1.523243 S    
C69   H31   1.080582 S    
O4    Cu1   1.969378 S    
C37   C39   1.388578 A    
C101  H55   1.111062 S    
C102  C103  1.531141 S    
C38   C40   1.388887 A    
C103  C104  1.525539 S    
N1    C19   1.435951 S    
H30   C92   1.084427 S    
C6    C80   1.395562 A    
C25   H7    1.083608 S    
C97   C98   1.525390 S    
C46   C48   1.402523 A    
C104  H63   1.110241 S    
O1    Cu1   1.963467 S    
O6    Cu2   1.950317 S    
C62   C78   1.412977 A    
C44   C54   1.419614 A    
C62   N4    1.370972 A    
C93   H38   1.114038 S    
C79   H35   1.083269 S    
C84   C88   1.420225 A    
C75   C88   1.425624 A    
C21   C27   1.408173 A    
C100  C101  1.527248 S    
H29   C91   1.084549 S    
C9    C27   1.404576 A    
C99   H52   1.118552 S    
C1    C58   1.451125 S    
C21   C36   1.422464 A    
C96   H45   1.113284 S    
C22   C35   1.422480 A    
H23   C53   1.082925 S    
Cu1   Cu2   2.647518 S    
C100  H54   1.111225 S    
C11   C13   1.394844 A    
C23   C25   1.395664 A    
C47   C60   1.485892 S    
O2    C2    1.284067 A    
C81   C92   1.399919 A    
C24   C26   1.395725 A    
C75   C77   1.408685 A    
C51   C53   1.398585 A    
O5    C3    1.286079 A    
C86   C88   1.420478 A    
C43   C45   1.406957 A    
C80   H36   1.083465 S    
C49   H27   1.083088 S    
C98   H50   1.110901 S    
C16   H4    1.083089 S    
C69   C71   1.401470 A    
C85   C87   1.420702 A    
H24   C54   1.078964 S    
C90   C108  1.510981 S    
C25   C41   1.388308 A    
C70   H32   1.080816 S    
C93   C94   1.532550 S    
O4    C2    1.277324 A    
C89   C107  1.511144 S    
C14   H13   1.083204 S    
N2    C20   1.435115 S    
C13   H14   1.083288 S    
C63   C81   1.413951 A    
C84   C90   1.430587 A    
C67   N5    1.363735 A    
C32   C36   1.421156 A    
C68   N6    1.363794 A    
C101  H57   1.110849 S    
C95   H42   1.110357 S    
C105  H67   1.109964 S    
C78   C80   1.400522 A    
O7    Cu2   1.949657 S    
C95   H43   1.111116 S    
C103  H60   1.111821 S    
C61   C77   1.412403 A    
C43   C53   1.400267 A    
C90   C92   1.404892 A    
C76   C82   1.405413 A    
H12   C65   1.082541 S    
C47   C49   1.402228 A    
O19   C99   1.417898 S    
C83   C89   1.430324 A    
O6    C4    1.284891 A    
C104  H64   1.110866 S    
C48   C50   1.400615 A    
C108  H74   1.111472 S    
C57   C59   1.416265 A    
C43   O17   1.382603 S    
C2    C57   1.452071 S    
C69   N5    1.363490 A    
C50   H28   1.081791 S    
O7    C3    1.287198 A    
C70   N6    1.364712 A    
C93   H37   1.108675 S    
C32   C38   1.416171 A    
O3    Cu2   1.969380 S    
O8    C4    1.286929 A    
C7    C23   1.403456 A    
C5    H9    1.078754 S    
C99   H51   1.111287 S    
C46   H26   1.083620 S    
H1    C68   1.081294 S    
C96   C97   1.533512 S    
C52   C54   1.398080 A    
C7    O11   1.349592 S    
C17   H5    1.082822 S    
C15   C29   1.403857 A    
C106  H70   1.109702 S    
C8    O12   1.349826 S    
C44   O18   1.397849 S    
C22   C28   1.408185 A    
C70   C72   1.402898 A    
C18   C20   1.401323 A    
O10   C63   1.349190 S    
C49   C51   1.404529 A    
C41   H21   1.076121 S    
C72   C74   1.401099 A    
C39   H17   1.083557 S    
C107  H73   1.110028 S    
C55   C60   1.399828 A    
C7    N1    1.368836 A    
C6    H10   1.078677 S    
C97   H46   1.111735 S    
C103  H61   1.110478 S    
C101  H56   1.110353 S    
C40   H18   1.083586 S    
C72   H34   1.082559 S    
C75   C81   1.405091 A    
C84   C85   1.430826 A    
O3    C1    1.277220 A    
O8    Cu1   1.949655 S    
C76   C78   1.409052 A    
N4    C64   1.370775 A    
C76   C87   1.425526 A    
C61   N3    1.371960 A    
C94   C95   1.526199 S    
N1    C9    1.368311 A    
C18   H6    1.082803 S    
C27   C40   1.395735 A    
N2    C10   1.367958 A    
C16   C30   1.401995 A    
C55   C57   1.414092 A    
C56   C58   1.410707 A    
C28   C39   1.395552 A    
C97   H47   1.109734 S    
C95   H41   1.110983 S    
C99   C100  1.528971 S    
C61   O15   1.349163 S    
C5    C86   1.411901 A    
O20   C102  1.416511 S    
C102  H58   1.111189 S    
C52   O20   1.390798 S    
C12   C14   1.393975 A    
C12   H15   1.082825 S    
C15   C17   1.393665 A    
C14   C30   1.403437 A    
C65   C73   1.403354 A    
C37   H19   1.076106 S    
C82   C91   1.399770 A    
C31   C37   1.416137 A    
C22   C24   1.407943 A    
Cu1   N6    1.988411 S    
C26   C42   1.388674 A    
C16   C18   1.394565 A    
C33   C42   1.415983 A    
C105  H65   1.109316 S    
O2    Cu2   1.963466 S    
H11   C66   1.082479 S    
C62   O16   1.349093 S    
C102  H59   1.115459 S    
C33   C35   1.421445 A    
C100  H53   1.111875 S    
C89   C91   1.404299 A    
C26   H8    1.083540 S    
C48   C59   1.489075 S    
O5    Cu1   1.950317 S    
C64   C82   1.413115 A    
C94   H40   1.111347 S    
C104  H62   1.110931 S    
C8    N2    1.368222 A    
C31   C34   1.421876 A    
C11   C19   1.401840 A    
C45   H25   1.083294 S    
C108  H75   1.108859 S    
O9    C64   1.348136 S    
C13   C29   1.404123 A    
C66   C74   1.401517 A    
C77   C79   1.400411 A    
O17   C93   1.415660 S    
C107  H72   1.108845 S    
C34   C36   1.421514 A    
H2    C67   1.081456 S    
C42   H22   1.076224 S    
C9    O14   1.349784 S    
N3    C63   1.372338 A    
