data_mof_unit_42433.cif
_audit_creation_date              2012-12-11T17:23:09-0500
_audit_creation_method            fapswitch 2.2
_symmetry_space_group_name_H-M    P1
_symmetry_Int_Tables_number       1
_space_group_crystal_system       triclinic
_cell_length_a                    22.445932
_cell_length_b                    7.094349
_cell_length_c                    19.387764
_cell_angle_alpha                 90.000484
_cell_angle_beta                  99.445438
_cell_angle_gamma                 90.000064
_cell_volume                      3045.43697193

loop_
_atom_site_label
_atom_site_type_symbol
_atom_type_description
_atom_site_fract_x
_atom_site_fract_y
_atom_site_fract_z
_atom_type_partial_charge
O1    O     O_R   0.443980 0.494320 0.557430 -0.521429
O2    O     O_R   0.556020 0.994320 0.442570 -0.521431
O3    O     O_R   0.441210 0.822520 0.414610 -0.536177
O4    O     O_R   0.558790 0.322520 0.585390 -0.536173
C1    C     C_R   0.426700 0.655460 0.388816 0.838907
C2    C     C_R   0.573300 0.155462 0.611184 0.838900
O5    O     O_R   0.436920 0.823940 0.555180 -0.545184
O6    O     O_R   0.563080 0.323940 0.444820 -0.545181
O7    O     O_R   0.551700 0.995760 0.584140 -0.522110
O8    O     O_R   0.448300 0.495760 0.415860 -0.522114
C3    C     C_R   0.421630 0.655377 0.574904 0.751144
C4    C     C_R   0.578370 0.155377 0.425096 0.751130
O9    O     O_3   0.537660 0.661290 0.509340 -0.371544
O10   O     O_3   0.462340 0.161290 0.490660 -0.371549
V1    V     V_3+5 0.493010 0.935560 0.498270 1.598962
V2    V     V_3+5 0.506990 0.435560 0.501730 1.598970
H1    H     H_    0.707216 0.817351 0.293294 0.126887
H2    H     H_    0.292739 0.317345 0.706647 0.126872
C5    C     C_R   0.768681 0.931835 0.229700 -0.150313
C6    C     C_R   0.231294 0.431830 0.770268 -0.150315
H3    H     H_    0.782872 0.793917 0.214707 0.113845
H4    H     H_    0.217083 0.293909 0.785234 0.113838
C7    C     C_R   0.793241 0.095217 0.204543 0.133047
C8    C     C_R   0.206760 0.595216 0.795457 0.133053
C9    C     C_R   0.774008 0.272148 0.224942 -0.147669
C10   C     C_R   0.226017 0.772151 0.775091 -0.147671
H5    H     H_    0.792374 0.400011 0.206220 0.114232
H6    H     H_    0.207672 0.900017 0.793839 0.114236
C11   C     C_R   0.730903 0.285523 0.269799 -0.138848
C12   C     C_R   0.269122 0.785527 0.730234 -0.138847
H7    H     H_    0.716728 0.423441 0.284813 0.121342
H8    H     H_    0.283317 0.923449 0.715246 0.121350
C13   C     C_R   0.706373 0.122143 0.294992 0.129369
C14   C     C_R   0.293627 0.622144 0.705009 0.129377
C15   C     C_R   0.725571 0.945210 0.274554 -0.123678
C16   C     C_R   0.274403 0.445206 0.725413 -0.123682
C17   C     C_1   0.838249 0.081657 0.158382 -0.051727
C18   C     C_1   0.161752 0.581655 0.841618 -0.051726
C19   C     C_1   0.661523 0.135730 0.341344 -0.012237
C20   C     C_1   0.338477 0.635732 0.658656 -0.012234
C21   C     C_1   0.623855 0.145794 0.379763 -0.096682
C22   C     C_1   0.376145 0.645795 0.620237 -0.096677
C23   C     C_1   0.876085 0.071660 0.120171 -0.182495
C24   C     C_1   0.123915 0.571658 0.879830 -0.182496
C25   C     C_R   0.635512 0.199844 0.803164 -0.173973
C26   C     C_R   0.364491 0.699780 0.196834 -0.173974
H9    H     H_    0.715947 0.172110 0.918572 0.131192
H10   H     H_    0.284056 0.672022 0.081426 0.131192
H11   H     H_    0.618294 0.233608 0.850771 0.168854
H12   H     H_    0.381711 0.733515 0.149226 0.168855
C27   C     C_R   0.616214 0.149778 0.677953 -0.182406
C28   C     C_R   0.383786 0.649769 0.322048 -0.182408
C29   C     C_R   0.911812 0.071860 0.760363 -0.165301
C30   C     C_R   0.088187 0.571903 0.239637 -0.165301
C31   C     C_R   0.876322 0.098473 0.695333 -0.128527
C32   C     C_R   0.123677 0.598531 0.304667 -0.128526
C33   C     C_R   0.813952 0.118966 0.689396 -0.080880
C34   C     C_R   0.186047 0.619008 0.310603 -0.080878
C35   C     C_R   0.784655 0.104134 0.748327 0.112231
C36   C     C_R   0.215344 0.604143 0.251673 0.112229
C37   C     C_R   0.822067 0.093063 0.815663 0.058398
C38   C     C_R   0.177933 0.593053 0.184337 0.058397
C39   C     C_R   0.720103 0.118526 0.743302 0.013681
C40   C     C_R   0.279897 0.618518 0.256699 0.013683
C41   C     C_R   0.696669 0.156052 0.805735 0.022162
C42   C     C_R   0.303333 0.656008 0.194264 0.022161
C43   C     C_R   0.734240 0.149185 0.870861 -0.137160
C44   C     C_R   0.265762 0.649124 0.129138 -0.137161
C45   C     C_R   0.795485 0.111259 0.875948 -0.179505
C46   C     C_R   0.204515 0.611216 0.124052 -0.179504
C47   C     C_R   0.677387 0.096793 0.679935 0.249161
C48   C     C_R   0.322611 0.596802 0.320067 0.249161
C49   C     C_R   0.596147 0.204739 0.739784 0.330722
C50   C     C_R   0.403855 0.704693 0.260214 0.330716
C51   C     C_R   0.885783 0.072942 0.821066 -0.083071
C52   C     C_R   0.114216 0.572950 0.178935 -0.083071
H13   H     H_    0.960296 0.058459 0.763654 0.110374
H14   H     H_    0.039702 0.558518 0.236346 0.110373
H15   H     H_    0.790187 0.158837 0.638723 0.179451
H16   H     H_    0.209813 0.658894 0.361275 0.179453
H17   H     H_    0.897524 0.108344 0.649171 0.132291
H18   H     H_    0.102474 0.608428 0.350828 0.132291
H19   H     H_    0.822376 0.105051 0.927654 0.104376
H20   H     H_    0.177625 0.604994 0.072346 0.104374
O11   O     O_R   0.051730 0.724670 0.084120 -0.533772
O12   O     O_R   0.948270 0.224670 0.915880 -0.533771
O13   O     O_R   0.063080 0.393540 0.944820 -0.536389
O14   O     O_R   0.936920 0.893540 0.055180 -0.536388
C53   C     C_R   0.078239 0.562126 0.924926 0.715363
C54   C     C_R   0.921761 0.062126 0.075074 0.715363
O15   O     O_R   0.058800 0.395030 0.085390 -0.535870
O16   O     O_R   0.941200 0.895030 0.914610 -0.535870
O17   O     O_R   0.943980 0.223310 0.057440 -0.534011
O18   O     O_R   0.056020 0.723310 0.942560 -0.534010
C55   C     C_R   0.072854 0.563648 0.111243 0.683707
C56   C     C_R   0.927145 0.063647 0.888757 0.683707
O19   O     O_3   0.962360 0.556290 0.990650 -0.369435
O20   O     O_3   0.037640 0.056290 0.009350 -0.369435
V3    V     V_3+5 0.006980 0.281990 0.001730 1.436307
V4    V     V_3+5 0.993020 0.781990 0.998270 1.436309
Cl1   Cl    Cl    0.520433 0.270188 0.740271 -0.644367
Cl2   Cl    Cl    0.479571 0.770116 0.259726 -0.644369
Cl3   Cl    Cl    0.694652 0.972338 0.606414 -0.691233
Cl4   Cl    Cl    0.305343 0.472382 0.393594 -0.691241

loop_
_geom_bond_atom_site_label_1
_geom_bond_atom_site_label_2
_ccdc_geom_bond_type
C42   C44   A    
C39   C41   A    
C17   C23   T    
O12   V3    S    
C33   H15   S    
C5    C7    A    
O1    C3    A    
O2    C4    A    
C2    O7    A    
C19   C21   T    
C37   C51   A    
O5    C3    A    
C13   C19   S    
C28   C48   A    
C36   C38   A    
C5    H3    S    
C8    C10   A    
C26   C42   A    
C28   C50   A    
C52   C55   S    
C33   C35   A    
C34   C36   A    
C11   C13   A    
O16   C56   A    
C38   C46   A    
C3    C22   S    
C25   C49   A    
C53   O18   A    
C6    C8    A    
C41   C43   A    
C8    C18   S    
C1    C28   S    
C25   H11   S    
C2    C27   S    
C31   H17   S    
C46   H20   S    
O17   V3    S    
C34   H16   S    
C50   Cl2   S    
C49   Cl1   S    
O6    V2    S    
C38   C52   A    
C29   C51   A    
C27   C47   A    
H9    C43   S    
O19   V3    S    
C51   C56   S    
O13   V3    S    
C29   C31   A    
C9    C11   A    
C30   C32   A    
C35   C37   A    
C23   C54   S    
C12   C14   A    
O4    C2    A    
O5    V1    S    
C48   Cl4   S    
C7    C17   S    
C43   C45   A    
C40   C42   A    
O4    V2    S    
C29   H13   S    
C18   C24   T    
C4    C21   S    
C45   H19   S    
O18   V4    S    
O6    C4    A    
O1    V2    S    
H10   C44   S    
O2    V1    S    
O14   V4    S    
O12   C56   A    
C30   C52   A    
C6    H4    S    
C10   C12   A    
O20   V4    S    
O13   C53   A    
C25   C41   A    
C14   C20   S    
C26   C50   A    
O19   V4    S    
O3    V1    S    
O16   V4    S    
C54   O17   A    
C37   C45   A    
C47   Cl3   S    
C10   H6    S    
C27   C49   A    
O14   C54   A    
O3    C1    A    
C32   H18   S    
C9    H5    S    
C26   H12   S    
C35   C39   A    
C36   C40   A    
C31   C33   A    
O7    V1    S    
C1    O8    A    
C11   H7    S    
O11   V4    S    
O8    V2    S    
C12   H8    S    
O11   C55   A    
C20   C22   T    
C13   C15   A    
C32   C34   A    
C14   C16   A    
C40   C48   A    
O15   C55   A    
C6    C16   A    
C7    C9    A    
C44   C46   A    
O20   V3    S    
O9    V2    S    
O10   V1    S    
C5    C15   A    
H1    C15   S    
O15   V3    S    
H2    C16   S    
C39   C47   A    
C24   C53   S    
C30   H14   S    
