data_mof_unit_32170.cif
_audit_creation_date              2013-03-05T15:52:56-0500
_audit_creation_method            fapswitch 2.2
_symmetry_space_group_name_H-M    P1
_symmetry_Int_Tables_number       1
_space_group_crystal_system       triclinic
_cell_length_a                    10.697513
_cell_length_b                    10.760894
_cell_length_c                    17.088351
_cell_angle_alpha                 99.932013
_cell_angle_beta                  99.463247
_cell_angle_gamma                 60.776561
_cell_volume                      1683.64616784

loop_
_atom_site_label
_atom_site_type_symbol
_atom_site_description
_atom_site_fract_x
_atom_site_fract_y
_atom_site_fract_z
_atom_type_partial_charge
O1    O     O_R   0.749810 0.499790 0.438040 -0.484778
O2    O     O_R   0.477660 0.726260 0.439290 -0.510821
C1    C     C_R   0.355075 0.777208 0.401591 0.548863
O3    O     O_R   0.260150 0.743000 0.412270 -0.469532
O4    O     O_R   0.297740 0.466550 0.394720 -0.457361
C2    C     C_R   0.369753 0.346210 0.357477 0.560003
O5    O     O_R   0.488080 0.253500 0.386430 -0.511934
O6    O     O_R   0.722670 0.303800 0.421940 -0.512334
C3    C     C_R   0.780431 0.372505 0.404875 0.546942
O7    O     O_R   0.751130 0.502220 0.613520 -0.497680
O8    O     O_R   0.478890 0.728510 0.601960 -0.493123
C4    C     C_R   0.381077 0.714618 0.631209 0.522050
O9    O     O_R   0.261470 0.745430 0.587750 -0.454419
O10   O     O_R   0.298970 0.468800 0.557390 -0.492097
C5    C     C_R   0.406121 0.374826 0.599996 0.506958
O11   O     O_R   0.489400 0.255930 0.561910 -0.502303
O12   O     O_R   0.723890 0.306050 0.584610 -0.517050
C6    C     C_R   0.773018 0.381086 0.629849 0.537790
Cr1   Cr    Cr6+3 0.608100 0.610860 0.522250 1.065062
Cr2   Cr    Cr6+3 0.288890 0.599990 0.488420 1.136670
Cr3   Cr    Cr6+3 0.603040 0.289190 0.489390 1.048020
O13   O     O_3   0.500010 0.500010 0.500020 -0.310982
C7    C     C_1   0.343315 0.335873 0.274181 -0.022017
C8    C     C_1   0.331144 0.326786 0.203434 -0.028981
H1    H     H_    0.951435 0.454223 0.354562 0.193665
C9    C     C_R   0.867817 0.319424 0.171339 -0.006636
C10   C     C_R   0.812539 0.236052 0.192273 -0.000195
C11   C     C_R   0.822147 0.220728 0.273535 0.009818
C12   C     C_R   0.916957 0.389547 0.310197 -0.142854
C13   C     C_R   0.928490 0.387075 0.230837 -0.142083
C14   C     C_R   0.752348 0.164084 0.134510 -0.104403
C15   C     C_R   0.721187 0.064200 0.156078 -0.105764
C16   C     C_R   0.744846 0.038264 0.235183 -0.098616
C17   C     C_R   0.797222 0.112962 0.293345 -0.074317
C18   C     C_R   0.853197 0.316390 0.331731 -0.014869
H2    H     H_    0.729057 0.183791 0.072497 0.131159
H3    H     H_    0.983835 0.440304 0.216051 0.169138
H4    H     H_    0.680558 0.005225 0.111240 0.153890
H5    H     H_    0.720377 0.961844 0.251906 0.149481
H6    H     H_    0.821979 0.081515 0.353029 0.169831
H7    H     H_    0.109849 0.923968 0.315366 0.161082
C19   C     C_R   0.317843 0.858391 0.167994 0.010865
C20   C     C_R   0.455178 0.803852 0.210074 -0.001651
C21   C     C_R   0.463155 0.816217 0.294101 -0.055312
C22   C     C_R   0.205666 0.897089 0.287992 -0.136521
C23   C     C_R   0.194425 0.907053 0.208215 -0.144465
C24   C     C_R   0.584458 0.738639 0.171915 0.249661
C25   C     C_R   0.713118 0.717029 0.217069 -0.102928
C26   C     C_R   0.718608 0.750152 0.300099 0.139179
C27   C     C_R   0.593695 0.798972 0.338027 -0.079907
C28   C     C_R   0.339725 0.844332 0.330897 0.001588
H8    H     H_    0.086800 0.953184 0.177964 0.165775
H9    H     H_    0.808806 0.676173 0.186520 0.171072
H10   H     H_    0.597817 0.830290 0.401541 0.189057
H11   H     H_    0.168704 0.540570 0.679811 0.199187
C29   C     C_R   0.297063 0.274206 0.798736 -0.000551
C30   C     C_R   0.423912 0.175042 0.761816 0.027038
C31   C     C_R   0.475962 0.224730 0.711603 -0.007623
C32   C     C_R   0.243824 0.442020 0.705283 -0.128586
C33   C     C_R   0.206105 0.406113 0.768602 -0.131709
C34   C     C_R   0.504627 0.030086 0.777009 -0.127168
C35   C     C_R   0.644746 0.945601 0.756055 -0.101043
C36   C     C_R   0.708203 0.004076 0.719289 0.222443
C37   C     C_R   0.622920 0.143102 0.697018 -0.086774
C38   C     C_R   0.377972 0.351913 0.675780 -0.016504
H12   H     H_    0.460852 0.981858 0.806237 0.156217
H13   H     H_    0.106746 0.481986 0.794413 0.169780
H14   H     H_    0.704486 0.836293 0.770929 0.154635
H15   H     H_    0.671992 0.186968 0.668461 0.175528
C39   C     C_1   0.818413 0.342362 0.709003 -0.031735
C40   C     C_1   0.845826 0.313372 0.776504 -0.024730
C41   C     C_1   0.358360 0.763943 0.713494 -0.031440
C42   C     C_1   0.326201 0.810719 0.780627 -0.025297
O14   O     O_R   0.171100 0.914680 0.053100 -0.535148
O15   O     O_R   0.941680 0.184840 0.050710 -0.514024
C43   C     C_R   0.900063 0.307158 0.090570 0.521265
O16   O     O_R   0.922080 0.403420 0.072610 -0.504895
O17   O     O_R   0.196880 0.369150 0.083850 -0.491657
C44   C     C_R   0.319004 0.300098 0.120127 0.550400
O18   O     O_R   0.411730 0.181020 0.091530 -0.524192
O19   O     O_R   0.365010 0.944360 0.063320 -0.451785
C45   C     C_R   0.290484 0.896945 0.087375 0.575299
O20   O     O_R   0.159380 0.906670 0.876210 -0.459932
O21   O     O_R   0.930820 0.177420 0.886730 -0.480694
C46   C     C_R   0.886973 0.296927 0.858841 0.539443
O22   O     O_R   0.910360 0.395420 0.895720 -0.519546
O23   O     O_R   0.186010 0.361730 0.919870 -0.496030
C47   C     C_R   0.278501 0.251725 0.877216 0.543051
O24   O     O_R   0.400000 0.173010 0.914630 -0.520610
O25   O     O_R   0.354140 0.936940 0.899340 -0.535669
C48   C     C_R   0.281409 0.880406 0.857830 0.549312
Cr4   Cr    Cr6+3 0.053960 0.052250 0.967380 1.043875
Cr5   Cr    Cr6+3 0.059890 0.373160 0.992710 1.037672
Cr6   Cr    Cr6+3 0.373370 0.061690 0.991710 1.026632
O26   O     O_3   0.162410 0.162370 0.983930 -0.281857
N1    N     N_R   0.849932 0.736741 0.345485 0.045809
O27   O     O_R   0.857031 0.762353 0.422919 -0.331577
O28   O     O_R   0.963382 0.700042 0.309731 -0.375778
N2    N     N_R   0.856846 0.922142 0.703053 0.091843
O29   O     O_R   0.914555 0.974416 0.665812 -0.322138
O30   O     O_R   0.936692 0.795351 0.726725 -0.361992
O31   O     O_3   0.589688 0.693806 0.090884 -0.550967
C49   C     C_3   0.558913 0.577525 0.072337 -0.090374
H16   H     H_    0.617378 0.508291 0.020470 0.149437
H17   H     H_    0.442641 0.615996 0.054237 0.122410
H18   H     H_    0.592280 0.509569 0.121980 0.099061

loop_
_geom_bond_atom_site_label_1
_geom_bond_atom_site_label_2
_geom_bond_distance
_ccdc_geom_bond_type
C6    C39   1.421222 S    
O23   C47   1.306671 A    
O11   Cr3   2.053024 S    
H11   C32   1.082563 S    
C19   C45   1.449725 S    
C20   C21   1.411262 A    
O19   C45   1.281482 A    
C30   C31   1.392211 A    
O4    Cr2   1.938716 S    
C46   O22   1.248890 A    
O20   Cr4   2.040564 S    
O8    Cr1   1.919442 S    
C9    C10   1.407419 A    
C35   C36   1.394707 A    
C17   H6    1.080541 S    
O4    C2    1.256285 A    
C29   C47   1.463843 S    
C22   C28   1.385396 A    
O17   Cr5   1.945750 S    
C5    O11   1.282432 A    
C5    C38   1.462672 S    
C23   H8    1.083482 S    
C29   C30   1.418981 A    
O12   C6    1.261448 A    
C19   C23   1.410277 A    
O14   Cr4   2.059263 S    
O24   Cr6   2.062025 S    
C36   N2    1.440324 S    
C31   C38   1.422604 A    
C40   C46   1.418081 S    
C34   H12   1.068509 S    
C16   H5    1.068790 S    
N2    O29   1.301640 A    
C33   H13   1.083270 S    
O6    C3    1.262195 A    
N1    O28   1.301841 A    
C9    C43   1.445902 S    
C7    C8    1.186582 T    
C39   C40   1.198910 T    
C15   H4    1.082041 S    
C4    C41   1.430698 S    
C11   C17   1.413342 A    
C32   C33   1.386686 A    
Cr5   O26   1.969288 S    
C24   O31   1.386326 S    
Cr3   O13   1.968904 S    
C31   C37   1.417782 A    
O31   C49   1.416218 S    
O14   C45   1.251041 A    
O25   Cr6   1.941095 S    
H1    C12   1.082526 S    
C25   H9    1.082003 S    
O1    Cr1   2.037700 S    
C10   C14   1.415236 A    
C24   C25   1.394250 A    
O10   Cr2   1.943494 S    
Cr1   O13   1.987518 S    
O1    C3    1.288302 A    
C43   O16   1.262681 A    
C42   C48   1.431136 S    
C1    C28   1.458777 S    
O17   C44   1.260108 A    
O5    Cr3   2.066886 S    
Cr4   O26   1.987205 S    
O12   Cr3   1.946106 S    
C44   O18   1.251792 A    
C13   H3    1.082916 S    
O15   C43   1.270011 A    
C12   C13   1.376358 A    
O22   Cr5   2.062547 S    
C8    C44   1.400188 S    
C14   C15   1.388934 A    
O7    Cr1   2.058643 S    
N1    O27   1.301620 A    
C16   C17   1.388860 A    
Cr6   O26   1.961640 S    
C49   H17   1.108612 S    
C27   H10   1.079859 S    
C37   H15   1.068727 S    
O21   C46   1.284464 A    
O15   Cr4   1.922058 S    
C21   C28   1.430963 A    
C25   C26   1.400777 A    
N2    O30   1.301383 A    
Cr2   O13   1.962457 S    
C9    C13   1.404989 A    
C19   C20   1.405764 A    
O18   Cr6   2.062929 S    
C1    O3    1.284158 A    
C10   C11   1.407683 A    
C21   C27   1.413609 A    
C11   C18   1.425168 A    
O9    Cr2   2.053207 S    
O2    Cr1   1.940038 S    
C14   H2    1.081254 S    
C41   C42   1.203845 T    
O6    Cr3   1.932607 S    
O8    C4    1.310539 A    
C30   C34   1.413144 A    
C2    O5    1.254436 A    
O20   C48   1.275372 A    
C12   C18   1.388217 A    
C35   H14   1.082723 S    
C15   C16   1.384881 A    
O2    C1    1.255903 A    
C32   C38   1.401553 A    
O19   Cr6   1.943897 S    
O25   C48   1.269034 A    
O7    C6    1.279755 A    
C2    C7    1.400760 S    
O23   Cr5   1.929269 S    
O16   Cr5   2.045327 S    
C49   H18   1.114166 S    
C26   N1    1.441626 S    
C34   C35   1.391079 A    
C36   C37   1.401737 A    
O3    Cr2   2.062368 S    
C22   C23   1.366885 A    
C29   C33   1.401967 A    
C47   O24   1.286133 A    
C26   C27   1.401253 A    
C49   H16   1.109636 S    
C3    C18   1.460630 S    
H7    C22   1.083796 S    
O10   C5    1.309320 A    
O21   Cr4   1.939009 S    
C4    O9    1.287178 A    
C20   C24   1.421737 A    
