data_mof_unit_5334.cif
_audit_creation_date              2012-12-10T18:57:52-0500
_audit_creation_method            fapswitch 2.2
_symmetry_space_group_name_H-M    P1
_symmetry_Int_Tables_number       1
_space_group_crystal_system       triclinic
_cell_length_a                    10.648014
_cell_length_b                    9.874371
_cell_length_c                    8.905677
_cell_angle_alpha                 89.89548
_cell_angle_beta                  90.129518
_cell_angle_gamma                 89.972517
_cell_volume                      936.360555455

loop_
_atom_site_label
_atom_site_type_symbol
_atom_type_description
_atom_site_fract_x
_atom_site_fract_y
_atom_site_fract_z
_atom_type_partial_charge
C1    C     C_R   0.260655 0.500022 0.500017 0.885947
C2    C     C_R   0.065236 0.549589 0.627009 -0.057539
C3    C     C_R   0.871903 0.499958 0.499990 -0.125853
C4    C     C_R   0.128097 0.500042 0.500010 -0.125851
C5    C     C_R   0.579674 0.071632 0.591321 -0.056408
C6    C     C_R   0.420326 0.928368 0.408679 -0.056408
C7    C     C_R   0.420323 0.072036 0.408675 -0.054827
C8    C     C_R   0.579677 0.927964 0.591325 -0.054827
C9    C     C_1   0.133383 0.402765 0.242251 0.176065
C10   C     C_1   0.866616 0.597241 0.757743 0.176065
C11   C     C_1   0.865853 0.403058 0.242045 0.193473
C12   C     C_R   0.739345 0.499978 0.499982 0.885943
C13   C     C_1   0.134146 0.596926 0.757965 0.193472
C14   C     C_R   0.499944 0.500082 0.218712 0.939471
C15   C     C_R   0.500056 0.499918 0.781288 0.939472
C16   C     C_1   0.499977 0.500123 0.065401 -0.151131
C17   C     C_1   0.500023 0.499877 0.934599 -0.151131
C18   C     C_R   0.064849 0.450401 0.373027 -0.056953
C19   C     C_R   0.935151 0.549598 0.626972 -0.056952
C20   C     C_R   0.934763 0.450408 0.372993 -0.057541
H1    H     H_    0.643467 0.125688 0.664469 0.138613
H2    H     H_    0.356533 0.874312 0.335531 0.138613
H3    H     H_    0.356519 0.126417 0.335536 0.142302
H4    H     H_    0.643481 0.873583 0.664464 0.142303
N1    N     N_R   0.500000 0.857200 0.500000 -0.085391
N2    N     N_R   0.500000 0.142800 0.500000 -0.085390
N3    N     N_1   0.187917 0.364890 0.138181 -0.200255
N4    N     N_1   0.812084 0.635124 0.861811 -0.200258
N5    N     N_1   0.811053 0.365432 0.137793 -0.193225
N6    N     N_1   0.188949 0.634539 0.862222 -0.193225
O1    O     O_R   0.316770 0.614620 0.499990 -0.619039
O2    O     O_R   0.683230 0.385380 0.500010 -0.619038
O3    O     O_R   0.683230 0.614620 0.500010 -0.617777
O4    O     O_R   0.316770 0.385380 0.499990 -0.617779
O5    O     O_R   0.500010 0.614640 0.285340 -0.618333
O6    O     O_R   0.499990 0.385360 0.714660 -0.618333
O7    O     O_R   0.499990 0.614640 0.714660 -0.610593
O8    O     O_R   0.500010 0.385360 0.285340 -0.610592
Zn1   Zn    Zn3+2 0.500000 0.653120 0.500000 0.971455
Zn2   Zn    Zn3+2 0.500000 0.346880 0.500000 0.971455

loop_
_geom_bond_atom_site_label_1
_geom_bond_atom_site_label_2
_ccdc_geom_bond_type
C5    C8    A    
C2    C4    A    
C3    C19   A    
C6    C7    A    
C12   O2    A    
C14   C16   S    
C14   O8    A    
C9    C18   S    
O5    Zn1   S    
O6    Zn2   S    
C10   C19   S    
C1    C4    S    
C4    C18   A    
C2    C19   A    
C3    C20   A    
O7    Zn1   S    
N1    Zn1   S    
C11   N5    T    
O8    Zn2   S    
C8    N1    A    
N2    Zn2   S    
O3    Zn1   S    
C7    N2    A    
C7    H3    S    
C8    H4    S    
O1    Zn1   S    
C1    O4    A    
C18   C20   A    
O2    Zn2   S    
O4    Zn2   S    
C11   C20   S    
C6    N1    A    
C5    N2    A    
C6    H2    S    
C13   N6    T    
C1    O1    A    
C5    H1    S    
C9    N3    T    
C10   N4    T    
C14   O5    A    
C15   C17   S    
C2    C13   S    
C15   O6    A    
C3    C12   S    
C12   O3    A    
C15   O7    A    
C16   C17   T    
