data_mof_unit_56135.cif
_audit_creation_date              2012-10-26T21:10:52-0400
_audit_creation_method            fapswitch 2.2
_symmetry_space_group_name_H-M    P1
_symmetry_Int_Tables_number       1
_space_group_crystal_system       triclinic
_cell_length_a                    10.901257
_cell_length_b                    14.685826
_cell_length_c                    14.461972
_cell_angle_alpha                 65.559027
_cell_angle_beta                  102.469976
_cell_angle_gamma                 101.966816
_cell_volume                      2039.85851639

loop_
_atom_site_label
_atom_site_type_symbol
_atom_type_description
_atom_site_fract_x
_atom_site_fract_y
_atom_site_fract_z
_atom_type_partial_charge
Br1   Br    Br    0.155186 0.443698 0.524523 -0.463897
Br2   Br    Br    0.844792 0.556293 0.475501 -0.463895
Br3   Br    Br    0.513187 0.983693 0.853288 -0.556457
Br4   Br    Br    0.486811 0.016309 0.146711 -0.556442
C1    C     C_R   0.477377 0.119291 0.311006 0.599297
C2    C     C_R   0.514610 0.776957 0.976684 -0.092507
C3    C     C_R   0.481265 0.153539 0.123927 0.126642
C4    C     C_R   0.518726 0.846461 0.876072 0.126641
C5    C     C_R   0.446316 0.285956 0.170625 0.175760
C6    C     C_R   0.553680 0.714043 0.829376 0.175763
C7    C     C_R   0.475775 0.359622 0.074788 0.047139
C8    C     C_R   0.524216 0.640377 0.925212 0.047137
C9    C     C_R   0.485644 0.325591 0.998669 -0.010781
C10   C     C_R   0.514338 0.674408 0.001330 -0.010783
C11   C     C_R   0.494028 0.465367 0.051280 0.057918
C12   C     C_R   0.522623 0.880709 0.688994 0.599295
C13   C     C_R   0.505963 0.534632 0.948720 0.057921
C14   C     C_R   0.492534 0.495988 0.872079 -0.078553
C15   C     C_R   0.507451 0.504012 0.127920 -0.078554
C16   C     C_R   0.262992 0.000769 0.501704 0.554138
C17   C     C_R   0.737008 0.999231 0.498297 0.554140
C18   C     C_R   0.489862 0.393695 0.897552 -0.122296
C19   C     C_R   0.510115 0.606305 0.102446 -0.122295
C20   C     C_R   0.692469 0.275622 0.682284 -0.114302
C21   C     C_R   0.307504 0.724369 0.317728 -0.114304
C22   C     C_R   0.668888 0.198209 0.646502 0.081179
C23   C     C_R   0.869943 0.997423 0.496792 0.012758
C24   C     C_R   0.331098 0.801786 0.353506 0.081178
C25   C     C_R   0.523429 0.287400 0.505988 0.050944
C26   C     C_R   0.476575 0.712601 0.494008 0.050943
C27   C     C_R   0.546584 0.370664 0.536231 0.018238
C28   C     C_R   0.453404 0.629332 0.463772 0.018233
C29   C     C_R   0.630390 0.361313 0.628350 0.054841
C30   C     C_R   0.369584 0.638678 0.371659 0.054840
C31   C     C_R   0.488081 0.461011 0.480334 0.041055
C32   C     C_R   0.511900 0.538983 0.519670 0.041062
C33   C     C_R   0.592412 0.523566 0.613887 -0.124337
C34   C     C_R   0.130057 0.002576 0.503210 0.012758
C35   C     C_R   0.407554 0.476423 0.386124 -0.124349
C36   C     C_R   0.650929 0.436985 0.666546 -0.096415
C37   C     C_R   0.349031 0.563001 0.333468 -0.096410
C38   C     C_R   0.317658 0.181053 0.709633 -0.124363
C39   C     C_R   0.682349 0.818947 0.290366 -0.124361
C40   C     C_R   0.256134 0.112394 0.664702 -0.046982
C41   C     C_R   0.743872 0.887607 0.335296 -0.046987
C42   C     C_R   0.171377 0.144212 0.572768 0.010359
C43   C     C_R   0.828622 0.855788 0.427234 0.010357
C44   C     C_R   0.147509 0.245357 0.528245 -0.068938
C45   C     C_R   0.911715 0.930518 0.465936 -0.020359
C46   C     C_R   0.852481 0.754641 0.471765 -0.068933
C47   C     C_R   0.204883 0.312316 0.575924 0.178558
C48   C     C_R   0.795106 0.687681 0.424088 0.178556
C49   C     C_R   0.291424 0.280541 0.665702 -0.092218
C50   C     C_R   0.708574 0.719457 0.334303 -0.092220
C51   C     C_R   0.958959 0.064977 0.530566 -0.133824
C52   C     C_R   0.041040 0.935022 0.469436 -0.133824
C53   C     C_R   0.088284 0.069481 0.534066 -0.020357
C54   C     C_R   0.466952 0.185704 0.200358 0.036346
C55   C     C_R   0.533045 0.814296 0.799643 0.036346
C56   C     C_R   0.485370 0.223042 0.023315 -0.092508
Cl1   Cl    Cl    0.659700 0.693532 0.764877 -0.668633
Cl2   Cl    Cl    0.340295 0.306464 0.235125 -0.668640
Cu1   Cu    Cu3+1 0.466270 0.918260 0.475690 1.004587
Cu2   Cu    Cu3+1 0.533730 0.081740 0.524310 1.004582
H1    H     H_    0.335996 0.332267 0.702655 0.135012
H2    H     H_    0.453806 0.284743 0.441852 0.169190
H3    H     H_    0.285149 0.868841 0.310800 0.158380
H4    H     H_    0.714833 0.131153 0.689211 0.158388
H5    H     H_    0.757674 0.267978 0.752432 0.123558
H6    H     H_    0.242287 0.732009 0.247587 0.123554
H7    H     H_    0.612848 0.577576 0.649030 0.160402
H8    H     H_    0.387099 0.422406 0.350988 0.160408
H9    H     H_    0.382246 0.156744 0.780653 0.172195
H10   H     H_    0.617768 0.843258 0.219341 0.172195
H11   H     H_    0.271459 0.034014 0.702818 0.164765
H12   H     H_    0.664004 0.667731 0.297351 0.135015
H13   H     H_    0.728554 0.965988 0.297177 0.164762
H14   H     H_    0.078642 0.270491 0.459679 0.158226
H15   H     H_    0.921342 0.729506 0.540335 0.158233
H16   H     H_    0.928024 0.114685 0.556756 0.149199
H17   H     H_    0.071974 0.885313 0.443247 0.149197
H18   H     H_    0.488309 0.367485 0.837399 0.104041
H19   H     H_    0.511658 0.632514 0.162599 0.104046
H20   H     H_    0.491851 0.197093 0.964586 0.161911
H21   H     H_    0.508119 0.802906 0.035412 0.161913
H22   H     H_    0.483020 0.543810 0.791488 0.165880
H23   H     H_    0.516963 0.456191 0.208510 0.165886
H24   H     H_    0.713276 0.429349 0.738030 0.143158
H25   H     H_    0.286667 0.570631 0.261992 0.143162
H26   H     H_    0.546215 0.715264 0.558134 0.169188
N1    N     N_R   0.584450 0.204570 0.560790 -0.239371
N2    N     N_R   0.415550 0.795430 0.439210 -0.239368
O1    O     O_R   0.455540 0.022090 0.338120 -0.474702
O2    O     O_R   0.544460 0.977910 0.661880 -0.474708
O3    O     O_R   0.512510 0.160150 0.379180 -0.477573
O4    O     O_R   0.487490 0.839850 0.620820 -0.477567
O5    O     O_R   0.291160 0.930970 0.479480 -0.517866
O6    O     O_R   0.708840 0.069030 0.520520 -0.517864
O7    O     O_R   0.348130 0.069020 0.520540 -0.491315
O8    O     O_R   0.651870 0.930980 0.479460 -0.491315

loop_
_geom_bond_atom_site_label_1
_geom_bond_atom_site_label_2
_ccdc_geom_bond_type
C37   H25   S    
C51   H16   S    
C56   H20   S    
C31   C35   A    
C31   C32   A    
C26   H26   S    
C46   H15   S    
C52   H17   S    
C35   C37   A    
C9    C56   A    
C21   C24   A    
C11   C15   A    
Cu2   O7    S    
C14   H22   S    
C2    H21   S    
C19   H19   S    
C1    C54   S    
C28   C32   A    
C32   C33   A    
C20   C22   A    
C33   C36   A    
C15   H23   S    
C4    C55   A    
C23   C51   A    
C5    C54   A    
C44   H14   S    
C7    C11   A    
C44   C47   A    
C16   O5    A    
C40   C42   A    
C8    C13   A    
C46   C48   A    
C35   H8    S    
C27   C29   A    
C49   H1    S    
C3    C54   A    
C21   C30   A    
C5    C7    A    
C39   H10   S    
Cu2   O6    S    
C17   C23   S    
C30   C37   A    
C38   C40   A    
Br4   C3    S    
C6    C8    A    
C1    O3    A    
C48   C50   A    
C20   H5    S    
C43   C46   A    
C41   C43   A    
C42   C44   A    
C38   C49   A    
C12   O4    A    
C29   C36   A    
C5    Cl2   S    
C24   H3    S    
C26   N2    A    
Br3   C4    S    
C17   O8    A    
C2    C4    A    
C22   N1    A    
Cu1   O4    S    
C25   H2    S    
C47   C49   A    
C12   C55   S    
C28   C30   A    
C10   C19   A    
Cu1   N2    S    
C40   H11   S    
C15   C19   A    
Cu1   O8    S    
C2    C10   A    
C34   C53   A    
C16   C34   S    
C39   C50   A    
C13   C14   A    
C24   N2    A    
C39   C41   A    
Br1   C47   S    
Br2   C48   S    
C50   H12   S    
C8    C10   A    
C51   C53   A    
C42   C53   S    
C27   C31   A    
C6    Cl1   S    
C18   H18   S    
C3    C56   A    
C25   N1    A    
C11   C13   A    
C38   H9    S    
C14   C18   A    
Cu2   O3    S    
C1    O1    A    
C43   C45   S    
C45   C52   A    
Cu1   O1    S    
C12   O2    A    
C20   C29   A    
C22   H4    S    
C36   H24   S    
C33   H7    S    
C6    C55   A    
Cu2   O2    S    
C25   C27   A    
C26   C28   A    
C17   O6    A    
C7    C9    A    
C16   O7    A    
C9    C18   A    
Cu1   Cu2   S    
C34   C52   A    
Cu1   O5    S    
C41   H13   S    
C21   H6    S    
Cu2   N1    S    
C23   C45   A    
