data_mof_unit_34583.cif
_audit_creation_date              2012-10-26T19:57:15-0400
_audit_creation_method            fapswitch 2.2
_symmetry_space_group_name_H-M    P1
_symmetry_Int_Tables_number       1
_space_group_crystal_system       triclinic
_cell_length_a                    13.071447
_cell_length_b                    11.053771
_cell_length_c                    9.668655
_cell_angle_alpha                 89.565792
_cell_angle_beta                  95.262346
_cell_angle_gamma                 90.077089
_cell_volume                      1391.08379469

loop_
_atom_site_label
_atom_site_type_symbol
_atom_type_description
_atom_site_fract_x
_atom_site_fract_y
_atom_site_fract_z
_atom_type_partial_charge
C1    C     C_R   0.498270 0.265271 0.499848 0.569210
C2    C     C_2   0.485844 0.133363 0.499095 0.219312
C3    C     C_2   0.428918 0.446763 0.913485 -0.010454
C4    C     C_R   0.300830 0.504706 0.474863 0.555664
C5    C     C_2   0.437629 0.430460 0.073101 0.438171
C6    C     C_R   0.503010 0.734308 0.499888 0.554760
C7    C     C_R   0.699640 0.498845 0.524852 0.542585
C8    C     C_R   0.812657 0.497415 0.538038 0.016634
C9    C     C_R   0.189010 0.518219 0.462125 0.009136
C10   C     C_R   0.029842 0.585945 0.339072 -0.129810
C11   C     C_R   0.135601 0.568457 0.341331 0.239635
C12   C     C_R   0.028225 0.493935 0.567237 -0.006820
C13   C     C_R   0.134986 0.484655 0.575735 -0.184314
C14   C     C_3   0.841009 0.449972 0.201680 -0.038914
C15   C     C_3   0.771033 0.341396 0.214928 -0.362477
C16   C     C_3   0.338783 0.100956 0.604352 -0.016529
C17   C     C_3   0.292832 0.027016 0.716749 -0.374805
C18   C     C_3   0.319075 0.268397 0.054041 -0.034317
C19   C     C_3   0.252982 0.191998 0.142868 -0.378590
C20   C     C_3   0.614767 0.643594 0.123389 0.070876
C21   C     C_3   0.636119 0.750427 0.030187 -0.404773
C22   C     C_3   0.152793 0.539735 0.110406 -0.007144
C23   C     C_R   0.975153 0.537431 0.443801 0.004069
C24   C     C_3   0.193501 0.594578 0.981791 -0.373400
C25   C     C_3   0.380200 0.933044 0.189574 -0.002912
C26   C     C_3   0.334497 0.848060 0.078549 -0.354597
C27   C     C_3   0.633519 0.069504 0.226582 -0.009960
C28   C     C_3   0.632063 0.091938 0.070775 -0.367355
C29   C     C_R   0.867982 0.526655 0.423519 0.267265
C30   C     C_R   0.866375 0.464538 0.665500 -0.186823
C31   C     C_R   0.973375 0.458570 0.678481 -0.152644
C32   C     C_2   0.493019 0.933546 0.386947 0.227422
C33   C     C_2   0.515312 0.864984 0.501049 -0.096482
C34   C     C_2   0.514322 0.066065 0.391788 0.215513
Cu1   Cu    Cu3+1 0.500020 0.500020 0.638640 0.913099
Cu2   Cu    Cu3+1 0.499980 0.499980 0.361360 1.088137
H1    H     H_    0.361769 0.414354 0.851298 0.109360
H2    H     H_    0.792775 0.269673 0.143491 0.078341
H3    H     H_    0.780124 0.305409 0.322805 0.148268
H4    H     H_    0.300280 0.073236 0.501728 0.106876
H5    H     H_    0.322899 0.198308 0.621941 0.142062
H6    H     H_    0.329934 0.051749 0.820623 0.144231
H7    H     H_    0.209103 0.045006 0.713923 0.090477
H8    H     H_    0.304917 0.928986 0.699603 0.164672
H9    H     H_    0.371721 0.208554 0.001716 0.132700
H10   H     H_    0.264913 0.315467 0.976532 0.085683
H11   H     H_    0.187133 0.245149 0.174142 0.120474
H12   H     H_    0.569057 0.511788 0.900892 0.222540
H13   H     H_    0.222300 0.112397 0.083203 0.084682
H14   H     H_    0.298850 0.162020 0.239177 0.162198
H15   H     H_    0.665750 0.568570 0.098226 0.123255
H16   H     H_    0.634013 0.671449 0.232198 0.218414
H17   H     H_    0.584231 0.826456 0.049186 0.184840
H18   H     H_    0.716973 0.780587 0.052591 0.097728
H19   H     H_    0.623373 0.724518 0.919221 0.155610
H20   H     H_    0.989479 0.632113 0.251136 0.146692
H21   H     H_    0.067780 0.536671 0.089441 0.093005
H22   H     H_    0.181235 0.446002 0.123554 0.163392
H23   H     H_    0.825531 0.439208 0.753890 0.127073
H24   H     H_    0.278434 0.596833 0.993485 0.176346
H25   H     H_    0.168299 0.538943 0.890088 0.085163
H26   H     H_    0.163107 0.687679 0.964064 0.147183
H27   H     H_    0.403541 0.016668 0.137014 0.173680
H28   H     H_    0.319744 0.952221 0.260647 0.117948
H29   H     H_    0.315548 0.761950 0.129297 0.238910
H30   H     H_    0.263603 0.887930 0.024764 0.074027
H31   H     H_    0.390352 0.830571 0.001152 0.168858
H32   H     H_    0.639791 0.970332 0.244448 0.148331
H33   H     H_    0.703393 0.110736 0.280365 0.118309
H34   H     H_    0.013009 0.427209 0.775454 0.102935
H35   H     H_    0.565656 0.044587 0.015349 0.156646
H36   H     H_    0.624563 0.190053 0.046916 0.156964
H37   H     H_    0.704075 0.057579 0.032641 0.091251
H38   H     H_    0.175722 0.447218 0.668981 0.113769
H39   H     H_    0.546140 0.904480 0.598476 0.112638
H40   H     H_    0.921887 0.417903 0.216665 0.110441
H41   H     H_    0.829988 0.484509 0.093234 0.122676
H42   H     H_    0.689640 0.366590 0.187185 0.177305
N1    N     N_2   0.498860 0.498660 0.846770 -0.348970
N2    N     N_2   0.498840 0.498630 0.152900 -0.057406
O1    O     O_R   0.500020 0.321960 0.617050 -0.502364
O2    O     O_3   0.445566 0.079148 0.612134 -0.611264
O3    O     O_3   0.376193 0.350420 0.141270 -0.521247
O4    O     O_3   0.510633 0.610509 0.098976 -0.503605
O5    O     O_3   0.186797 0.607781 0.229695 -0.546033
O6    O     O_3   0.466444 0.877215 0.260605 -0.536650
O7    O     O_3   0.545716 0.124287 0.274561 -0.557183
O8    O     O_R   0.499980 0.321920 0.382890 -0.445694
O9    O     O_R   0.349010 0.500000 0.598060 -0.533909
O10   O     O_R   0.348980 0.499950 0.363910 -0.416179
O11   O     O_R   0.500020 0.678080 0.617110 -0.508949
O12   O     O_R   0.499980 0.678040 0.382950 -0.432917
O13   O     O_R   0.651020 0.500050 0.636090 -0.531639
O14   O     O_R   0.650990 0.500000 0.401940 -0.494262
O15   O     O_3   0.817304 0.544782 0.292369 -0.586050

loop_
_geom_bond_atom_site_label_1
_geom_bond_atom_site_label_2
_ccdc_geom_bond_type
C24   H25   S    
Cu1   Cu2   S    
N2    O4    S    
C3    N1    D    
C22   H21   S    
Cu1   O1    S    
C7    C8    S    
Cu2   O8    S    
C12   C13   A    
C12   C23   A    
C26   H31   S    
C23   C29   A    
H12   N1    S    
C18   C19   S    
C20   H15   S    
C21   H18   S    
C5    O3    S    
C19   H11   S    
C14   H41   S    
C15   H42   S    
C1    O1    A    
C6    O11   A    
C1    C2    S    
C25   H27   S    
C22   O5    S    
C9    C13   A    
C17   H6    S    
C27   H32   S    
C33   H39   S    
C31   H34   S    
C16   C17   S    
C10   H20   S    
C27   H33   S    
Cu2   O12   S    
C1    O8    A    
C28   H36   S    
C28   H37   S    
C18   H10   S    
C4    O10   A    
Cu1   O13   S    
C7    O13   A    
C26   H30   S    
Cu2   N2    S    
C29   O15   S    
C25   C26   S    
C25   H28   S    
C14   H40   S    
C17   H7    S    
C15   H2    S    
C19   H13   S    
C24   H24   S    
C32   O6    S    
C30   H23   S    
C16   O2    S    
C18   O3    S    
C13   H38   S    
C5    N2    D    
C27   O7    S    
C9    C11   A    
C15   H3    S    
C16   H4    S    
Cu1   O9    S    
C20   O4    S    
C12   C31   A    
C22   C24   S    
C2    O2    S    
C28   H35   S    
C8    C29   A    
C18   H9    S    
C14   O15   S    
C21   H19   S    
C4    O9    A    
Cu2   O10   S    
C7    O14   A    
C24   H26   S    
C26   H29   S    
C3    C5    S    
C22   H22   S    
C10   C23   A    
C6    C33   S    
C8    C30   A    
C32   C33   D    
C17   H8    S    
C20   H16   S    
C21   H17   S    
C19   H14   S    
C2    C34   D    
C30   C31   A    
C11   O5    S    
C6    O12   A    
Cu1   N1    S    
C25   O6    S    
C34   O7    S    
C10   C11   A    
Cu2   O14   S    
C20   C21   S    
C3    H1    S    
C27   C28   S    
C14   C15   S    
C4    C9    S    
C16   H5    S    
C32   C34   S    
Cu1   O11   S    
