data_mof_unit_17588.cif
_audit_creation_date              2012-10-26T20:17:37-0400
_audit_creation_method            fapswitch 2.2
_symmetry_space_group_name_H-M    P1
_symmetry_Int_Tables_number       1
_space_group_crystal_system       triclinic
_cell_length_a                    27.761467
_cell_length_b                    8.702725
_cell_length_c                    7.508099
_cell_angle_alpha                 102.836731
_cell_angle_beta                  94.953261
_cell_angle_gamma                 94.23976
_cell_volume                      1753.90465664

loop_
_atom_site_label
_atom_site_type_symbol
_atom_type_description
_atom_site_fract_x
_atom_site_fract_y
_atom_site_fract_z
_atom_type_partial_charge
Br1   Br    Br    0.439597 0.297437 0.902057 -0.277051
Br2   Br    Br    0.560404 0.702560 0.097943 -0.277040
Br3   Br    Br    0.250965 0.393255 0.841529 -0.397481
Br4   Br    Br    0.749026 0.606696 0.158399 -0.397591
Br5   Br    Br    0.109073 0.043828 0.136439 -0.325890
Br6   Br    Br    0.890928 0.956350 0.863579 -0.325903
C1    C     C_R   0.497860 0.200299 0.454345 0.587328
C2    C     C_R   0.867073 0.365966 0.429707 -0.006615
C3    C     C_R   0.354673 0.498933 0.501843 -0.009805
C4    C     C_R   0.645328 0.501116 0.498167 -0.009817
C5    C     C_R   0.968749 0.357908 0.424014 0.036414
C6    C     C_R   0.031258 0.642272 0.576030 0.036415
C7    C     C_R   0.980551 0.637941 0.593457 0.019521
C8    C     C_R   0.019455 0.362242 0.406577 0.019520
C9    C     C_R   0.949342 0.500011 0.508044 -0.003826
C10   C     C_R   0.050664 0.500169 0.491995 -0.003824
C11   C     C_R   0.936383 0.216252 0.369671 0.237209
C12   C     C_R   0.502139 0.799701 0.545655 0.587323
C13   C     C_R   0.063626 0.783923 0.630387 0.237214
C14   C     C_R   0.886500 0.223987 0.362561 -0.016736
C15   C     C_R   0.113509 0.776182 0.637513 -0.016741
C16   C     C_R   0.407598 0.499629 0.500866 0.547893
C17   C     C_R   0.592403 0.500377 0.499134 0.547903
C18   C     C_R   0.039625 0.237903 0.292317 -0.022917
C19   C     C_R   0.960380 0.762284 0.707705 -0.022911
C20   C     C_2   0.490086 0.033507 0.434407 0.207150
C21   C     C_2   0.509913 0.966493 0.565593 0.207153
C22   C     C_R   0.172738 0.359584 0.407150 0.465584
C23   C     C_R   0.101731 0.497461 0.487072 -0.064943
C24   C     C_R   0.827267 0.640601 0.592847 0.465589
C25   C     C_R   0.183240 0.629077 0.573957 0.438441
C26   C     C_R   0.816768 0.371086 0.426115 0.438451
C27   C     C_R   0.276371 0.533658 0.354324 -0.052526
C28   C     C_R   0.723639 0.466545 0.645737 -0.052535
C29   C     C_R   0.326557 0.535252 0.354786 -0.103214
C30   C     C_R   0.673452 0.464905 0.645264 -0.103216
C31   C     C_R   0.331709 0.459943 0.647634 -0.086596
C32   C     C_R   0.668288 0.540022 0.352326 -0.086572
C33   C     C_R   0.281262 0.454614 0.645093 0.220239
C34   C     C_R   0.898276 0.502716 0.512967 -0.064946
C35   C     C_R   0.718736 0.545423 0.354894 0.220271
C36   C     C_R   0.253548 0.492431 0.498219 0.237726
C37   C     C_R   0.746457 0.507731 0.501826 0.237721
C38   C     C_R   0.121603 0.359398 0.396445 0.041277
C39   C     C_R   0.878403 0.640784 0.603571 0.041270
C40   C     C_R   0.089509 0.230982 0.292579 0.210017
C41   C     C_R   0.910495 0.769204 0.707433 0.210008
C42   C     C_R   0.132935 0.634203 0.570355 -0.006622
Cl1   Cl    Cl    0.953846 0.022001 0.346352 -0.514300
Cl2   Cl    Cl    0.046166 0.978178 0.653701 -0.514287
Cl3   Cl    Cl    0.446899 0.932977 0.248595 -0.496145
Cl4   Cl    Cl    0.553101 0.067023 0.751405 -0.496119
Cu1   Cu    Cu3+1 0.505380 0.517380 0.684380 1.198325
Cu2   Cu    Cu3+1 0.494620 0.482620 0.315620 1.198326
H1    H     H_    0.352679 0.431108 0.761846 0.185354
H2    H     H_    0.983045 0.852978 0.806943 0.210390
H3    H     H_    0.647308 0.568693 0.238020 0.185346
H4    H     H_    0.656622 0.433413 0.758759 0.183711
H5    H     H_    0.343390 0.566774 0.241296 0.183703
H6    H     H_    0.744978 0.435351 0.757692 0.185747
H7    H     H_    0.255036 0.564890 0.242365 0.185710
H8    H     H_    0.862825 0.115097 0.314372 0.230415
H9    H     H_    0.137185 0.885068 0.685716 0.230420
H10   H     H_    0.016958 0.147211 0.193080 0.210388
N1    N     N_R   0.201930 0.492787 0.495487 -0.392319
N2    N     N_R   0.798076 0.507384 0.504551 -0.392317
N3    N     N_2   0.486510 0.456430 0.038510 0.025145
N4    N     N_2   0.513490 0.543570 0.961490 0.025142
O1    O     O_R   0.503500 0.286120 0.619780 -0.472949
O2    O     O_2   0.806440 0.771341 0.667641 -0.371502
O3    O     O_2   0.786586 0.240746 0.345179 -0.422550
O4    O     O_2   0.213423 0.759402 0.654933 -0.422557
O5    O     O_R   0.496500 0.713880 0.380220 -0.472950
O6    O     O_R   0.494410 0.256780 0.308360 -0.445038
O7    O     O_R   0.505590 0.743220 0.691640 -0.445040
O8    O     O_R   0.434810 0.514700 0.655690 -0.496694
O9    O     O_R   0.565190 0.485300 0.344310 -0.496702
O10   O     O_R   0.425720 0.485350 0.344280 -0.488727
O11   O     O_R   0.574280 0.514650 0.655720 -0.488734
O12   O     O_2   0.193563 0.228864 0.332285 -0.371511

loop_
_geom_bond_atom_site_label_1
_geom_bond_atom_site_label_2
_ccdc_geom_bond_type
C12   O7    A    
C24   C39   A    
C19   H2    S    
C16   O8    A    
Cu1   O1    S    
Cu1   Cu2   S    
C20   C21   D    
C2    C14   A    
C1    C20   S    
C27   C36   A    
Cu1   O11   S    
C30   H4    S    
C5    C8    A    
C3    C16   S    
Br4   C35   S    
C32   H3    S    
C11   C14   A    
C29   H5    S    
C8    C18   A    
Cu1   N4    S    
C27   C29   A    
Cu2   O6    S    
C5    C9    A    
C6    C10   A    
C36   N1    S    
C26   O3    S    
C33   C36   A    
C19   C41   A    
C15   C42   A    
Br3   C33   S    
C18   H10   S    
C28   H6    S    
C35   C37   A    
C7    C19   A    
Cu1   O7    S    
C24   O2    S    
C38   C40   A    
C1    O6    A    
C39   C41   A    
C34   C39   A    
Br6   C41   S    
C12   C21   S    
C23   C42   A    
N3    N4    D    
C2    C26   A    
C16   O10   A    
C32   C35   A    
C11   Cl1   S    
Cu2   N3    S    
C10   C23   A    
C22   C38   A    
Cu2   O5    S    
C3    C31   A    
C17   O9    A    
C24   N2    A    
C25   O4    S    
C12   O5    A    
C25   C42   A    
C7    C9    A    
C23   C38   A    
C8    C10   A    
Cu1   O8    S    
C21   Cl4   S    
C26   N2    A    
C25   N1    A    
C5    C11   A    
C13   C15   A    
C28   C37   A    
C1    O1    A    
C4    C17   S    
Br5   C40   S    
Br2   N4    S    
C4    C32   A    
C18   C40   A    
Cu2   O9    S    
C22   N1    A    
C31   C33   A    
C20   Cl3   S    
C13   Cl2   S    
C37   N2    S    
C6    C13   A    
Br1   N3    S    
C28   C30   A    
C14   H8    S    
C22   O12   S    
C9    C34   A    
C15   H9    S    
C31   H1    S    
C6    C7    A    
C27   H7    S    
C3    C29   A    
C4    C30   A    
C2    C34   A    
C17   O11   A    
Cu2   O10   S    
