data_mof_unit_20766.cif
_audit_creation_date              2012-12-10T17:09:49-0500
_audit_creation_method            fapswitch 2.2
_symmetry_space_group_name_H-M    P1
_symmetry_Int_Tables_number       1
_space_group_crystal_system       triclinic
_cell_length_a                    10.878305
_cell_length_b                    13.031444
_cell_length_c                    11.789344
_cell_angle_alpha                 101.579558
_cell_angle_beta                  93.547312
_cell_angle_gamma                 95.347715
_cell_volume                      1624.54383162

loop_
_atom_site_label
_atom_site_type_symbol
_atom_type_description
_atom_site_fract_x
_atom_site_fract_y
_atom_site_fract_z
_atom_type_partial_charge
C1    C     C_R   0.504767 0.299225 0.476751 0.911558
C2    C     C_R   0.070062 0.531413 0.607899 -0.029000
C3    C     C_R   0.131185 0.528882 0.504964 -0.213095
C4    C     C_R   0.059878 0.520807 0.398532 0.396071
C5    C     C_R   0.931339 0.494184 0.391160 -0.139709
C6    C     C_R   0.872304 0.483527 0.493262 -0.219032
C7    C     C_R   0.518913 0.817477 0.539320 -0.184935
C8    C     C_R   0.512011 0.184878 0.460920 -0.306012
C9    C     C_R   0.422023 0.008581 0.366890 0.412183
C10   C     C_R   0.449561 0.114726 0.363607 0.304029
C11   C     C_R   0.579662 0.144761 0.545034 0.404971
C12   C     C_R   0.264254 0.512492 0.502363 0.882346
C13   C     C_R   0.568337 0.034189 0.538495 -0.125139
C14   C     C_R   0.479819 0.968293 0.455544 -0.119972
C15   C     C_R   0.456443 0.861348 0.457092 -0.207354
C16   C     C_R   0.607607 0.882624 0.621519 -0.131811
C17   C     C_R   0.641426 0.987044 0.612660 0.442925
C18   C     C_R   0.376784 0.402779 0.018017 -0.257813
C19   C     C_R   0.391517 0.405060 0.137698 0.053999
C20   C     C_R   0.549870 0.549303 0.159724 0.655205
C21   C     C_R   0.544054 0.538479 0.035332 -0.077770
C22   C     C_R   0.454532 0.465779 0.964643 -0.088287
C23   C     C_R   0.504946 0.701736 0.523576 0.802686
C24   C     C_R   0.445896 0.455300 0.841431 0.026612
C25   C     C_R   0.617860 0.585622 0.856534 0.638577
C26   C     C_R   0.627565 0.596237 0.979831 -0.397797
C27   C     C_R   0.737124 0.491310 0.497758 0.831881
C28   C     C_R   0.125146 0.580240 0.720744 0.523444
C29   C     C_R   0.070033 0.550671 0.818679 -0.024584
C30   C     C_R   0.968280 0.473191 0.798775 -0.260797
C31   C     C_R   0.902056 0.447035 0.690593 -0.136451
C32   C     C_R   0.946437 0.486904 0.596991 0.012582
Cu1   Cu    Cu3+1 0.509250 0.507730 0.615930 1.014227
Cu2   Cu    Cu3+1 0.490750 0.492270 0.384070 1.034090
H1    H     H_    0.304647 0.347865 0.965266 0.208684
H2    H     H_    0.702111 0.647278 0.032621 0.187291
H3    H     H_    0.929558 0.444321 0.870471 0.181951
H4    H     H_    0.815986 0.396426 0.681023 0.200882
H5    H     H_    0.389797 0.810896 0.393012 0.178547
N1    N     N_R   0.523180 0.519350 0.790130 -0.273043
N2    N     N_R   0.476820 0.480650 0.209890 -0.253895
O1    O     O_R   0.506570 0.354460 0.582000 -0.576678
O2    O     O_R   0.490940 0.341410 0.386200 -0.543721
O3    O     O_R   0.327470 0.506530 0.597920 -0.566219
O4    O     O_R   0.311840 0.493480 0.402120 -0.506538
O5    O     O_R   0.509060 0.658590 0.613800 -0.553150
O6    O     O_R   0.493430 0.645540 0.418000 -0.578002
O7    O     O_R   0.688160 0.506520 0.597880 -0.548643
O8    O     O_R   0.672530 0.493470 0.402080 -0.548255
O9    O     O_3   0.116019 0.532084 0.298675 -0.521001
C33   C     C_3   0.150035 0.640459 0.304539 -0.169114
H6    H     H_    0.209408 0.678257 0.385074 0.106406
H7    H     H_    0.066563 0.682822 0.298009 0.159364
H8    H     H_    0.205035 0.649143 0.230311 0.195651
O10   O     O_3   0.744592 0.042272 0.679659 -0.566251
C34   C     C_3   0.846534 0.036361 0.611024 -0.205262
H9    H     H_    0.831994 0.074120 0.535251 0.158426
H10   H     H_    0.866015 0.953360 0.580755 0.159096
H11   H     H_    0.929736 0.079616 0.664897 0.194351
O11   O     O_3   0.417778 0.148181 0.263185 -0.536734
C35   C     C_3   0.517114 0.134510 0.191636 -0.178560
H12   H     H_    0.533092 0.050046 0.166851 0.163105
H13   H     H_    0.603738 0.182737 0.234347 0.154849
H14   H     H_    0.494231 0.161300 0.110165 0.192197
O12   O     O_3   0.670416 0.212467 0.618925 -0.587079
C36   C     C_3   0.639748 0.230197 0.735676 -0.116740
H15   H     H_    0.564533 0.173050 0.753885 0.183880
H16   H     H_    0.615578 0.311669 0.761944 0.168421
H17   H     H_    0.723479 0.225905 0.792490 0.180234
C37   C     C_2   0.355192 0.372060 0.769166 0.900891
O13   O     O_2   0.381107 0.281575 0.744326 -0.637454
O14   O     O_R   0.235069 0.393328 0.742772 -0.775844
H18   H     H_    0.180678 0.329208 0.696814 0.327469
O15   O     O_3   0.700021 0.641224 0.798771 -0.554488
C38   C     C_3   0.815488 0.677783 0.862525 -0.212771
H19   H     H_    0.849990 0.619351 0.909583 0.146892
H20   H     H_    0.809791 0.752856 0.924999 0.166465
H21   H     H_    0.884686 0.693130 0.801061 0.234898
C39   C     C_2   0.313819 0.316504 0.172882 0.976885
O16   O     O_2   0.282199 0.235397 0.100199 -0.598424
O17   O     O_R   0.270178 0.322921 0.281935 -0.690129
H22   H     H_    0.215355 0.257626 0.289356 0.325709
O18   O     O_3   0.633960 0.625133 0.230663 -0.553420
C40   C     C_3   0.595006 0.726366 0.233608 -0.258164
H23   H     H_    0.636337 0.779366 0.315309 0.189733
H24   H     H_    0.492432 0.726551 0.231258 0.160932
H25   H     H_    0.629579 0.761878 0.162379 0.139037
O19   O     O_3   0.213707 0.666498 0.727020 -0.601605
C41   C     C_3   0.306167 0.681325 0.819739 -0.161246
H26   H     H_    0.315614 0.610851 0.856817 0.131720
H27   H     H_    0.290468 0.749630 0.887978 0.204408
H28   H     H_    0.396087 0.702087 0.787606 0.230735
C42   C     C_2   0.106207 0.601434 0.941372 0.790194
O20   O     O_2   0.135154 0.547661 0.010577 -0.564286
O21   O     O_R   0.100151 0.709408 0.979209 -0.778331
H29   H     H_    0.124650 0.734318 0.065379 0.322634
C43   C     C_2   0.863750 0.467980 0.273621 0.991105
O22   O     O_2   0.877246 0.527784 0.206495 -0.561546
O23   O     O_R   0.786783 0.373157 0.238979 -0.775440
H30   H     H_    0.745325 0.364192 0.157637 0.312946
C44   C     C_2   0.660627 0.848485 0.723312 0.976504
O24   O     O_2   0.771869 0.842584 0.735326 -0.589729
O25   O     O_R   0.584689 0.835904 0.811928 -0.770992
H31   H     H_    0.632230 0.827697 0.885498 0.321492
O26   O     O_3   0.350123 0.942043 0.275656 -0.572513
C45   C     C_3   0.224448 0.951472 0.293950 -0.278404
H32   H     H_    0.200572 0.032347 0.291999 0.195727
H33   H     H_    0.200706 0.929576 0.377166 0.135216
H34   H     H_    0.166421 0.896211 0.222746 0.180914

loop_
_geom_bond_atom_site_label_1
_geom_bond_atom_site_label_2
_ccdc_geom_bond_type
C27   O7    A    
C6    C32   A    
C21   C26   A    
C42   O20   D    
C1    C8    S    
C36   H16   S    
O21   H29   S    
C40   H25   S    
O10   C34   S    
C20   N2    A    
C24   C37   S    
C44   O24   D    
Cu1   O1    S    
C28   C29   A    
C40   H24   S    
C18   C19   A    
C25   N1    A    
C5    C6    A    
C36   H17   S    
C45   H32   S    
C9    O26   S    
C34   H9    S    
C2    C32   A    
C25   O15   S    
C44   O25   S    
C35   H13   S    
C3    C12   S    
C1    O2    A    
O18   C40   S    
C16   C17   A    
C28   O19   S    
C37   O13   D    
C41   H27   S    
C9    C10   A    
C17   O10   S    
C6    C27   S    
C7    C15   A    
C36   H15   S    
C42   O21   S    
C23   O5    A    
C21   C22   A    
Cu1   O5    S    
Cu2   N2    S    
C43   O23   S    
C43   O22   D    
Cu1   N1    S    
C23   O6    A    
O15   C38   S    
C27   O8    A    
C33   H6    S    
C40   H23   S    
C39   O17   S    
C9    C14   A    
O14   H18   S    
O9    C33   S    
C25   C26   A    
O17   H22   S    
C30   H3    S    
C4    O9    S    
O11   C35   S    
C33   H7    S    
C35   H14   S    
C10   O11   S    
C38   H19   S    
C29   C30   A    
C1    O1    A    
O23   H30   S    
Cu1   Cu2   S    
Cu2   O4    S    
C20   C21   A    
C41   H28   S    
C19   C39   S    
C38   H20   S    
C15   H5    S    
C26   H2    S    
C7    C16   A    
C5    C43   S    
C22   C24   A    
C3    C4    A    
C18   H1    S    
Cu2   O8    S    
C18   C22   A    
Cu1   O3    S    
C31   C32   A    
Cu2   O2    S    
C4    C5    A    
C2    C28   A    
C34   H11   S    
C12   O4    A    
O26   C45   S    
C31   H4    S    
C13   C17   A    
C33   H8    S    
C2    C3    A    
C12   O3    A    
C29   C42   S    
C11   C13   A    
C30   C31   A    
C45   H33   S    
C8    C11   A    
C7    C23   S    
C24   N1    A    
C34   H10   S    
C35   H12   S    
C38   H21   S    
C39   O16   D    
C19   N2    A    
C16   C44   S    
O19   C41   S    
C8    C10   A    
O12   C36   S    
C20   O18   S    
O25   H31   S    
Cu1   O7    S    
C14   C15   A    
C37   O14   S    
Cu2   O6    S    
C41   H26   S    
C13   C14   A    
C11   O12   S    
C45   H34   S    
