data_mof_unit_63692.cif
_audit_creation_date              2012-12-11T18:29:09-0500
_audit_creation_method            fapswitch 2.2
_symmetry_space_group_name_H-M    P1
_symmetry_Int_Tables_number       1
_space_group_crystal_system       triclinic
_cell_length_a                    8.185193
_cell_length_b                    14.29252
_cell_length_c                    17.298665
_cell_angle_alpha                 96.277623
_cell_angle_beta                  96.604368
_cell_angle_gamma                 91.653036
_cell_volume                      1996.47674881

loop_
_atom_site_label
_atom_site_type_symbol
_atom_type_description
_atom_site_fract_x
_atom_site_fract_y
_atom_site_fract_z
_atom_type_partial_charge
Ba1   Ba    Ba6+2 0.833220 0.541860 0.459910 1.640719
Ba2   Ba    Ba6+2 0.356600 0.458220 0.540090 1.633559
C1    C     C_3   0.578588 0.876829 0.240595 -0.382743
C2    C     C_3   0.338082 0.572607 0.217107 -0.024226
C3    C     C_2   0.303718 0.528198 0.133399 0.099612
C4    C     C_3   0.029671 0.747791 0.236515 0.318686
C5    C     C_2   0.153971 0.483511 0.110220 -0.016810
C6    C     C_2   0.055403 0.454858 0.173245 -0.149053
C7    C     C_1   0.117695 0.467280 0.248830 0.065512
C8    C     C_R   0.894178 0.456224 0.861909 -0.130264
C9    C     C_R   0.831898 0.445759 0.782794 0.015210
C10   C     C_R   0.070835 0.531673 0.750579 0.057661
C11   C     C_R   0.132179 0.544308 0.830719 -0.120917
C12   C     C_3   0.567171 0.783283 0.274376 0.363160
C13   C     C_R   0.046182 0.504537 0.886723 0.011724
C14   C     C_2   0.084848 0.462675 0.025537 -0.091036
C15   C     C_2   0.110485 0.521685 0.971241 -0.082042
C16   C     C_3   0.989859 0.783652 0.155864 0.133825
C17   C     C_R   0.922938 0.479901 0.727322 -0.282910
C18   C     C_R   0.708175 0.938312 0.541473 -0.034015
C19   C     C_R   0.512435 0.801048 0.497217 0.041086
C20   C     C_R   0.361887 0.766468 0.455811 -0.312777
C21   C     C_R   0.250910 0.826905 0.422088 -0.004600
C22   C     C_R   0.296590 0.922042 0.421891 0.060968
C23   C     C_3   0.458910 0.310733 0.306673 0.308137
C24   C     C_R   0.451515 0.957368 0.459338 0.015371
C25   C     C_R   0.558877 0.898153 0.499911 -0.066045
C26   C     C_R   0.645584 0.091736 0.499132 -0.037042
C27   C     C_R   0.753903 0.033540 0.539616 -0.000829
C28   C     C_3   0.213205 0.751763 0.625428 0.363258
C29   C     C_R   0.688929 0.188150 0.500089 0.014595
C30   C     C_R   0.838113 0.225157 0.540707 -0.282941
C31   C     C_R   0.951183 0.166667 0.575170 0.019123
C32   C     C_R   0.908356 0.071184 0.576032 -0.144947
C33   C     C_R   0.497234 0.052371 0.458696 -0.033371
C34   C     C_3   0.429152 0.283236 0.218646 -0.384130
C35   C     C_3   0.268533 0.855543 0.646628 -0.136446
C36   C     C_3   0.972042 0.247830 0.371941 0.312588
C37   C     C_3   0.915052 0.145699 0.347036 -0.397839
C38   C     C_3   0.735059 0.675959 0.691179 0.312389
C39   C     C_3   0.763135 0.706546 0.778880 -0.383700
C40   C     C_3   0.167532 0.273242 0.763206 0.416450
C41   C     C_3   0.193477 0.250759 0.847832 -0.091581
C42   C     C_3   0.641305 0.215289 0.722158 0.333321
C43   C     C_3   0.618630 0.117669 0.747638 -0.355907
C44   C     C_2   0.255125 0.518725 0.273490 -0.287706
H1    H     H_    0.643247 0.789576 0.332318 0.093728
H2    H     H_    0.852305 0.767903 0.791407 0.130170
H3    H     H_    0.812687 0.648311 0.810585 0.065169
H4    H     H_    0.644926 0.726517 0.800541 0.128194
H5    H     H_    0.436543 0.770000 0.282809 -0.080739
H6    H     H_    0.527937 0.932844 0.279626 0.076983
H7    H     H_    0.339339 0.326664 0.328341 0.020563
H8    H     H_    0.542122 0.374736 0.318024 0.070485
H9    H     H_    0.341683 0.221179 0.205054 0.124696
H10   H     H_    0.376530 0.342622 0.189273 0.066868
H11   H     H_    0.547175 0.265667 0.195721 0.129074
H12   H     H_    0.393620 0.860830 0.680079 0.103250
H13   H     H_    0.506641 0.871482 0.181703 0.112665
H14   H     H_    0.176098 0.315012 0.887982 0.034910
H15   H     H_    0.321707 0.228572 0.861531 0.133019
H16   H     H_    0.773972 0.228251 0.717518 -0.045642
H17   H     H_    0.569438 0.216003 0.663739 0.090051
H18   H     H_    0.664143 0.064077 0.704711 0.076048
H19   H     H_    0.486345 0.101310 0.750857 0.149775
H20   H     H_    0.972232 0.675927 0.234499 0.057496
H21   H     H_    0.688712 0.114188 0.806063 0.117586
H22   H     H_    0.183200 0.586477 0.988803 0.089472
H23   H     H_    0.274853 0.888852 0.591985 0.049790
H24   H     H_    0.820841 0.430223 0.903857 0.074582
H25   H     H_    0.006569 0.399468 0.008816 0.077257
H26   H     H_    0.245847 0.585397 0.849450 0.085230
H27   H     H_    0.289639 0.539157 0.335612 0.080134
H28   H     H_    0.165017 0.744268 0.249629 -0.086144
H29   H     H_    0.870790 0.299191 0.541382 0.064862
H30   H     H_    0.791188 0.896695 0.575257 0.118144
H31   H     H_    0.414950 0.095723 0.426488 0.128215
H32   H     H_    0.854060 0.787768 0.143238 0.136239
H33   H     H_    0.310704 0.714777 0.596655 -0.038554
H34   H     H_    0.873724 0.285203 0.399514 0.006871
H35   H     H_    0.098181 0.746648 0.584378 0.059195
H36   H     H_    0.193195 0.976940 0.701917 0.194201
H37   H     H_    0.163781 0.882788 0.748372 0.214291
H38   H     H_    0.084619 0.250325 0.414546 0.058003
H39   H     H_    0.006319 0.109584 0.312882 0.135188
H40   H     H_    0.171460 0.709326 0.107397 0.163097
H41   H     H_    0.983277 0.653870 0.092243 0.166512
H42   H     H_    0.247529 0.335809 0.758401 0.065946
H43   H     H_    0.037048 0.290518 0.748715 -0.085193
H44   H     H_    0.107756 0.157936 0.916550 0.179407
H45   H     H_    0.794975 0.142066 0.309594 0.141684
H46   H     H_    0.960353 0.202649 0.857740 0.172960
H47   H     H_    0.933957 0.421295 0.156329 0.103468
H48   H     H_    0.424129 0.606303 0.064083 0.165807
H49   H     H_    0.409535 0.487782 0.032374 0.181315
H50   H     H_    0.873539 0.471214 0.666137 0.075398
H51   H     H_    0.325424 0.692901 0.454686 0.076516
H52   H     H_    0.077265 0.984051 0.412783 0.196330
H53   H     H_    0.157367 0.959066 0.326543 0.177638
H54   H     H_    0.995749 0.026425 0.603764 0.097022
H55   H     H_    0.008945 0.926029 0.191808 0.178953
H56   H     H_    0.901406 0.108849 0.399061 0.063390
H57   H     H_    0.189902 0.878008 0.175924 0.170709
H58   H     H_    0.854367 0.659207 0.670111 0.010091
H59   H     H_    0.650879 0.612398 0.680519 0.069550
H60   H     H_    0.708563 0.896741 0.235606 0.143529
N1    N     N_3   0.153315 0.905990 0.692806 -0.491876
N2    N     N_3   0.045686 0.719047 0.093867 -0.488588
N3    N     N_3   0.077862 0.175453 0.859654 -0.479073
N4    N     N_3   0.426694 0.538455 0.081223 -0.475909
N5    N     N_3   0.184890 0.984147 0.385740 -0.516860
N6    N     N_3   0.064991 0.877617 0.154545 -0.469350
O1    O     O_2   0.840370 0.437300 0.310630 -0.458759
O2    O     O_2   0.291244 0.170730 0.571732 -0.488911
O3    O     O_3   0.210198 0.195822 0.713277 -0.600644
O4    O     O_3   0.112450 0.444030 0.408320 -0.498689
O5    O     O_3   0.560770 0.615000 0.535160 -0.482889
O6    O     O_2   0.387340 0.269270 0.471720 -0.463645
O7    O     O_3   0.529871 0.235587 0.342313 -0.650812
O8    O     O_2   0.493321 0.458031 0.783425 -0.492397
O9    O     O_3   0.585054 0.282791 0.777284 -0.607455
O10   O     O_3   0.597270 0.610320 0.351390 -0.490537
O11   O     O_2   0.676201 0.530023 0.215759 -0.460500
O12   O     O_3   0.666687 0.750218 0.653929 -0.641090
O13   O     O_3   0.006355 0.287650 0.305238 -0.637530
O14   O     O_3   0.624755 0.711244 0.223345 -0.596462
O15   O     O_2   0.802370 0.730760 0.528330 -0.467920
O16   O     O_3   0.016680 0.660770 0.388810 -0.478890
O17   O     O_2   0.919778 0.829515 0.438991 -0.491213
O18   O     O_3   0.964892 0.809058 0.293199 -0.616783
O19   O     O_2   0.349330 0.562730 0.689420 -0.458604
O20   O     O_3   0.077250 0.556050 0.591680 -0.502814
O21   O     O_3   0.592420 0.389760 0.648620 -0.484963
O22   O     O_3   0.186506 0.712656 0.693770 -0.641729
O23   O     O_3   0.628930 0.385070 0.464840 -0.474409
O24   O     O_3   0.173020 0.339310 0.611190 -0.486867
P1    P     P_3+3 0.017810 0.410420 0.324030 0.982792
P2    P     P_3+3 0.635890 0.718430 0.552520 0.976811
P3    P     P_3+3 0.040032 0.781603 0.386297 0.935792
P4    P     P_3+3 0.171880 0.589650 0.675980 0.980217
P5    P     P_3+3 0.156104 0.217558 0.616223 0.949766
P6    P     P_3+3 0.560400 0.602871 0.250385 0.980712
P7    P     P_3+3 0.562399 0.267266 0.443662 0.932007
P8    P     P_3+3 0.624849 0.394895 0.749986 0.939538

loop_
_geom_bond_atom_site_label_1
_geom_bond_atom_site_label_2
_ccdc_geom_bond_type
O3    P5    S    
C35   H23   S    
O7    P7    S    
O5    P2    S    
O8    P8    D    
Ba1   O16   S    
C4    O18   S    
Ba1   O20   S    
C30   H29   S    
Ba2   O6    S    
C5    C6    S    
C2    C44   S    
H55   N6    S    
C14   H25   S    
C9    C17   A    
C24   C25   A    
O12   P2    S    
C26   C27   A    
O16   P3    S    
C23   H7    S    
C35   N1    S    
C8    C13   A    
C2    P6    S    
C36   C37   S    
H46   N3    S    
C3    N4    S    
C42   O9    S    
C18   H30   S    
Ba1   Ba2   S    
C39   H3    S    
Ba1   O10   S    
O19   P4    D    
Ba2   O4    S    
H41   N2    S    
C29   C30   A    
C26   C33   A    
H37   N1    S    
C14   C15   D    
C28   O22   S    
C43   H21   S    
Ba2   O20   S    
C21   C22   A    
C10   P4    S    
O15   P2    D    
C9    P8    S    
C35   H12   S    
O23   P7    S    
C19   C25   A    
C7    C44   D    
C1    H60   S    
C20   H51   S    
C19   C20   A    
O9    P8    S    
C22   N5    S    
Ba1   O1    S    
C19   P2    S    
C4    C16   S    
O18   P3    S    
C23   O7    S    
C37   H45   S    
Ba2   O5    S    
C10   C17   A    
C4    H28   S    
C18   C27   A    
C42   H17   S    
O20   P4    S    
C38   O12   S    
Ba2   O21   S    
Ba2   O19   S    
O2    P5    D    
C23   H8    S    
O6    P7    D    
C3    C5    D    
C6    C7    D    
O13   P1    S    
C27   C32   A    
H48   N4    S    
Ba2   O24   S    
C28   C35   S    
H57   N6    S    
O24   P5    S    
C34   H10   S    
C38   H58   S    
C24   C33   A    
C32   H54   S    
C12   H5    S    
O17   P3    D    
C16   H32   S    
H53   N5    S    
C18   C25   A    
C31   P5    S    
C31   C32   A    
Ba1   O5    S    
H36   N1    S    
C1    C12   S    
C41   H14   S    
C28   H33   S    
C8    H24   S    
C5    C14   S    
Ba1   O4    S    
C34   H11   S    
C11   C13   A    
C43   H19   S    
O1    P1    D    
C40   H42   S    
C40   C41   S    
O10   P6    S    
C39   H4    S    
C36   O13   S    
Ba1   P1    S    
C42   C43   S    
C41   H15   S    
C37   H56   S    
O4    P1    S    
C21   P3    S    
C13   C15   S    
C38   C39   S    
C15   H22   S    
H52   N5    S    
C36   H38   S    
C26   C29   A    
H40   N2    S    
C6    H47   S    
Ba1   O15   S    
C16   N6    S    
C2    C3    S    
H49   N4    S    
C1    H6    S    
C12   H1    S    
C11   H26   S    
O21   P8    S    
C43   H18   S    
Ba2   O23   S    
C12   O14   S    
C40   H43   S    
C42   H16   S    
C30   C31   A    
C33   H31   S    
C28   H35   S    
C7    P1    S    
C34   H9    S    
O22   P4    S    
C22   C24   A    
C36   H34   S    
O11   P6    D    
C39   H2    S    
O14   P6    S    
C29   P7    S    
C16   N2    S    
C8    C9    A    
C17   H50   S    
C23   C34   S    
C40   O3    S    
C4    H20   S    
C10   C11   A    
C37   H39   S    
C20   C21   A    
Ba2   P4    S    
C41   N3    S    
H44   N3    S    
Ba1   O23   S    
C44   H27   S    
Ba1   P2    S    
C38   H59   S    
C1    H13   S    
