data_mof_unit_29600.cif
_audit_creation_date              2012-12-10T16:41:55-0500
_audit_creation_method            fapswitch 2.2
_symmetry_space_group_name_H-M    P1
_symmetry_Int_Tables_number       1
_space_group_crystal_system       triclinic
_cell_length_a                    10.852839
_cell_length_b                    8.714759
_cell_length_c                    7.461915
_cell_angle_alpha                 102.770208
_cell_angle_beta                  93.474422
_cell_angle_gamma                 92.841078
_cell_volume                      685.586352914

loop_
_atom_site_label
_atom_site_type_symbol
_atom_type_description
_atom_site_fract_x
_atom_site_fract_y
_atom_site_fract_z
_atom_type_partial_charge
C1    C     C_R   0.499750 0.200290 0.454357 0.906199
C2    C     C_2   0.531226 0.967078 0.572267 -0.026513
C3    C     C_R   0.265232 0.487670 0.502754 0.813057
C4    C     C_R   0.510300 0.799882 0.546220 0.810061
C5    C     C_R   0.734762 0.507418 0.496363 0.772192
C6    C     C_2   0.921376 0.398030 0.379840 0.450095
C7    C     C_2   0.868292 0.522332 0.480186 0.288400
C8    C     C_2   0.055954 0.417143 0.362980 -0.270139
C9    C     C_2   0.134142 0.450783 0.514344 0.032782
C10   C     C_2   0.496035 0.033091 0.433155 -0.359902
Cu1   Cu    Cu3+1 0.513740 0.517380 0.684380 1.029843
Cu2   Cu    Cu3+1 0.486260 0.482620 0.315620 1.053015
H1    H     H_    0.088495 0.413492 0.227426 0.173053
H2    H     H_    0.456306 0.962168 0.301802 0.186077
H3    H     H_    0.418015 0.362447 0.948808 0.205028
N1    N     N_2   0.465540 0.456420 0.038510 -0.118356
N2    N     N_2   0.534460 0.543580 0.961490 0.106706
O1    O     O_R   0.508930 0.286130 0.619780 -0.577376
O2    O     O_R   0.485720 0.256780 0.308360 -0.574164
O3    O     O_R   0.333540 0.514670 0.655670 -0.570373
O4    O     O_R   0.310330 0.485320 0.344250 -0.590847
O5    O     O_R   0.514280 0.743220 0.691640 -0.563869
O6    O     O_R   0.491070 0.713870 0.380220 -0.531039
O7    O     O_R   0.689670 0.514680 0.655750 -0.615279
O8    O     O_R   0.666460 0.485330 0.344330 -0.542624
O9    O     O_3   0.848920 0.259017 0.302112 -0.584734
C11   C     C_3   0.917181 0.140984 0.199550 -0.249247
H4    H     H_    0.991707 0.105801 0.288445 0.171723
H5    H     H_    0.955149 0.179407 0.080252 0.178791
H6    H     H_    0.853992 0.035309 0.143191 0.185632
O10   O     O_3   0.936720 0.667948 0.526785 -0.600135
C12   C     C_3   0.889565 0.775212 0.671907 -0.289407
H7    H     H_    0.892380 0.727854 0.798296 0.167483
H8    H     H_    0.795465 0.807017 0.632532 0.152058
H9    H     H_    0.950232 0.885442 0.703129 0.210058
I1    I     I_    0.077214 0.428447 0.779072 -0.410955
I2    I     I_    0.628759 0.084616 0.830487 -0.336941
O11   O     O_3   0.582075 0.676725 0.077259 -0.443298
C13   C     C_3   0.703732 0.704144 0.034551 -0.080225
H10   H     H_    0.703750 0.763722 0.918475 0.157672
H11   H     H_    0.754602 0.594346 0.006409 0.159189
H12   H     H_    0.753713 0.784987 0.155684 0.126310

loop_
_geom_bond_atom_site_label_1
_geom_bond_atom_site_label_2
_ccdc_geom_bond_type
C8    C9    D    
C9    I1    S    
C2    C4    S    
Cu1   Cu2   S    
Cu1   O1    S    
C6    C7    D    
C3    C9    S    
C11   H5    S    
C4    O5    A    
Cu1   O5    S    
O10   C12   S    
C2    I2    S    
Cu2   O8    S    
C12   H7    S    
C1    O1    A    
C3    O3    A    
C13   H11   S    
C11   H6    S    
Cu2   O6    S    
O9    C11   S    
C6    O9    S    
C5    O7    A    
C5    O8    A    
Cu2   O2    S    
C13   H12   S    
N2    O11   S    
C8    H1    S    
O11   C13   S    
Cu1   O3    S    
C1    O2    A    
C3    O4    A    
H3    N1    S    
C2    C10   D    
C12   H9    S    
Cu1   O7    S    
C13   H10   S    
C7    O10   S    
C10   H2    S    
C11   H4    S    
C5    C7    S    
C4    O6    A    
Cu1   N2    S    
C6    C8    S    
Cu2   O4    S    
C1    C10   S    
Cu2   N1    S    
N1    N2    D    
C12   H8    S    
