data_mof_unit_31516.cif
_audit_creation_date              2012-12-10T16:56:31-0500
_audit_creation_method            fapswitch 2.2
_symmetry_space_group_name_H-M    P1
_symmetry_Int_Tables_number       1
_space_group_crystal_system       triclinic
_cell_length_a                    7.806629
_cell_length_b                    8.609182
_cell_length_c                    15.74319
_cell_angle_alpha                 91.722571
_cell_angle_beta                  85.271311
_cell_angle_gamma                 93.223068
_cell_volume                      1052.4659992

loop_
_atom_site_label
_atom_site_type_symbol
_atom_type_description
_atom_site_fract_x
_atom_site_fract_y
_atom_site_fract_z
_atom_type_partial_charge
C1    C     C_R   0.544921 0.794091 0.497952 0.876749
C2    C     C_3   0.382773 0.393195 0.030426 -0.069492
C3    C     C_1   0.503610 0.499708 0.750151 -0.139082
C4    C     C_1   0.496370 0.500211 0.249849 -0.140380
C5    C     C_3   0.343058 0.532883 0.977720 0.677120
C6    C     C_3   0.656577 0.466816 0.022232 0.716977
C7    C     C_3   0.501677 0.499489 0.915728 -0.099364
C8    C     C_3   0.498131 0.500262 0.084275 -0.098657
C9    C     C_1   0.503693 0.499430 0.825177 0.088226
C10   C     C_1   0.496241 0.500411 0.174824 0.085688
C11   C     C_R   0.455079 0.205909 0.502048 0.877080
C12   C     C_R   0.501266 0.500215 0.661722 0.873880
C13   C     C_R   0.498733 0.499779 0.338277 0.874765
C14   C     C_2   0.569030 0.956427 0.499054 0.271916
C15   C     C_2   0.430970 0.043573 0.500947 0.270755
C16   C     C_3   0.459921 0.639571 0.031340 -0.094596
C17   C     C_3   0.539697 0.360106 0.968668 -0.084889
C18   C     C_3   0.616835 0.606513 0.969647 -0.030609
F1    F     F_    0.817139 0.433103 0.045489 -0.606262
F2    F     F_    0.182528 0.566647 0.954445 -0.611340
F3    F     F_    0.734649 0.015963 0.500093 -0.646752
F4    F     F_    0.265351 0.984037 0.499907 -0.647281
H1    H     H_    0.797990 0.780277 0.987238 0.232419
H2    H     H_    0.997489 0.380626 0.359761 0.186951
H3    H     H_    0.021189 0.755852 0.565821 0.253015
H4    H     H_    0.002256 0.619171 0.640266 0.188383
H5    H     H_    0.678894 0.805234 0.905206 0.183984
H6    H     H_    0.200383 0.220331 0.013070 0.224714
H7    H     H_    0.320690 0.194043 0.094497 0.181059
H8    H     H_    0.395246 0.861286 0.015464 0.190319
H9    H     H_    0.302961 0.779160 0.104357 0.229209
H10   H     H_    0.597835 0.136540 0.984694 0.199329
H11   H     H_    0.477178 0.160945 0.903191 0.187963
H12   H     H_    0.979078 0.244113 0.434294 0.253325
N1    N     N_2   0.950320 0.457950 0.477300 0.001111
N2    N     N_2   0.049680 0.542050 0.522700 0.001125
N3    N     N_3   0.744521 0.722943 0.935430 -0.362583
N4    N     N_3   0.255003 0.276944 0.064772 -0.365534
N5    N     N_3   0.418859 0.792692 0.066442 -0.436324
N6    N     N_3   0.583358 0.207694 0.933435 -0.402284
N7    N     N_3   0.032277 0.355310 0.420283 -0.293628
N8    N     N_3   0.967724 0.644688 0.579717 -0.293085
O1    O     O_R   0.389250 0.738570 0.505570 -0.587773
O2    O     O_R   0.610750 0.261430 0.494430 -0.587269
O3    O     O_R   0.678390 0.711630 0.491020 -0.573353
O4    O     O_R   0.321610 0.288370 0.508980 -0.573075
O5    O     O_R   0.355460 0.513480 0.630490 -0.620457
O6    O     O_R   0.644540 0.486520 0.369510 -0.620106
O7    O     O_R   0.644600 0.486540 0.615950 -0.602709
O8    O     O_R   0.355400 0.513460 0.384050 -0.604994
Zn1   Zn    Zn3+2 0.306940 0.517990 0.509710 1.032445
Zn2   Zn    Zn3+2 0.693060 0.482010 0.490290 1.033374

loop_
_geom_bond_atom_site_label_1
_geom_bond_atom_site_label_2
_ccdc_geom_bond_type
H3    N8    S    
H7    N4    S    
C13   O6    A    
C6    C8    S    
C3    C9    T    
C1    C14   S    
C1    O1    A    
C2    N4    S    
N2    N8    S    
N1    N2    D    
H6    N4    S    
C7    C18   S    
C1    O3    A    
O7    Zn2   S    
C12   O7    A    
C11   O2    A    
C8    C16   S    
C5    F2    S    
C2    C17   S    
C6    F1    S    
N2    Zn1   S    
O1    Zn1   S    
H12   N7    S    
H2    N7    S    
H5    N3    S    
C12   O5    A    
N1    N7    S    
C14   F3    S    
C16   C18   S    
O2    Zn2   S    
H9    N5    S    
H8    N5    S    
O8    Zn1   S    
H10   N6    S    
C6    C18   S    
C2    C5    S    
C16   N5    S    
C4    C10   T    
C13   O8    A    
H11   N6    S    
C7    C9    S    
O6    Zn2   S    
H4    N8    S    
C8    C10   S    
C4    C13   S    
C5    C7    S    
C6    C17   S    
C14   C15   D    
N1    Zn2   S    
C11   O4    A    
O5    Zn1   S    
C3    C12   S    
O3    Zn2   S    
C7    C17   S    
H1    N3    S    
C11   C15   S    
O4    Zn1   S    
C18   N3    S    
C15   F4    S    
C2    C8    S    
C5    C16   S    
C17   N6    S    
