data_mof_unit_5013.cif
_audit_creation_date              2012-10-26T20:32:03-0400
_audit_creation_method            fapswitch 2.2
_symmetry_space_group_name_H-M    P1
_symmetry_Int_Tables_number       1
_space_group_crystal_system       triclinic
_cell_length_a                    10.682145
_cell_length_b                    10.887769
_cell_length_c                    9.674307
_cell_angle_alpha                 89.101377
_cell_angle_beta                  91.386976
_cell_angle_gamma                 92.294841
_cell_volume                      1123.81392541

loop_
_atom_site_label
_atom_site_type_symbol
_atom_type_description
_atom_site_fract_x
_atom_site_fract_y
_atom_site_fract_z
_atom_type_partial_charge
C1    C     C_R   0.510616 0.263242 0.500288 0.528161
C2    C     C_R   0.505930 0.934787 0.621890 0.016426
C3    C     C_3   0.600978 0.917776 0.734770 -0.255504
C4    C     C_R   0.260025 0.505114 0.498757 0.537527
C5    C     C_3   0.621513 0.055283 0.731689 -0.273224
C6    C     C_R   0.592404 0.562053 0.074197 0.149438
C7    C     C_R   0.404346 0.445070 0.071563 0.069808
C8    C     C_R   0.409984 0.436387 0.924156 0.072210
C9    C     C_R   0.590709 0.564584 0.927261 0.141713
C10   C     C_3   0.726783 0.539943 0.923343 -0.277005
C11   C     C_3   0.728120 0.534097 0.079229 -0.279615
C12   C     C_3   0.952392 0.450005 0.388299 -0.099238
C13   C     C_R   0.499710 0.737255 0.499186 0.546108
C14   C     C_R   0.740425 0.501442 0.501575 0.542842
C15   C     C_3   0.048241 0.562960 0.615175 -0.142795
C16   C     C_3   0.961710 0.444673 0.616149 -0.143963
C17   C     C_3   0.877781 0.504527 0.504621 0.019120
C18   C     C_3   0.962726 0.621024 0.503531 -0.004631
C19   C     C_3   0.038970 0.567798 0.386698 -0.129519
C20   C     C_R   0.289554 0.391459 0.134716 0.087825
C21   C     C_R   0.284089 0.267453 0.176970 -0.078796
C22   C     C_R   0.169249 0.201718 0.181806 -0.079409
C23   C     C_3   0.038130 0.392201 0.499194 0.031896
C24   C     C_R   0.058821 0.258992 0.143383 -0.074347
C25   C     C_R   0.063000 0.383090 0.104457 -0.146349
C26   C     C_R   0.177089 0.450119 0.104573 -0.102546
C27   C     C_R   0.340509 0.329842 0.860849 0.083092
C28   C     C_R   0.213597 0.334519 0.820822 -0.079312
C29   C     C_R   0.141070 0.225701 0.801681 -0.123300
C30   C     C_R   0.195009 0.111746 0.818891 -0.107221
C31   C     C_R   0.320133 0.106208 0.861453 -0.104519
C32   C     C_R   0.391326 0.214732 0.884194 -0.079448
C33   C     C_R   0.918457 0.749818 0.498142 0.033069
C34   C     C_3   0.122903 0.508409 0.497922 0.008139
C35   C     C_R   0.946607 0.832353 0.605461 -0.106073
C36   C     C_R   0.906640 0.952835 0.594895 -0.085211
C37   C     C_R   0.838309 0.990937 0.477763 -0.045092
C38   C     C_R   0.813188 0.910021 0.369651 -0.115699
C39   C     C_R   0.851559 0.789644 0.380740 -0.096404
C40   C     C_2   0.090335 0.267562 0.490314 0.215475
C41   C     C_2   0.583493 0.122281 0.243653 0.176269
C42   C     C_R   0.518875 0.062579 0.622638 0.021090
C43   C     C_R   0.525616 0.129516 0.498239 -0.037475
C44   C     C_R   0.533185 0.064295 0.372225 -0.019848
C45   C     C_R   0.509767 0.936709 0.373052 -0.128483
C46   C     C_R   0.499453 0.870932 0.497867 -0.017388
Cu1   Cu    Cu3+1 0.499990 0.499980 0.640670 0.940992
Cu2   Cu    Cu3+1 0.500010 0.500020 0.359330 0.932543
H1    H     H_    0.925441 0.395627 0.709103 0.097877
H2    H     H_    0.072154 0.619539 0.293969 0.115217
H3    H     H_    0.903599 0.400991 0.302123 0.123370
H4    H     H_    0.512992 0.887178 0.277005 0.179182
H5    H     H_    0.557534 0.882042 0.831435 0.152701
H6    H     H_    0.368566 0.218187 0.191840 0.150933
H7    H     H_    0.166440 0.105046 0.209892 0.138600
H8    H     H_    0.970199 0.207184 0.143132 0.126056
H9    H     H_    0.978143 0.427026 0.071327 0.093055
H10   H     H_    0.179137 0.544210 0.066273 0.088659
H11   H     H_    0.168844 0.421618 0.815174 0.111487
H12   H     H_    0.683078 0.867014 0.702136 0.151413
H13   H     H_    0.042216 0.229061 0.776500 0.108733
H14   H     H_    0.138781 0.027866 0.804391 0.108300
H15   H     H_    0.360419 0.018066 0.882570 0.133505
H16   H     H_    0.482797 0.211155 0.933075 0.135609
H17   H     H_    0.998904 0.804235 0.696900 0.090041
H18   H     H_    0.927811 0.016444 0.677810 0.109072
H19   H     H_    0.805886 0.083703 0.469823 0.142558
H20   H     H_    0.763905 0.940152 0.277144 0.138740
H21   H     H_    0.830594 0.727842 0.297110 0.106790
H22   H     H_    0.187439 0.253231 0.519341 0.129878
H23   H     H_    0.601036 0.095039 0.831713 0.164225
H24   H     H_    0.638060 0.208338 0.247092 0.138770
H25   H     H_    0.714121 0.087665 0.693511 0.119793
H26   H     H_    0.745411 0.449984 0.876663 0.147919
H27   H     H_    0.782634 0.619607 0.880797 0.123735
H28   H     H_    0.744790 0.440429 0.121414 0.134549
H29   H     H_    0.788330 0.608421 0.124698 0.114782
H30   H     H_    0.090457 0.609157 0.707557 0.103727
N1    N     N_R   0.500800 0.500930 0.147930 -0.248810
N2    N     N_R   0.500800 0.500890 0.852020 -0.249281
O1    O     O_R   0.500000 0.319640 0.618810 -0.488355
O2    O     O_2   0.569023 0.071660 0.132324 -0.588222
O3    O     O_R   0.500010 0.319680 0.381230 -0.530867
O4    O     O_R   0.316850 0.499950 0.618770 -0.512517
O5    O     O_R   0.316860 0.499990 0.381190 -0.493234
O6    O     O_R   0.499990 0.680320 0.618770 -0.495089
O7    O     O_R   0.500000 0.680360 0.381190 -0.507212
O8    O     O_R   0.683140 0.500010 0.618810 -0.509808
O9    O     O_R   0.683150 0.500050 0.381230 -0.519209
O10   O     O_2   0.024304 0.181181 0.450574 -0.558002

loop_
_geom_bond_atom_site_label_1
_geom_bond_atom_site_label_2
_ccdc_geom_bond_type
C15   C18   S    
C5    C42   S    
C10   H26   S    
C35   C36   A    
C6    C9    A    
C7    C8    A    
C45   C46   A    
C2    C46   A    
C12   C23   S    
C33   C39   A    
C40   H22   S    
Cu2   N1    S    
C28   C29   A    
C37   C38   A    
C11   H28   S    
C21   H6    S    
C36   H18   S    
C15   H30   S    
C35   H17   S    
C1    O1    A    
C23   C40   S    
C18   C19   S    
C11   H29   S    
C1    C43   S    
Cu1   Cu2   S    
C16   C17   S    
C12   C17   S    
C9    C10   S    
C15   C34   S    
C3    H12   S    
C21   C22   A    
C14   C17   S    
C25   H9    S    
Cu1   N2    S    
C4    C34   S    
C29   H13   S    
Cu1   O6    S    
C31   H15   S    
C16   H1    S    
C32   H16   S    
C6    C11   S    
C4    O5    A    
C45   H4    S    
C25   C26   A    
C9    N2    A    
C13   O6    A    
C43   C44   A    
C14   O9    A    
C29   C30   A    
C10   H27   S    
C31   C32   A    
C4    O4    A    
C30   C31   A    
C23   C34   S    
C13   O7    A    
C17   C18   S    
C39   H21   S    
Cu2   O7    S    
Cu1   O4    S    
C24   C25   A    
C26   H10   S    
C41   H24   S    
C38   H20   S    
C16   C23   S    
Cu2   O9    S    
C30   H14   S    
C41   C44   S    
C22   C24   A    
C1    O3    A    
C42   C43   A    
C12   H3    S    
C44   C45   A    
C7    N1    A    
C28   H11   S    
C36   C37   A    
C27   C32   A    
Cu2   O5    S    
C3    C5    S    
C19   C34   S    
C22   H7    S    
C24   H8    S    
Cu2   O3    S    
Cu1   O8    S    
C2    C3    S    
C14   O8    A    
C5    H23   S    
C3    H5    S    
C19   H2    S    
C6    N1    A    
C38   C39   A    
C20   C26   A    
C2    C42   A    
C41   O2    D    
C37   H19   S    
C12   C19   S    
C33   C35   A    
Cu1   O1    S    
C5    H25   S    
C18   C33   S    
C10   C11   S    
C20   C21   A    
C7    C20   S    
C27   C28   A    
C8    N2    A    
C8    C27   S    
C13   C46   S    
C40   O10   D    
C15   C16   S    
