data_mof_unit_44035.cif
_audit_creation_date              2013-03-05T16:11:30-0500
_audit_creation_method            fapswitch 2.2
_symmetry_space_group_name_H-M    P1
_symmetry_Int_Tables_number       1
_space_group_crystal_system       triclinic
_cell_length_a                    9.540927
_cell_length_b                    10.85729
_cell_length_c                    17.175045
_cell_angle_alpha                 89.881807
_cell_angle_beta                  86.3822
_cell_angle_gamma                 90.898672
_cell_volume                      1775.36683355

loop_
_atom_site_label
_atom_site_type_symbol
_atom_site_description
_atom_site_fract_x
_atom_site_fract_y
_atom_site_fract_z
_atom_type_partial_charge
O1    O     O_R   0.379740 0.682430 0.499960 -0.584023
O2    O     O_R   0.620260 0.682190 0.500020 -0.596055
C1    C     C_R   0.501547 0.739136 0.496397 0.872111
O3    O     O_R   0.365800 0.500150 0.613560 -0.547874
O4    O     O_R   0.606310 0.499910 0.613620 -0.606128
C2    C     C_R   0.482321 0.503213 0.649998 0.880046
Cu1   Cu    Cu3+1 0.357600 0.500140 0.499960 1.052105
Cu2   Cu    Cu3+1 0.642400 0.499860 0.500040 1.000065
O5    O     O_R   0.379740 0.317810 0.499980 -0.555403
O6    O     O_R   0.620260 0.317570 0.500040 -0.561542
O7    O     O_R   0.393690 0.500090 0.386380 -0.549955
O8    O     O_R   0.634200 0.499850 0.386440 -0.560249
C3    C     C_R   0.499454 0.259638 0.502240 0.883100
C4    C     C_R   0.517961 0.495644 0.350488 0.859309
C5    C     C_R   0.476582 0.517074 0.734991 -0.084534
C6    C     C_R   0.601265 0.509962 0.773906 -0.175943
C7    C     C_R   0.602254 0.533111 0.853697 0.337336
C8    C     C_R   0.474254 0.559893 0.895668 -0.045871
C9    C     C_R   0.349854 0.567628 0.856861 -0.108478
C10   C     C_R   0.350895 0.546597 0.776906 -0.112886
C11   C     C_R   0.434076 0.386908 0.152352 -0.055460
C12   C     C_R   0.437467 0.394378 0.232965 -0.083141
C13   C     C_R   0.616527 0.555756 0.218955 -0.103603
C14   C     C_R   0.611020 0.550086 0.138265 -0.015614
C15   C     C_R   0.516918 0.467854 0.105143 0.148219
C16   C     C_2   0.465976 0.567689 0.981121 0.327588
C17   C     C_2   0.502638 0.467543 0.021129 -0.266753
C18   C     C_R   0.525668 0.481221 0.266371 -0.031952
H1    H     H_    0.699505 0.489485 0.741868 0.196043
H2    H     H_    0.370065 0.333681 0.269368 0.200738
H3    H     H_    0.363124 0.321663 0.126955 0.179607
H4    H     H_    0.253844 0.554434 0.747988 0.192810
H5    H     H_    0.677550 0.611316 0.101790 0.200309
C19   C     C_3   0.433941 0.927875 0.418498 0.487640
C20   C     C_3   0.414470 0.070949 0.432664 0.001809
H6    H     H_    0.462658 0.121647 0.381111 0.139504
C21   C     C_3   0.424079 0.921519 0.570805 -0.473458
C22   C     C_3   0.656017 0.930418 0.492918 -0.381505
C23   C     C_3   0.503063 0.876418 0.493805 -0.169475
H7    H     H_    0.726139 0.890970 0.445590 0.247452
C24   C     C_3   0.499984 0.120118 0.502964 -0.261475
C25   C     C_3   0.454331 0.061418 0.586567 0.555499
C26   C     C_3   0.652407 0.071821 0.483036 -0.383219
H8    H     H_    0.687321 0.096204 0.421873 0.255603
H9    H     H_    0.729844 0.113642 0.521022 0.273316
C27   C     C_3   0.912668 0.371575 0.502472 0.230402
C28   C     C_3   0.075738 0.372011 0.514706 0.227739
C29   C     C_3   0.926006 0.561725 0.427937 -0.206475
C30   C     C_3   0.910846 0.567968 0.566029 -0.299645
N1    N     N_3   0.856560 0.499750 0.498270 -0.224531
H10   H     H_    0.861947 0.660141 0.570952 0.196459
H11   H     H_    0.879790 0.518699 0.621436 0.196936
N2    N     N_3   0.143860 0.496700 0.498910 -0.263922
C31   C     C_3   0.091182 0.547674 0.423727 0.205402
C32   C     C_3   0.077017 0.583743 0.558243 -0.259554
H12   H     H_    0.102101 0.680953 0.541736 0.192331
H13   H     H_    0.900271 0.661507 0.429151 0.158518
N3    N     N_R   0.298781 0.865254 0.403348 0.147491
O9    O     O_R   0.194682 0.858251 0.455800 -0.369160
O10   O     O_R   0.280105 0.818112 0.335020 -0.231554
N4    N     N_R   0.530790 0.908303 0.348450 0.107796
O11   O     O_R   0.591148 0.802270 0.338594 -0.385495
O12   O     O_R   0.521850 0.977009 0.286702 -0.278922
N5    N     N_R   0.266838 0.105940 0.436281 0.151044
O13   O     O_R   0.185136 0.084600 0.498212 -0.251708
O14   O     O_R   0.210465 0.133195 0.371553 -0.238316
H14   H     H_    0.310621 0.904199 0.567089 0.253848
N6    N     N_R   0.331045 0.119347 0.626229 0.172316
O15   O     O_R   0.344766 0.231373 0.651470 -0.270095
O16   O     O_R   0.231936 0.050976 0.660509 -0.250601
H15   H     H_    0.704341 0.906653 0.548138 0.239715
H16   H     H_    0.450269 0.863196 0.620904 0.197791
N7    N     N_R   0.570178 0.076235 0.640093 0.128963
O17   O     O_R   0.622563 0.185447 0.652446 -0.325788
O18   O     O_R   0.607537 0.986195 0.684096 -0.317259
N8    N     N_R   0.884701 0.291683 0.435312 0.127555
O19   O     O_R   0.933549 0.180448 0.433617 -0.286550
O20   O     O_R   0.810903 0.325614 0.378291 -0.314602
H17   H     H_    0.855708 0.327135 0.553872 0.155526
N9    N     N_R   0.093941 0.319084 0.592917 0.150304
O21   O     O_R   0.041707 0.209551 0.607872 -0.232794
O22   O     O_R   0.129763 0.383839 0.652042 -0.313144
H18   H     H_    0.128590 0.308117 0.473408 0.213568
H19   H     H_    0.883967 0.529563 0.373076 0.237027
N10   N     N_R   0.137762 0.481794 0.352120 0.125051
O23   O     O_R   0.109317 0.365888 0.342194 -0.293809
O24   O     O_R   0.179159 0.546669 0.290839 -0.287189
H20   H     H_    0.687290 0.621160 0.244260 0.195805
H21   H     H_    0.122445 0.580274 0.615498 0.220326
H22   H     H_    0.135740 0.642210 0.415758 0.192970
H23   H     H_    0.526268 0.382184 0.990324 0.175681
H24   H     H_    0.251374 0.587528 0.888915 0.202603
N11   N     N_R   0.416223 0.679033 0.018576 0.151608
O25   O     O_R   0.422531 0.782345 0.979890 -0.263769
O26   O     O_R   0.348492 0.675463 0.086763 -0.265479
N12   N     N_R   0.733562 0.531579 0.890667 0.121812
O27   O     O_R   0.835039 0.462069 0.863350 -0.300100
O28   O     O_R   0.758734 0.610465 0.945175 -0.321736

loop_
_geom_bond_atom_site_label_1
_geom_bond_atom_site_label_2
_geom_bond_distance
_ccdc_geom_bond_type
C32   H12   1.110802 S    
N11   O25   1.301163 A    
N7    O18   1.302222 A    
C24   C25   1.601960 S    
C32   H21   1.100192 S    
C20   H6    1.112218 S    
C8    C16   1.467476 S    
C27   N8    1.479804 S    
Cu1   Cu2   2.717393 S    
N2    C31   1.521171 S    
C29   C31   1.582804 S    
C11   H3    1.083433 S    
C16   C17   1.347569 D    
O4    C2    1.303539 A    
N8    O20   1.297793 A    
C31   H22   1.109670 S    
N10   O23   1.297058 A    
C27   H17   1.112167 S    
O7    C4    1.302994 A    
N3    O10   1.302656 A    
C5    C6    1.403866 A    
C19   C20   1.584814 S    
N7    O17   1.302546 A    
C21   C25   1.568934 S    
N4    O12   1.303298 A    
O5    C3    1.316480 A    
C9    H24   1.083590 S    
C2    C5    1.465463 S    
C22   H15   1.111992 S    
C9    C10   1.392000 A    
C6    C7    1.394372 A    
C30   H10   1.111901 S    
N12   O28   1.301125 A    
C13   C14   1.391610 A    
C17   H23   1.087728 S    
C20   N5    1.462209 S    
C28   H18   1.098398 S    
C28   N2    1.509098 S    
C16   N11   1.443353 S    
C29   N1    1.494204 S    
C1    C23   1.490895 S    
N11   O26   1.301587 A    
C12   C18   1.401657 A    
C11   C12   1.389453 A    
C25   N6    1.472090 S    
C24   C26   1.571251 S    
C28   N9    1.481274 S    
O3    Cu1   1.957581 S    
C3    C24   1.514928 S    
N2    C32   1.509687 S    
C5    C10   1.401097 A    
N10   O24   1.302181 A    
C19   C23   1.592533 S    
C29   H13   1.114536 S    
N8    O19   1.301040 A    
N9    O22   1.296729 A    
C8    C9    1.400973 A    
N3    O9    1.299305 A    
C30   C32   1.589160 S    
C19   N4    1.487714 S    
C29   H19   1.102398 S    
O1    C1    1.304541 A    
N5    O14   1.300695 A    
Cu1   O7    1.959387 S    
C26   H8    1.111972 S    
O4    Cu2   1.959389 S    
Cu2   O8    1.957578 S    
C30   H11   1.112144 S    
N12   O27   1.301579 A    
C7    C8    1.412971 A    
C7    N12   1.440122 S    
C13   C18   1.398483 A    
C14   C15   1.402939 A    
C26   H9    1.108699 S    
O3    C2    1.309742 A    
O8    C4    1.303170 A    
C13   H20   1.082705 S    
Cu1   N2    2.040252 S    
Cu2   N1    2.041611 S    
C10   H4    1.082430 S    
Cu1   O5    1.994141 S    
C11   C15   1.396037 A    
C27   C28   1.582977 S    
C25   N7    1.488602 S    
C12   H2    1.083063 S    
O1    Cu1   1.987119 S    
N6    O15   1.299532 A    
Cu2   O6    1.987119 S    
O2    Cu2   1.994142 S    
N9    O21   1.301001 A    
O6    C3    1.302760 A    
C31   N10   1.471831 S    
C15   C17   1.457903 S    
C27   N1    1.502087 S    
C14   H5    1.082670 S    
N5    O13   1.296684 A    
O2    C1    1.303724 A    
C6    H1    1.082910 S    
C22   C26   1.545420 S    
C21   C23   1.563687 S    
C22   H7    1.110651 S    
C22   C23   1.563306 S    
C21   H14   1.101645 S    
N4    O11   1.301889 A    
C20   C24   1.588017 S    
N6    O16   1.302976 A    
C30   N1    1.496258 S    
C21   H16   1.110690 S    
C19   N3    1.486099 S    
C4    C18   1.450868 S    
