data_mof_unit_37046.cif
_audit_creation_date              2013-03-05T16:19:43-0500
_audit_creation_method            fapswitch 2.2
_symmetry_space_group_name_H-M    P1
_symmetry_Int_Tables_number       1
_space_group_crystal_system       triclinic
_cell_length_a                    10.851298
_cell_length_b                    9.821999
_cell_length_c                    27.102245
_cell_angle_alpha                 90.437578
_cell_angle_beta                  90.841536
_cell_angle_gamma                 90.533964
_cell_volume                      2888.07195694

loop_
_atom_site_label
_atom_site_type_symbol
_atom_site_description
_atom_site_fract_x
_atom_site_fract_y
_atom_site_fract_z
_atom_type_partial_charge
O1    O     O_R   0.314910 0.616040 0.499990 -0.586510
O2    O     O_R   0.314910 0.383960 0.499990 -0.589416
C1    C     C_R   0.258235 0.499586 0.499984 0.948409
O3    O     O_R   0.500140 0.616020 0.428740 -0.589364
O4    O     O_R   0.500140 0.383980 0.428740 -0.559580
C2    C     C_R   0.498031 0.499703 0.405557 0.915381
Zn1   Zn    Zn3+2 0.500150 0.654960 0.499980 1.079423
Zn2   Zn    Zn3+2 0.500150 0.345040 0.499980 1.064748
O5    O     O_R   0.685320 0.616040 0.499970 -0.592095
O6    O     O_R   0.685320 0.383960 0.499970 -0.589282
O7    O     O_R   0.500090 0.616050 0.571230 -0.532754
O8    O     O_R   0.500090 0.383950 0.571230 -0.618854
C3    C     C_R   0.742570 0.500383 0.500571 1.095904
C4    C     C_R   0.497342 0.501492 0.594824 1.015858
C5    C     C_R   0.342515 0.410539 0.176503 0.591632
O9    O     O_2   0.288578 0.315512 0.204951 -0.509255
N1    N     N_R   0.423226 0.502673 0.197178 -0.348066
C6    C     C_R   0.478734 0.601629 0.169861 0.634849
C7    C     C_R   0.516785 0.395153 0.271296 0.340324
C8    C     C_R   0.532800 0.395972 0.322748 -0.180881
C9    C     C_R   0.416331 0.604116 0.329183 -0.125367
C10   C     C_R   0.397353 0.603303 0.278491 -0.106395
C11   C     C_R   0.446701 0.499821 0.249291 0.157369
C12   C     C_R   0.369982 0.516860 0.096937 -0.089565
C13   C     C_R   0.314961 0.415134 0.125977 0.005367
C14   C     C_R   0.233180 0.320751 0.104125 -0.069216
C15   C     C_R   0.455595 0.609755 0.118560 -0.186659
C16   C     C_R   0.483503 0.500141 0.351740 -0.098088
H1    H     H_    0.375847 0.684545 0.350767 0.199588
H2    H     H_    0.343387 0.683212 0.261659 0.184961
H3    H     H_    0.188576 0.242960 0.125871 0.208781
C17   C     C_R   0.456868 0.508571 0.646961 -0.211280
C18   C     C_R   0.251349 0.420319 0.971307 0.053042
C19   C     C_R   0.341687 0.649873 0.969003 -0.036607
C20   C     C_R   0.290409 0.535197 0.944317 0.021705
C21   C     C_R   0.205140 0.305713 0.945094 -0.279847
C22   C     C_R   0.203481 0.301031 0.893271 0.518159
C23   C     C_R   0.248692 0.413503 0.866659 -0.048875
C24   C     C_R   0.284267 0.533696 0.892336 -0.206972
C25   C     C_R   0.318333 0.651235 0.866040 -0.102043
C26   C     C_R   0.333463 0.640081 0.814815 0.615846
N2    N     N_R   0.311596 0.518685 0.791107 -0.371013
C27   C     C_R   0.264811 0.408462 0.815146 0.598789
C28   C     C_R   0.298711 0.581561 0.704187 -0.119604
C29   C     C_R   0.352613 0.588456 0.657643 0.395092
C30   C     C_R   0.517158 0.440452 0.686185 0.237494
C31   C     C_R   0.460725 0.433546 0.732232 -0.149079
C32   C     C_R   0.351927 0.503630 0.741286 0.157964
O10   O     O_2   0.238228 0.293753 0.789288 -0.406598
C33   C     C_R   0.263965 0.422619 0.023524 0.102751
C34   C     C_R   0.339165 0.525055 0.046215 0.010100
C35   C     C_R   0.386174 0.633478 0.018005 0.012124
C36   C     C_R   0.208982 0.323319 0.053672 -0.146527
H4    H     H_    0.218627 0.642226 0.712483 0.184155
H5    H     H_    0.176474 0.214946 0.964043 0.163758
H6    H     H_    0.144394 0.248210 0.039383 0.167982
O11   O     O_2   0.554948 0.691936 0.192776 -0.432559
C37   C     C_R   0.516754 0.704895 0.088176 0.213136
H7    H     H_    0.586760 0.317668 0.339993 0.248199
C38   C     C_R   0.347239 0.775826 0.943633 0.241338
C39   C     C_R   0.336047 0.776008 0.891530 0.394010
O12   O     O_2   0.376303 0.747265 0.789087 -0.419943
C40   C     C_R   0.485652 0.712307 0.037456 0.411332
H8    H     H_    0.508429 0.385920 0.762874 0.196734
C41   C     C_3   0.075068 0.649856 0.508895 0.679733
C42   C     C_3   0.075181 0.397862 0.542199 0.611644
C43   C     C_3   0.933472 0.646274 0.514667 -0.082734
C44   C     C_3   0.931805 0.387205 0.538987 0.064346
H9    H     H_    0.894564 0.713774 0.486058 0.202250
H10   H     H_    0.908735 0.286782 0.521756 0.195639
H11   H     H_    0.112152 0.505962 0.419668 0.213405
H12   H     H_    0.100191 0.341046 0.444333 0.246633
C45   C     C_3   0.070785 0.448055 0.450532 -0.598051
C46   C     C_3   0.122208 0.499325 0.501227 -0.140416
C47   C     C_3   0.879770 0.499293 0.502520 -0.348466
C48   C     C_3   0.926673 0.457012 0.449314 0.708338
C49   C     C_3   0.378908 0.080100 0.480697 0.318144
C50   C     C_3   0.385073 0.918604 0.474807 0.211874
H13   H     H_    0.307358 0.101163 0.508950 0.087804
H14   H     H_    0.302858 0.877927 0.494387 0.129734
C51   C     C_3   0.602253 0.081032 0.468608 0.129377
C52   C     C_3   0.611826 0.921857 0.474756 0.130308
C53   C     C_3   0.511113 0.083171 0.550391 -0.062799
C54   C     C_3   0.494382 0.922441 0.550720 -0.032845
N3    N     N_3   0.499750 0.138610 0.498940 -0.206836
N4    N     N_3   0.499750 0.861390 0.498940 -0.202457
H15   H     H_    0.433134 0.124639 0.572138 0.143326
H16   H     H_    0.400607 0.901153 0.565435 0.142105
H17   H     H_    0.689573 0.125306 0.483252 0.169568
H18   H     H_    0.690792 0.908205 0.500505 0.165579
N5    N     N_R   0.572806 0.289588 0.242271 0.237132
O13   O     O_R   0.602272 0.174319 0.262450 -0.260200
O14   O     O_R   0.604407 0.311491 0.196869 -0.324777
N6    N     N_R   0.612490 0.791976 0.107871 0.241227
O15   O     O_R   0.597782 0.923287 0.108378 -0.273777
O16   O     O_R   0.720298 0.741900 0.118272 -0.295388
N7    N     N_R   0.354702 0.902426 0.970823 0.213730
O17   O     O_R   0.286597 0.920808 0.009390 -0.384292
O18   O     O_R   0.433746 0.996667 0.958858 -0.310250
N8    N     N_R   0.645913 0.411953 0.684536 0.267370
O19   O     O_R   0.687583 0.303491 0.706179 -0.241658
O20   O     O_R   0.721167 0.514420 0.679009 -0.239920
O21   O     O_3   0.339293 0.895246 0.864788 -0.626964
H19   H     H_    0.311686 0.971664 0.885657 0.371592
O22   O     O_3   0.558980 0.783469 0.004918 -0.692671
H20   H     H_    0.635879 0.815569 0.021389 0.384188
O23   O     O_3   0.103206 0.725891 0.466420 -0.801148
H21   H     H_    0.083049 0.822617 0.473324 0.369816
O24   O     O_3   0.122363 0.266187 0.533554 -0.789494
H22   H     H_    0.102099 0.209053 0.562450 0.382485
O25   O     O_3   0.135308 0.715852 0.549150 -0.700741
H23   H     H_    0.109227 0.673722 0.580139 0.399797
O26   O     O_3   0.114247 0.443044 0.589427 -0.729113
H24   H     H_    0.203305 0.422653 0.592994 0.346090
N9    N     N_R   0.897016 0.709763 0.561422 0.255522
O27   O     O_R   0.907669 0.841702 0.565192 -0.273312
O28   O     O_R   0.890469 0.640733 0.601958 -0.251464
N10   N     N_R   0.875447 0.378544 0.587945 0.305581
O29   O     O_R   0.759841 0.406458 0.592833 -0.319128
O30   O     O_R   0.925422 0.300642 0.621192 -0.214660
O31   O     O_3   0.883456 0.549301 0.413271 -0.706648
H25   H     H_    0.941755 0.626845 0.410589 0.378733
O32   O     O_3   0.879390 0.327730 0.436403 -0.705554
H26   H     H_    0.905758 0.308010 0.402139 0.395498
O33   O     O_3   0.336495 0.146147 0.438097 -0.616874
H27   H     H_    0.250251 0.114921 0.431991 0.351688
O34   O     O_3   0.372900 0.879390 0.425172 -0.634317
H28   H     H_    0.324001 0.793597 0.423972 0.361430
N11   N     N_R   0.600166 0.123941 0.416496 0.274451
O35   O     O_R   0.511463 0.090598 0.385912 -0.215364
O36   O     O_R   0.701708 0.170003 0.397775 -0.346091
N12   N     N_R   0.650286 0.850729 0.429355 0.279415
O37   O     O_R   0.580684 0.841937 0.390061 -0.228241
O38   O     O_R   0.765961 0.821091 0.424585 -0.376559
N13   N     N_R   0.623812 0.128991 0.576999 0.288917
O39   O     O_R   0.732647 0.087690 0.564560 -0.338004
O40   O     O_R   0.611734 0.178584 0.621186 -0.250086
N14   N     N_R   0.577133 0.861923 0.587412 0.302473
O41   O     O_R   0.672038 0.792059 0.574956 -0.272976
O42   O     O_R   0.554517 0.878122 0.634117 -0.261661
O43   O     O_3   0.308562 0.678102 0.622932 -0.723465
H29   H     H_    0.250947 0.741848 0.639032 0.366336
O44   O     O_3   0.159123 0.186969 0.868339 -0.665440
H30   H     H_    0.126881 0.120228 0.892316 0.337545

loop_
_geom_bond_atom_site_label_1
_geom_bond_atom_site_label_2
_geom_bond_distance
_ccdc_geom_bond_type
C53   H15   1.116574 S    
C26   N2    1.367266 A    
C42   O26   1.409558 S    
C17   C29   1.414918 A    
C42   C44   1.559469 S    
C7    C8    1.402682 A    
C12   C15   1.413874 A    
N11   O35   1.298976 A    
N7    O17   1.301390 A    
O32   H26   0.993889 S    
C49   C50   1.595132 S    
C44   C47   1.587291 S    
Zn1   O7    1.971362 S    
N1    C11   1.432025 S    
C48   O31   1.415558 S    
C21   C22   1.404778 A    
C39   O21   1.382410 S    
C54   N4    1.523995 S    
C19   C20   1.411310 A    
C23   C24   1.413514 A    
O7    C4    1.298752 A    
C50   H14   1.116984 S    
C5    C13   1.398485 A    
Zn1   N4    2.028012 S    
C5    O9    1.349891 S    
C42   C46   1.584514 S    
C18   C21   1.410693 A    
C5    N1    1.364926 A    
Zn2   N3    2.027500 S    
C45   C46   1.553835 S    
C1    C46   1.476930 S    
C43   N9    1.469127 S    
N10   O29   1.295055 A    
C41   O25   1.413543 S    
O5    C3    1.299923 A    
C44   N10   1.471867 S    
C2    C16   1.464790 S    
C3    C47   1.489092 S    
N12   O37   1.298367 A    
N9    O28   1.297879 A    
N1    C6    1.367031 A    
O23   H21   0.993886 S    
O6    C3    1.296148 A    
C40   O22   1.385267 S    
C10   H2    1.083164 S    
C53   N13   1.475478 S    
C51   H17   1.105931 S    
C50   N4    1.512234 S    
C12   C34   1.413071 A    
C54   N14   1.463323 S    
C14   H3    1.083407 S    
N13   O40   1.298271 A    
C9    C10   1.386176 A    
C19   C38   1.421143 A    
C26   O12   1.349903 S    
O3    Zn1   1.965412 S    
C50   O34   1.400476 S    
N7    O18   1.302163 A    
C51   C52   1.577761 S    
C49   H13   1.118023 S    
C33   C36   1.410843 A    
C34   C35   1.411603 A    
C31   C32   1.396046 A    
N13   O39   1.300585 A    
C12   C13   1.410292 A    
O3    C2    1.299479 A    
C38   N7    1.441603 S    
N5    O13   1.301616 A    
H11   C45   1.112765 S    
C7    C11   1.414754 A    
C27   O10   1.348955 S    
C8    C16   1.400224 A    
C41   C43   1.546825 S    
C18   C33   1.419808 A    
C52   N4    1.509075 S    
C9    H1    1.079911 S    
C35   C40   1.415664 A    
C41   C46   1.582205 S    
C38   C39   1.415546 A    
O1    C1    1.293602 A    
C20   C24   1.409341 A    
C47   C48   1.589740 S    
C22   C23   1.411986 A    
N5    O14   1.301170 A    
C6    O11   1.348789 S    
C51   N11   1.476897 S    
C53   C54   1.587518 S    
Zn2   O8    1.965638 S    
N8    O20   1.301071 A    
C33   C34   1.420156 A    
N2    C32   1.432515 S    
C8    H7    1.076414 S    
N6    O16   1.301196 A    
O31   H25   0.989345 S    
N14   O42   1.301748 A    
C29   O43   1.376972 S    
N12   O38   1.299247 A    
Zn2   O6    2.041876 S    
C25   C26   1.403966 A    
C53   N3    1.504637 S    
C9    C16   1.399402 A    
O8    C4    1.316282 A    
O33   H27   0.993285 S    
C45   C48   1.566970 S    
C43   C47   1.582243 S    
N2    C27   1.365469 A    
C52   N12   1.477730 S    
O34   H28   0.991673 S    
C14   C36   1.389046 A    
C31   H8    1.083634 S    
C49   O33   1.402496 S    
C28   C29   1.400073 A    
O26   H24   0.992233 S    
C36   H6    1.078631 S    
C37   C40   1.413209 A    
Zn1   O5    2.048875 S    
C30   N8    1.428749 S    
C30   C31   1.399997 A    
C22   O44   1.382826 S    
O25   H23   0.983283 S    
O1    Zn1   2.042623 S    
C48   O32   1.404949 S    
C17   C30   1.415767 A    
O2    Zn2   2.049621 S    
C6    C15   1.412211 A    
C54   H16   1.116906 S    
C4    C17   1.487151 S    
H12   C45   1.113491 S    
C15   C37   1.417061 A    
O4    Zn2   1.971143 S    
O22   H20   0.988441 S    
C19   C35   1.417252 A    
C52   H18   1.106899 S    
O44   H30   0.991620 S    
C13   C14   1.399468 A    
C23   C27   1.410124 A    
C21   H5    1.077873 S    
O24   H22   0.993014 S    
N9    O27   1.303075 A    
O4    C2    1.303154 A    
N8    O19   1.301601 A    
C18   C20   1.414442 A    
O2    C1    1.296534 A    
C42   O24   1.414540 S    
C37   N6    1.433837 S    
N6    O15   1.301047 A    
N10   O30   1.302072 A    
C7    N5    1.441095 S    
N14   O41   1.290454 A    
C25   C39   1.412399 A    
C49   N3    1.502263 S    
C24   C25   1.410577 A    
C28   H4    1.083566 S    
C44   H10   1.112918 S    
O21   H19   0.987764 S    
C10   C11   1.398707 A    
C43   H9    1.105647 S    
O43   H29   0.992172 S    
C41   O23   1.412582 S    
C51   N3    1.504751 S    
C28   C32   1.390416 A    
N11   O36   1.298790 A    
