data_mof_unit_32007.cif
_audit_creation_date              2012-12-11T15:53:43-0500
_audit_creation_method            fapswitch 2.2
_symmetry_space_group_name_H-M    P1
_symmetry_Int_Tables_number       1
_space_group_crystal_system       triclinic
_cell_length_a                    6.930539
_cell_length_b                    14.530401
_cell_length_c                    15.977708
_cell_angle_alpha                 90.498035
_cell_angle_beta                  90.05111
_cell_angle_gamma                 90.028506
_cell_volume                      1608.94965923

loop_
_atom_site_label
_atom_site_type_symbol
_atom_type_description
_atom_site_fract_x
_atom_site_fract_y
_atom_site_fract_z
_atom_type_partial_charge
O1    O     O_R   0.361600 0.167310 0.164620 -0.543652
O2    O     O_R   0.638400 0.832690 0.835380 -0.543653
O3    O     O_R   0.691080 0.157570 0.338750 -0.538498
O4    O     O_R   0.308920 0.842430 0.661250 -0.538498
O5    O     O_R   0.861410 0.336420 0.339360 -0.528116
O6    O     O_R   0.138590 0.663580 0.660640 -0.528116
C1    C     C_R   0.522052 0.135226 0.367503 0.722535
C2    C     C_R   0.477948 0.864774 0.632497 0.722535
O7    O     O_R   0.691320 0.156280 0.165240 -0.546188
O8    O     O_R   0.308680 0.843720 0.834760 -0.546188
O9    O     O_R   0.861640 0.335130 0.164600 -0.544015
O10   O     O_R   0.138360 0.664870 0.835400 -0.544015
C3    C     C_R   0.522223 0.133801 0.136083 0.679796
C4    C     C_R   0.477776 0.866199 0.863917 0.679797
O11   O     O_R   0.361370 0.168600 0.339370 -0.540945
O12   O     O_R   0.638630 0.831400 0.660630 -0.540945
O13   O     O_3   0.527990 0.310540 0.251980 -0.367068
O14   O     O_3   0.472010 0.689460 0.748020 -0.367069
V1    V     V_3+5 0.802830 0.240980 0.251990 1.436599
V2    V     V_3+5 0.197170 0.759020 0.748010 1.436599
O15   O     O_R   0.191360 0.346160 0.165220 -0.545677
O16   O     O_R   0.808640 0.653840 0.834780 -0.545677
C5    C     C_R   0.022285 0.368242 0.136058 0.678201
C6    C     C_R   0.977715 0.631758 0.863942 0.678201
O17   O     O_R   0.191130 0.347440 0.338740 -0.538899
O18   O     O_R   0.808870 0.652560 0.661260 -0.538899
C7    C     C_R   0.022362 0.369582 0.367628 0.741784
C8    C     C_R   0.977638 0.630418 0.632372 0.741784
V3    V     V_3+5 0.302840 0.262750 0.251990 1.436529
V4    V     V_3+5 0.697160 0.737250 0.748010 1.436529
O19   O     O_3   0.027820 0.193180 0.251990 -0.373706
O20   O     O_3   0.972180 0.806820 0.748010 -0.373706
C9    C     C_3   0.913104 0.422168 0.522559 0.189701
C10   C     C_3   0.086896 0.577832 0.477441 0.189700
C11   C     C_3   0.087265 0.466276 0.568437 -0.177486
C12   C     C_3   0.912735 0.533723 0.431563 -0.177486
H1    H     H_    0.158481 0.438533 0.625125 0.145425
H2    H     H_    0.841519 0.561467 0.374875 0.145425
C13   C     C_3   0.988208 0.560943 0.562125 -0.084363
C14   C     C_3   0.011792 0.439057 0.437875 -0.084363
C15   C     C_3   0.813346 0.517135 0.517161 -0.152008
C16   C     C_3   0.186654 0.482865 0.482839 -0.152008
C17   C     C_R   0.820567 0.525083 0.967267 -0.147198
C18   C     C_R   0.179433 0.474917 0.032732 -0.147198
C19   C     C_R   0.831574 0.462058 0.032981 -0.145173
C20   C     C_R   0.168426 0.537942 0.967020 -0.145173
C21   C     C_R   0.011166 0.436071 0.066690 -0.043904
C22   C     C_R   0.988834 0.563929 0.933310 -0.043903
C23   C     C_R   0.679545 0.026666 0.468547 -0.114482
C24   C     C_R   0.320455 0.973334 0.531453 -0.114482
H3    H     H_    0.820336 0.046164 0.445335 0.124005
H4    H     H_    0.179664 0.953836 0.554665 0.124005
C25   C     C_R   0.668624 0.961456 0.532280 -0.125255
C26   C     C_R   0.331375 0.038544 0.467720 -0.125256
C27   C     C_R   0.488935 0.933955 0.564633 -0.044015
C28   C     C_R   0.511065 0.066045 0.435367 -0.044015
C29   C     C_R   0.679459 0.025581 0.032842 -0.149323
C30   C     C_R   0.320541 0.974418 0.967158 -0.149323
C31   C     C_R   0.668502 0.961511 0.967067 -0.144787
C32   C     C_R   0.331498 0.038489 0.032933 -0.144787
H5    H     H_    0.801338 0.932623 0.942793 0.118490
H6    H     H_    0.198662 0.067377 0.057207 0.118490
C33   C     C_R   0.488891 0.935057 0.933291 -0.043515
C34   C     C_R   0.511109 0.064943 0.066709 -0.043515
I1    I     I_    0.771768 0.298263 0.559387 -0.459292
I2    I     I_    0.228231 0.701737 0.440613 -0.459292
H7    H     H_    0.659494 0.531170 0.531685 0.147331
H8    H     H_    0.340506 0.468830 0.468315 0.147331
H9    H     H_    0.679787 0.543367 0.943163 0.117111
H10   H     H_    0.320213 0.456633 0.056837 0.117111
H11   H     H_    0.698732 0.433599 0.057271 0.118563
H12   H     H_    0.301268 0.566400 0.942729 0.118563
H13   H     H_    0.801530 0.932634 0.556182 0.124481
H14   H     H_    0.198470 0.067366 0.443818 0.124481
H15   H     H_    0.820220 0.044257 0.057060 0.117017
H16   H     H_    0.179780 0.955743 0.942940 0.117017

loop_
_geom_bond_atom_site_label_1
_geom_bond_atom_site_label_2
_ccdc_geom_bond_type
C19   H11   S    
O13   V3    S    
C10   C16   S    
O4    C2    A    
V1    O19   S    
C10   I2    S    
C9    I1    S    
C13   C15   S    
O9    V1    S    
C24   C26   A    
C11   H1    S    
O3    C1    A    
C29   C31   A    
C30   C32   A    
C32   H6    S    
C19   C21   A    
O9    C5    A    
C11   C16   S    
O7    C3    A    
C9    C11   S    
O5    C7    A    
O7    V1    S    
O6    C8    A    
O8    V2    S    
C23   H3    S    
C24   H4    S    
O3    V1    S    
O14   V4    S    
C17   C22   A    
C20   H12   S    
C18   C21   A    
C1    O11   A    
C2    O12   A    
C26   H14   S    
C16   H8    S    
C12   C15   S    
C1    C28   S    
C2    C27   S    
C18   C20   A    
O11   V3    S    
C20   C22   A    
C25   C27   A    
O17   V3    S    
C26   C28   A    
C31   H5    S    
C9    C14   S    
C5    C21   S    
C30   H16   S    
C10   C13   S    
C6    C22   S    
C12   C14   S    
C15   H7    S    
O8    C4    A    
C8    C13   S    
O15   V3    S    
C11   C13   S    
C7    C14   S    
O10   V2    S    
O1    V3    S    
C18   H10   S    
C17   C19   A    
O18   V4    S    
O15   C5    A    
O16   C6    A    
O1    C3    A    
C29   C34   A    
V2    O20   S    
C30   C33   A    
O16   V4    S    
C31   C33   A    
C25   H13   S    
O5    V1    S    
O17   C7    A    
C23   C28   A    
O6    V2    S    
O10   C6    A    
O18   C8    A    
C24   C27   A    
O2    V4    S    
C32   C34   A    
C9    C15   S    
C29   H15   S    
C12   H2    S    
V3    O19   S    
V4    O20   S    
C3    C34   S    
C23   C25   A    
C4    C33   S    
C14   C16   S    
O13   V1    S    
C10   C12   S    
O14   V2    S    
O2    C4    A    
O4    V2    S    
C17   H9    S    
O12   V4    S    
