data_mof_unit_17051.cif
_audit_creation_date              2012-12-11T15:54:56-0500
_audit_creation_method            fapswitch 2.2
_symmetry_space_group_name_H-M    P1
_symmetry_Int_Tables_number       1
_space_group_crystal_system       triclinic
_cell_length_a                    17.493272
_cell_length_b                    24.304581
_cell_length_c                    14.948874
_cell_angle_alpha                 90.160883
_cell_angle_beta                  125.497454
_cell_angle_gamma                 89.822742
_cell_volume                      5174.46022666

loop_
_atom_site_label
_atom_site_type_symbol
_atom_type_description
_atom_site_fract_x
_atom_site_fract_y
_atom_site_fract_z
_atom_type_partial_charge
Br1   Br    Br    0.515319 0.794319 0.110517 -0.586715
Br2   Br    Br    0.513966 0.204716 0.107837 -0.595193
Br3   Br    Br    0.015079 0.294334 0.109844 -0.597045
Br4   Br    Br    0.804504 0.726559 0.789363 -0.602383
Br5   Br    Br    0.636075 0.964776 0.491279 -0.607354
Br6   Br    Br    0.534735 0.032319 0.790217 -0.544014
Br7   Br    Br    0.135339 0.464236 0.491073 -0.628528
Br8   Br    Br    0.035184 0.532783 0.790644 -0.543918
C1    C     C_R   0.945559 0.847007 0.090951 -0.154915
C2    C     C_R   0.190542 0.876915 0.091704 -0.146246
C3    C     C_R   0.382030 0.684040 0.999724 0.060585
C4    C     C_R   0.676125 0.999325 0.723588 0.134450
C5    C     C_R   0.176089 0.499258 0.723516 0.135665
C6    C     C_R   0.948027 0.000068 0.272350 0.010923
C7    C     C_R   0.448285 0.500158 0.272645 0.004773
C8    C     C_R   0.253316 0.953506 0.303486 -0.093639
C9    C     C_R   0.257030 0.045077 0.304116 -0.174711
C10   C     C_R   0.753109 0.453457 0.303628 -0.095214
C11   C     C_R   0.756657 0.544972 0.304612 -0.176789
C12   C     C_R   0.949747 0.045721 0.694932 -0.143827
C13   C     C_R   0.689515 0.624184 0.093276 -0.100972
C14   C     C_R   0.949703 0.954205 0.694762 -0.120794
C15   C     C_R   0.450048 0.545800 0.695147 -0.142026
C16   C     C_R   0.449766 0.454256 0.694767 -0.120879
C17   C     C_R   0.690528 0.376893 0.091720 -0.124290
C18   C     C_R   0.303445 0.998526 0.365235 0.115334
C19   C     C_R   0.802998 0.498425 0.365767 0.116777
C20   C     C_R   0.932461 0.999944 0.631270 0.038731
C21   C     C_R   0.432711 0.500043 0.631431 0.037133
C22   C     C_R   0.187787 0.864001 0.999255 0.023738
C23   C     C_R   0.186622 0.137394 0.999212 0.018388
C24   C     C_R   0.687754 0.363967 0.999269 0.021835
C25   C     C_R   0.942511 0.152484 0.091355 -0.126547
C26   C     C_R   0.685750 0.639253 0.001791 0.012926
C27   C     C_3   0.880769 0.051542 0.357992 -0.385031
C28   C     C_3   0.881449 0.948330 0.357965 -0.394544
C29   C     C_3   0.381537 0.551852 0.358602 -0.395803
C30   C     C_3   0.381205 0.448641 0.357843 -0.395988
C31   C     C_3   0.877069 0.051622 0.458379 -0.378107
C32   C     C_3   0.877583 0.948217 0.458232 -0.362622
C33   C     C_3   0.377748 0.551899 0.458906 -0.387506
C34   C     C_3   0.377430 0.448494 0.458162 -0.367218
C35   C     C_3   0.035647 0.000126 0.469885 -0.370577
C36   C     C_R   0.442706 0.347590 0.091368 -0.127934
C37   C     C_3   0.535930 0.499938 0.470143 -0.367033
C38   C     C_3   0.935237 0.000022 0.361356 0.350936
C39   C     C_3   0.435514 0.500157 0.361627 0.359303
C40   C     C_3   0.928244 0.999936 0.530300 0.343129
C41   C     C_3   0.428515 0.500066 0.530517 0.350905
C42   C     C_R   0.851298 0.152273 0.908344 -0.128875
C43   C     C_R   0.852888 0.847436 0.908463 -0.120220
C44   C     C_R   0.351351 0.652292 0.908338 -0.127973
C45   C     C_R   0.352209 0.347463 0.908537 -0.154933
C46   C     C_3   0.031459 0.000000 0.568563 -0.398730
C47   C     C_R   0.442591 0.652514 0.091336 -0.128894
C48   C     C_3   0.531737 0.499858 0.568808 -0.396633
C49   C     C_3   0.795270 0.269077 0.893089 -0.361445
C50   C     C_3   0.732223 0.781670 0.943644 -0.372681
C51   C     C_3   0.295655 0.769249 0.893236 -0.362058
C52   C     C_3   0.294033 0.231309 0.892547 -0.358802
C53   C     C_3   0.243428 0.819959 0.894202 -0.391118
C54   C     C_3   0.241339 0.181076 0.893413 -0.388967
C55   C     C_3   0.743093 0.319796 0.894057 -0.387609
C56   C     C_3   0.678355 0.733996 0.947024 -0.366237
C57   C     C_3   0.403761 0.772093 0.101621 0.212973
C58   C     C_R   0.098369 0.876761 0.907412 -0.120027
C59   C     C_3   0.403441 0.227865 0.100781 0.213833
C60   C     C_3   0.903738 0.272123 0.101446 0.214317
C61   C     C_3   0.843309 0.714534 0.939518 0.200877
C62   C     C_3   0.754763 0.215717 0.004759 -0.451564
C63   C     C_3   0.879019 0.747777 0.119617 -0.466280
C64   C     C_3   0.254692 0.715765 0.004336 -0.455806
C65   C     C_3   0.255254 0.285241 0.005771 -0.462307
C66   C     C_3   0.836437 0.234840 0.999752 0.244071
C67   C     C_3   0.836303 0.765497 0.999199 0.263459
C68   C     C_3   0.336561 0.734902 0.999723 0.251119
C69   C     C_R   0.097565 0.124137 0.907324 -0.133258
C70   C     C_3   0.336298 0.265464 0.999712 0.251134
C71   C     C_3   0.245064 0.819516 0.999271 0.308076
C72   C     C_3   0.244038 0.181580 0.999199 0.301550
C73   C     C_3   0.744985 0.319462 0.999296 0.292103
C74   C     C_3   0.743482 0.683205 0.002567 0.317028
C75   C     C_3   0.349546 0.822761 0.100022 -0.437885
C76   C     C_3   0.348755 0.177647 0.099138 -0.448900
C77   C     C_3   0.849531 0.322796 0.099853 -0.440591
C78   C     C_3   0.785008 0.666353 0.939044 -0.436408
C79   C     C_3   0.201067 0.765169 0.003791 -0.377262
C80   C     C_R   0.598356 0.376750 0.907416 -0.129346
C81   C     C_3   0.201199 0.236244 0.005227 -0.352393
C82   C     C_3   0.701144 0.265132 0.004197 -0.352075
C83   C     C_3   0.825670 0.699106 0.121539 -0.408946
C84   C     C_3   0.463086 0.015564 0.428657 -0.579166
C85   C     C_3   0.413911 0.038542 0.552764 -0.490676
C86   C     C_3   0.962604 0.515266 0.428769 -0.584861
C87   C     C_3   0.913877 0.538605 0.553162 -0.478132
C88   C     C_R   0.733543 0.953574 0.755018 -0.027569
C89   C     C_R   0.731433 0.045924 0.750563 -0.125990
C90   C     C_R   0.233551 0.453511 0.754917 -0.026598
C91   C     C_R   0.598614 0.624185 0.908526 -0.138062
C92   C     C_R   0.231381 0.545885 0.750457 -0.128276
C93   C     C_3   0.566309 0.013228 0.525524 0.163553
C94   C     C_3   0.518902 0.041202 0.650409 0.188912
C95   C     C_3   0.065905 0.512918 0.525437 0.164145
C96   C     C_3   0.018961 0.541299 0.650550 0.188186
C97   C     C_3   0.429953 0.937977 0.518728 0.931286
C98   C     C_3   0.929644 0.437943 0.519471 0.933666
C99   C     C_3   0.400219 0.997024 0.464940 0.138180
C100  C     C_3   0.899887 0.496928 0.465398 0.134750
C101  C     C_3   0.575488 0.998038 0.633187 0.056217
C102  C     C_R   0.189833 0.124124 0.091750 -0.107716
C103  C     C_3   0.075349 0.497966 0.633340 0.059478
C104  C     C_3   0.532459 0.940122 0.620931 -0.536446
C105  C     C_3   0.032254 0.440126 0.621558 -0.541335
C106  C     C_R   0.978662 0.046174 0.246739 -0.126360
C107  C     C_R   0.978534 0.953906 0.246307 -0.124152
C108  C     C_R   0.478798 0.546228 0.246852 -0.124278
C109  C     C_R   0.478812 0.453975 0.246709 -0.125210
C110  C     C_R   0.883659 0.815578 0.999458 0.037749
C111  C     C_R   0.881902 0.183990 0.999744 0.063232
C112  C     C_R   0.382380 0.315950 0.999842 0.071530
H1    H     H_    0.990337 0.833805 0.175647 0.094187
H2    H     H_    0.803264 0.947526 0.430678 0.207993
H3    H     H_    0.772256 0.587224 0.332148 0.105411
H4    H     H_    0.936549 0.088225 0.669259 0.090521
H5    H     H_    0.936403 0.911710 0.668809 0.102567
H6    H     H_    0.437256 0.588355 0.669789 0.090559
H7    H     H_    0.436447 0.411774 0.668726 0.094581
H8    H     H_    0.069220 0.869239 0.822206 0.092236
H9    H     H_    0.068112 0.131715 0.822102 0.091674
H10   H     H_    0.569201 0.369253 0.822203 0.089633
H11   H     H_    0.571564 0.631627 0.823762 0.097931
H12   H     H_    0.245420 0.132226 0.176656 0.094122
H13   H     H_    0.303444 0.552704 0.431424 0.181158
H14   H     H_    0.246424 0.869207 0.176674 0.118810
H15   H     H_    0.745414 0.630297 0.178816 0.092207
H16   H     H_    0.746398 0.369167 0.176693 0.117812
H17   H     H_    0.915401 0.090165 0.359934 0.149793
H18   H     H_    0.916708 0.909803 0.360112 0.150057
H19   H     H_    0.416609 0.590361 0.360949 0.152625
H20   H     H_    0.415994 0.409987 0.359596 0.149608
H21   H     H_    0.466220 0.905643 0.426547 0.338413
H22   H     H_    0.385571 0.884031 0.575312 0.332371
H23   H     H_    0.965698 0.405341 0.427291 0.336873
H24   H     H_    0.303126 0.447985 0.430677 0.205750
H25   H     H_    0.885406 0.384207 0.576557 0.332725
H26   H     H_    0.911048 0.090020 0.505499 0.148159
H27   H     H_    0.911859 0.909857 0.505295 0.149068
H28   H     H_    0.411988 0.590204 0.506254 0.151397
H29   H     H_    0.411442 0.410037 0.504977 0.146604
H30   H     H_    0.075134 0.037116 0.474232 0.161999
H31   H     H_    0.075694 0.963311 0.474049 0.167056
H32   H     H_    0.575774 0.536787 0.474688 0.169629
H33   H     H_    0.984769 0.165696 0.176110 0.102829
H34   H     H_    0.575619 0.462981 0.474107 0.166864
H35   H     H_    0.068853 0.036910 0.620200 0.162901
H36   H     H_    0.069111 0.963045 0.619826 0.161431
H37   H     H_    0.569394 0.536684 0.620595 0.170370
H38   H     H_    0.569120 0.462818 0.619920 0.160597
H39   H     H_    0.851699 0.281965 0.884635 0.200851
H40   H     H_    0.698277 0.793671 0.856451 0.183271
H41   H     H_    0.352236 0.782168 0.885077 0.199671
H42   H     H_    0.349910 0.217877 0.883315 0.203965
H43   H     H_    0.744120 0.244270 0.819257 0.144628
H44   H     H_    0.484832 0.334488 0.176127 0.102310
H45   H     H_    0.727267 0.817798 0.986137 0.178380
H46   H     H_    0.244599 0.744508 0.819250 0.145757
H47   H     H_    0.242983 0.256406 0.819185 0.147250
H48   H     H_    0.670230 0.318427 0.818379 0.147324
H49   H     H_    0.648721 0.746514 0.992886 0.196014
H50   H     H_    0.170620 0.818660 0.818409 0.150165
H51   H     H_    0.168272 0.182982 0.818182 0.147867
H52   H     H_    0.276704 0.858224 0.891329 0.180732
H53   H     H_    0.273644 0.142516 0.889296 0.183219
H54   H     H_    0.776259 0.358047 0.890924 0.181711
H55   H     H_    0.484891 0.665733 0.176086 0.107437
H56   H     H_    0.618115 0.724645 0.861210 0.160874
H57   H     H_    0.809391 0.165031 0.823400 0.086894
H58   H     H_    0.807835 0.835652 0.823264 0.157362
H59   H     H_    0.309403 0.665038 0.823386 0.085841
H60   H     H_    0.311360 0.334247 0.823821 0.098787
H61   H     H_    0.381154 0.861623 0.096606 0.212136
H62   H     H_    0.379534 0.138518 0.094691 0.211023
H63   H     H_    0.881018 0.361650 0.096181 0.211909
H64   H     H_    0.727033 0.654637 0.853594 0.198174
H65   H     H_    0.781995 0.191112 0.080497 0.175048
H66   H     H_    0.808313 0.051686 0.280908 0.183598
H67   H     H_    0.954326 0.736426 0.162629 0.158926
H68   H     H_    0.281729 0.691075 0.079927 0.165602
H69   H     H_    0.283201 0.309822 0.081861 0.172429
H70   H     H_    0.705673 0.188788 0.933229 0.199172
H71   H     H_    0.874753 0.782123 0.166108 0.181723
H72   H     H_    0.205653 0.688911 0.932638 0.199901
H73   H     H_    0.206258 0.312387 0.934667 0.189599
H74   H     H_    0.626333 0.262004 0.932204 0.181611
H75   H     H_    0.798820 0.711643 0.170268 0.176413
H76   H     H_    0.126302 0.762102 0.931648 0.186410
H77   H     H_    0.809044 0.947952 0.280804 0.184492
H78   H     H_    0.126263 0.239774 0.933693 0.178847
H79   H     H_    0.202074 0.763968 0.078955 0.163489
H80   H     H_    0.202986 0.237506 0.080918 0.187473
H81   H     H_    0.702319 0.264006 0.079480 0.190210
H82   H     H_    0.874122 0.663544 0.163508 0.161916
H83   H     H_    0.429535 0.748966 0.178318 0.086234
H84   H     H_    0.430203 0.250918 0.177981 0.076838
H85   H     H_    0.929716 0.249068 0.178277 0.083373
H86   H     H_    0.918197 0.701616 0.986459 0.106247
H87   H     H_    0.355975 0.823282 0.178383 0.152025
H88   H     H_    0.309113 0.552270 0.281474 0.173211
H89   H     H_    0.355786 0.177171 0.177863 0.133796
H90   H     H_    0.856126 0.323399 0.178314 0.152056
H91   H     H_    0.830645 0.629460 0.977849 0.159299
H92   H     H_    0.449435 0.990414 0.358517 0.228027
H93   H     H_    0.369817 0.026294 0.580748 0.245290
H94   H     H_    0.948746 0.490002 0.358655 0.227338
H95   H     H_    0.869962 0.526489 0.581464 0.248022
H96   H     H_    0.445486 0.058686 0.397739 0.177594
H97   H     H_    0.390643 0.080507 0.517475 0.148947
H98   H     H_    0.945032 0.558360 0.397684 0.174165
H99   H     H_    0.308771 0.448551 0.280723 0.182072
H100  H     H_    0.890594 0.580540 0.517722 0.154251
H101  H     H_    0.596329 0.054915 0.534714 0.108632
H102  H     H_    0.545044 0.083197 0.652592 0.081748
H103  H     H_    0.095991 0.554557 0.534347 0.105070
H104  H     H_    0.045082 0.583244 0.652338 0.084297
H105  H     H_    0.715012 0.910776 0.745095 0.096491
H106  H     H_    0.708614 0.088288 0.732580 0.087127
H107  H     H_    0.215190 0.410653 0.745064 0.093759
H108  H     H_    0.208537 0.588245 0.732509 0.086974
H109  H     H_    0.571745 0.907490 0.611659 0.191249
H110  H     H_    0.802779 0.052251 0.430959 0.189730
H111  H     H_    0.537507 0.929649 0.696588 0.213111
H112  H     H_    0.071455 0.407369 0.612454 0.185747
H113  H     H_    0.037403 0.429876 0.697360 0.212595
H114  H     H_    0.972922 0.088774 0.262318 0.090879
H115  H     H_    0.972502 0.911263 0.260990 0.092545
H116  H     H_    0.473068 0.588844 0.262339 0.092808
H117  H     H_    0.473250 0.411413 0.262167 0.090847
H118  H     H_    0.259824 0.911345 0.329341 0.169199
H119  H     H_    0.272906 0.087389 0.331216 0.101266
H120  H     H_    0.759517 0.411275 0.329330 0.173396
N1    N     N_R   0.950530 0.896220 0.057200 -0.036555
N2    N     N_R   0.818150 0.028600 0.792440 -0.040981
N3    N     N_R   0.318150 0.471400 0.792440 -0.042259
N4    N     N_R   0.318150 0.528600 0.792440 -0.040766
N5    N     N_R   0.025710 0.028600 0.207560 -0.039107
N6    N     N_R   0.025710 0.971400 0.207560 -0.040269
N7    N     N_R   0.525710 0.528600 0.207560 -0.038576
N8    N     N_R   0.525710 0.471400 0.207560 -0.040180
N9    N     N_R   0.181850 0.971400 0.207560 -0.056832
N10   N     N_R   0.181850 0.028600 0.207560 -0.040127
N11   N     N_R   0.681850 0.471400 0.207560 -0.058859
N12   N     N_R   0.950530 0.103780 0.057200 -0.038294
N13   N     N_R   0.681850 0.528600 0.207560 -0.041876
N14   N     N_R   0.974290 0.028600 0.792440 -0.038855
N15   N     N_R   0.974290 0.971400 0.792440 -0.039925
N16   N     N_R   0.474290 0.528600 0.792440 -0.038369
N17   N     N_R   0.474290 0.471400 0.792440 -0.039530
N18   N     N_R   0.049470 0.896220 0.942800 -0.036305
N19   N     N_R   0.049470 0.103780 0.942800 -0.038962
N20   N     N_R   0.549470 0.396220 0.942800 -0.037686
N21   N     N_R   0.549470 0.603780 0.942800 -0.038377
N22   N     N_R   0.106670 0.103780 0.057200 -0.035588
N23   N     N_R   0.450530 0.396220 0.057200 -0.039400
N24   N     N_R   0.106670 0.896220 0.057200 -0.041883
N25   N     N_R   0.606670 0.603780 0.057200 -0.035275
N26   N     N_R   0.606670 0.396220 0.057200 -0.037678
N27   N     N_R   0.450530 0.603780 0.057200 -0.038845
N28   N     N_R   0.893330 0.103780 0.942800 -0.037792
N29   N     N_R   0.893330 0.896220 0.942800 -0.048511
N30   N     N_R   0.393330 0.603780 0.942800 -0.037924
N31   N     N_R   0.393330 0.396220 0.942800 -0.042862
N32   N     N_R   0.818150 0.971400 0.792440 -0.042265
Ni1   Ni    Ni4+2 0.065600 0.934400 0.131190 0.213231
Ni2   Ni    Ni4+2 0.065600 0.065600 0.131190 0.225489
Ni3   Ni    Ni4+2 0.565600 0.434400 0.131190 0.227494
Ni4   Ni    Ni4+2 0.565600 0.565600 0.131190 0.228995
Ni5   Ni    Ni4+2 0.934400 0.065600 0.868810 0.223807
Ni6   Ni    Ni4+2 0.934400 0.934400 0.868810 0.247083
Ni7   Ni    Ni4+2 0.434400 0.565600 0.868810 0.222082
Ni8   Ni    Ni4+2 0.434400 0.434400 0.868810 0.233231
O1    O     O_3   0.421597 0.897486 0.445147 -0.811156
O2    O     O_3   0.371449 0.922992 0.550883 -0.769821
O3    O     O_3   0.921139 0.397309 0.446042 -0.812546
O4    O     O_3   0.871243 0.423128 0.551861 -0.767907

loop_
_geom_bond_atom_site_label_1
_geom_bond_atom_site_label_2
_ccdc_geom_bond_type
N21   N25   A    
N30   Ni7   S    
C71   C75   S    
C19   C100  S    
C60   C77   S    
C65   H73   S    
C87   H95   S    
N16   Ni7   S    
C70   C112  S    
Br3   C60   S    
Br8   C96   S    
C66   C111  S    
C80   H10   S    
C64   C68   S    
N19   N22   A    
C1    N1    A    
C77   H90   S    
C36   N23   A    
C107  H115  S    
C17   N26   A    
C45   C112  A    
C35   H31   S    
C23   C72   S    
C6    C38   S    
C21   C41   S    
C40   C46   S    
C24   C73   S    
C67   C110  S    
C11   H3    S    
N9    N10   A    
C48   H37   S    
C104  H111  S    
C54   H51   S    
C55   C73   S    
C9    C18   A    
C15   C21   A    
C85   H97   S    
N1    N29   A    
N11   Ni3   S    
C79   H76   S    
C30   C34   S    
C3    C68   S    
C46   H36   S    
C65   H69   S    
N20   Ni8   S    
N14   Ni5   S    
C25   H33   S    
C87   H100  S    
N11   N13   A    
C106  N5    A    
C36   C112  A    
C93   C101  S    
N3    N4    A    
C24   C80   A    
C9    N10   A    
C86   H98   S    
C43   C110  A    
C83   H75   S    
C75   H61   S    
C52   C54   S    
C98   O3    S    
N1    Ni1   S    
C72   C81   S    
C17   H16   S    
C34   H29   S    
C32   C40   S    
C16   C21   A    
Br4   C61   S    
C48   H38   S    
C59   H84   S    
N25   Ni4   S    
C62   H65   S    
C95   H103  S    
C89   N2    A    
C56   H49   S    
C96   H104  S    
Br1   C57   S    
C11   N13   A    
C44   N30   A    
C37   C48   S    
C10   H120  S    
C45   N31   A    
C49   H43   S    
N18   Ni6   S    
C16   H7    S    
C1    H1    S    
C65   C70   S    
C102  H12   S    
C14   N15   A    
C3    C44   A    
C79   H79   S    
C56   H56   S    
C43   H58   S    
C11   C19   A    
C10   N11   A    
C84   H96   S    
C92   N4    A    
C13   N25   A    
C82   H81   S    
N32   Ni6   S    
C17   C24   A    
N23   N31   A    
C89   H106  S    
C49   H39   S    
C8    H118  S    
C59   C76   S    
C77   H63   S    
Br7   C95   S    
N5    N6    A    
C12   H4    S    
C50   C56   S    
C1    C110  A    
C20   C40   S    
C62   C82   S    
C59   C70   S    
C62   H70   S    
C55   H54   S    
C71   C79   S    
C4    C101  S    
N12   N28   A    
C50   C67   S    
C23   C69   A    
Br5   C93   S    
C52   C70   S    
C37   C39   S    
C8    C18   A    
N22   Ni2   S    
C42   N28   A    
N27   Ni4   S    
C86   H94   S    
C52   H47   S    
C51   C53   S    
C98   C105  S    
C85   H93   S    
C42   C111  A    
C29   H19   S    
C28   C32   S    
C42   H57   S    
C47   N27   A    
C78   H91   S    
C31   H110  S    
C106  H114  S    
Br2   C59   S    
C87   C100  S    
C101  C104  S    
C46   H35   S    
C80   N20   A    
C76   H89   S    
C14   H5    S    
C13   C26   A    
C12   C20   A    
C97   O2    S    
C74   C78   S    
C54   H53   S    
N28   Ni5   S    
N4    Ni7   S    
C74   C83   S    
C7    C109  A    
N5    Ni2   S    
C50   H45   S    
N2    N32   A    
C49   C66   S    
C85   C94   S    
C25   N12   A    
C27   C31   S    
C50   H40   S    
C62   C66   S    
N14   N15   A    
C51   H41   S    
C36   H44   S    
C97   C99   S    
C4    C89   A    
C2    C22   A    
C35   C46   S    
C97   O1    S    
N21   Ni7   S    
C108  N7    A    
N26   Ni3   S    
N7    N8    A    
C84   C99   S    
C86   C100  S    
N16   N17   A    
C108  H116  S    
C26   C91   A    
C61   H86   S    
C103  C105  S    
C53   H52   S    
C69   H9    S    
C28   H77   S    
C28   C38   S    
C57   C68   S    
C47   H55   S    
C30   C39   S    
C22   C58   A    
C51   H46   S    
C84   C93   S    
N8    Ni3   S    
C15   H6    S    
C33   H13   S    
C9    H119  S    
N31   Ni8   S    
C97   C104  S    
C86   C95   S    
C25   C111  A    
N23   Ni3   S    
C43   N29   A    
N15   Ni6   S    
C64   H68   S    
C29   H88   S    
N9    Ni1   S    
C84   H92   S    
C29   C39   S    
C73   C82   S    
N20   N26   A    
C41   C48   S    
C45   H60   S    
C64   C79   S    
C3    C47   A    
C87   C96   S    
C94   H102  S    
C105  H112  S    
C90   H107  S    
C109  N8    A    
C54   C72   S    
C82   H74   S    
C78   H64   S    
C81   H80   S    
C55   H48   S    
C92   H108  S    
C56   C74   S    
C32   H27   S    
C94   C101  S    
C30   H99   S    
C58   H8    S    
N6    Ni1   S    
N18   N24   A    
C10   C19   A    
C2    H14   S    
C49   C55   S    
C63   H67   S    
C15   N16   A    
C58   N18   A    
N13   Ni4   S    
C18   C99   S    
C96   C103  S    
C8    N9    A    
C12   N14   A    
C37   H34   S    
C95   C103  S    
C13   H15   S    
C88   N32   A    
C33   C41   S    
C32   H2    S    
H23   O3    S    
N24   Ni1   S    
C5    C90   A    
C91   H11   S    
C37   H32   S    
C88   H105  S    
C107  N6    A    
C5    C92   A    
C76   H62   S    
C44   H59   S    
C65   C81   S    
C5    C103  S    
N19   Ni5   S    
C6    C106  A    
C27   H17   S    
C72   C76   S    
C63   C67   S    
H25   O4    S    
C7    C39   S    
C22   C71   S    
C105  H113  S    
N3    Ni8   S    
C98   C100  S    
C52   H42   S    
C53   C71   S    
C27   H66   S    
N12   Ni2   S    
C16   N17   A    
C31   H26   S    
C85   C99   S    
N27   N30   A    
C23   C102  A    
C2    N24   A    
N29   Ni6   S    
C61   C67   S    
C98   O4    S    
Br6   C94   S    
C93   H101  S    
C29   C33   S    
C35   C38   S    
C73   C77   S    
C102  N22   A    
C83   H82   S    
C57   C75   S    
C34   H24   S    
C104  H109  S    
C34   C41   S    
C109  H117  S    
C90   N3    A    
C63   C83   S    
C91   N21   A    
N17   Ni8   S    
C69   N19   A    
C81   H78   S    
C60   H85   S    
C57   H83   S    
C30   H20   S    
C7    C108  A    
C4    C88   A    
N10   Ni2   S    
C14   C20   A    
C53   H50   S    
C26   C74   S    
N2    Ni5   S    
C63   H71   S    
N7    Ni4   S    
H21   O1    S    
C27   C38   S    
C28   H18   S    
C51   C68   S    
C64   H72   S    
H22   O2    S    
C61   C78   S    
C6    C107  A    
C35   H30   S    
C31   C40   S    
C60   C66   S    
C75   H87   S    
C33   H28   S    
