data_mof_unit_25334.cif
_audit_creation_date              2012-12-10T17:21:08-0500
_audit_creation_method            fapswitch 2.2
_symmetry_space_group_name_H-M    P1
_symmetry_Int_Tables_number       1
_space_group_crystal_system       triclinic
_cell_length_a                    10.111395
_cell_length_b                    10.667771
_cell_length_c                    10.756129
_cell_angle_alpha                 90.142402
_cell_angle_beta                  95.463538
_cell_angle_gamma                 81.482384
_cell_volume                      1142.1320193

loop_
_atom_site_label
_atom_site_type_symbol
_atom_type_description
_atom_site_fract_x
_atom_site_fract_y
_atom_site_fract_z
_atom_type_partial_charge
C1    C     C_R   0.443699 0.503882 0.266982 0.946795
C2    C     C_3   0.500578 0.878670 0.501198 -0.092100
C3    C     C_3   0.590302 0.916479 0.617789 0.369324
C4    C     C_3   0.354513 0.946795 0.516399 -0.644809
C5    C     C_2   0.411565 0.490958 0.134517 -0.381003
C6    C     C_2   0.510964 0.445516 0.066353 -0.149681
C7    C     C_2   0.587878 0.464723 0.865242 -0.388077
C8    C     C_2   0.487990 0.448434 0.933144 -0.163700
C9    C     C_2   0.073216 0.488609 0.490699 -0.102029
C10   C     C_2   0.927616 0.509139 0.511049 -0.149205
C11   C     C_R   0.499235 0.258075 0.501080 0.884943
C12   C     C_R   0.556174 0.486923 0.732948 0.912798
C13   C     C_R   0.500459 0.742288 0.500163 0.924491
C14   C     C_3   0.545391 0.069489 0.375518 -0.573510
C15   C     C_3   0.539704 0.925544 0.372601 0.353351
C16   C     C_3   0.599534 0.058799 0.608287 -0.449150
C17   C     C_3   0.350647 0.090161 0.508843 0.357521
C18   C     C_3   0.497319 0.122659 0.501311 -0.075543
H1    H     H_    0.646512 0.092287 0.361691 0.207927
H2    H     H_    0.319221 0.918592 0.605579 0.218273
H3    H     H_    0.585246 0.104252 0.699612 0.110697
H4    H     H_    0.536129 0.902455 0.701247 0.055534
H5    H     H_    0.385451 0.449141 0.891501 0.189039
H6    H     H_    0.613421 0.416843 0.107818 0.186749
H7    H     H_    0.690088 0.464322 0.907323 0.149493
H8    H     H_    0.309455 0.519976 0.092588 0.148587
H9    H     H_    0.891572 0.577335 0.579371 0.159869
H10   H     H_    0.109811 0.418930 0.423547 0.172313
H11   H     H_    0.879986 0.383828 0.384453 0.162559
H12   H     H_    0.478583 0.116968 0.295573 0.141070
H13   H     H_    0.119376 0.617671 0.613975 0.157354
H14   H     H_    0.451368 0.915932 0.304870 0.106528
H15   H     H_    0.703057 0.072103 0.590055 0.215259
H16   H     H_    0.296115 0.119120 0.416011 0.116657
H17   H     H_    0.282038 0.917915 0.441028 0.192367
N1    N     N_2   0.157300 0.551950 0.551120 -0.201225
N2    N     N_2   0.842730 0.448000 0.448950 -0.191772
O1    O     O_R   0.568940 0.489540 0.307530 -0.604249
O2    O     O_R   0.348880 0.522880 0.340350 -0.620100
O3    O     O_R   0.610030 0.298130 0.483570 -0.624282
O4    O     O_R   0.389960 0.331470 0.516390 -0.588152
O5    O     O_R   0.651120 0.477120 0.659650 -0.617818
O6    O     O_R   0.431060 0.510460 0.692470 -0.611357
O7    O     O_R   0.610040 0.668530 0.483610 -0.562419
O8    O     O_R   0.389970 0.701870 0.516430 -0.637416
Zn1   Zn    Zn3+2 0.646940 0.477740 0.478080 0.947670
Zn2   Zn    Zn3+2 0.353060 0.522260 0.521920 0.934167
O9    O     O_3   0.647096 0.849590 0.318030 -0.636231
C19   C     C_3   0.778244 0.857611 0.373382 0.214321
H18   H     H_    0.817741 0.767139 0.423613 0.197100
H19   H     H_    0.785030 0.935391 0.440568 0.160611
C20   C     C_3   0.868892 0.873811 0.270546 -0.408326
H20   H     H_    0.866624 0.794103 0.203939 0.236438
H21   H     H_    0.830866 0.963906 0.218611 0.225067
C21   C     C_3   0.013710 0.876294 0.324538 -0.976483
H22   H     H_    0.018748 0.956859 0.389628 0.270057
H23   H     H_    0.076948 0.887980 0.247672 0.264389
H24   H     H_    0.054518 0.786180 0.375303 0.277615
O10   O     O_3   0.721272 0.844777 0.628414 -0.644869
C22   C     C_3   0.759200 0.791393 0.749434 0.118298
H25   H     H_    0.848807 0.718624 0.743736 0.150976
H26   H     H_    0.680286 0.741042 0.783234 0.123580
C23   C     C_3   0.798612 0.890430 0.843168 -0.904707
H27   H     H_    0.709026 0.957939 0.863508 0.239848
H28   H     H_    0.844106 0.842708 0.932032 0.221849
H29   H     H_    0.872993 0.943379 0.805512 0.265321
O11   O     O_3   0.266865 0.157090 0.594482 -0.581972
C24   C     C_3   0.322899 0.153869 0.719988 0.169696
H30   H     H_    0.394193 0.223475 0.733796 0.148757
H31   H     H_    0.372535 0.058162 0.751244 0.109744
C25   C     C_3   0.210912 0.193927 0.803127 -0.848585
H32   H     H_    0.136443 0.126880 0.793161 0.253592
H33   H     H_    0.253345 0.194066 0.902233 0.200185
H34   H     H_    0.159648 0.290875 0.776512 0.259990

loop_
_geom_bond_atom_site_label_1
_geom_bond_atom_site_label_2
_ccdc_geom_bond_type
C10   H9    S    
C9    N1    D    
C2    C4    S    
C21   H22   S    
C23   H28   S    
C11   C18   S    
C24   C25   S    
C16   H3    S    
C16   H15   S    
C25   H34   S    
C9    C10   S    
C14   C18   S    
C7    H7    S    
C20   C21   S    
C19   C20   S    
C6    H6    S    
O8    Zn2   S    
C2    C3    S    
O4    Zn2   S    
C4    H17   S    
O10   C22   S    
C13   O8    A    
C2    C15   S    
C2    C13   S    
C15   H14   S    
C11   O3    A    
C15   O9    S    
C14   H12   S    
C10   N2    D    
C1    C5    S    
C4    C17   S    
C1    O1    A    
C16   C18   S    
O9    C19   S    
O7    Zn1   S    
C11   O4    A    
C12   O6    A    
C21   H23   S    
C17   C18   S    
C5    C6    D    
C22   C23   S    
C7    C12   S    
C23   H29   S    
O1    Zn1   S    
C17   H16   S    
O3    Zn1   S    
C17   O11   S    
C12   O5    A    
O11   C24   S    
C4    H2    S    
C5    H8    S    
C7    C8    D    
C8    H5    S    
C25   H32   S    
C20   H20   S    
N1    Zn2   S    
C22   H26   S    
C19   H18   S    
O5    Zn1   S    
C21   H24   S    
H11   N2    S    
C25   H33   S    
C24   H31   S    
C1    O2    A    
H13   N1    S    
C22   H25   S    
C3    H4    S    
C6    C8    S    
N2    Zn1   S    
C14   C15   S    
O2    Zn2   S    
O6    Zn2   S    
C14   H1    S    
C13   O7    A    
C3    C16   S    
C23   H27   S    
C9    H10   S    
C20   H21   S    
C24   H30   S    
C19   H19   S    
C3    O10   S    
