data_mof_unit_39464.cif
_audit_creation_date              2012-12-10T17:43:32-0500
_audit_creation_method            fapswitch 2.2
_symmetry_space_group_name_H-M    P1
_symmetry_Int_Tables_number       1
_space_group_crystal_system       triclinic
_cell_length_a                    14.92732
_cell_length_b                    10.639631
_cell_length_c                    9.987855
_cell_angle_alpha                 90.799953
_cell_angle_beta                  89.5434
_cell_angle_gamma                 92.89295
_cell_volume                      1584.06496094

loop_
_atom_site_label
_atom_site_type_symbol
_atom_type_description
_atom_site_fract_x
_atom_site_fract_y
_atom_site_fract_z
_atom_type_partial_charge
Br1   Br    Br    0.324160 0.279266 0.741730 -0.445775
Br2   Br    Br    0.876693 0.110561 0.458793 -0.470892
Br3   Br    Br    0.240486 0.248742 0.392390 -0.505238
Br4   Br    Br    0.262212 0.748072 0.622627 -0.404916
C1    C     C_R   0.504295 0.261344 0.499438 0.923098
C2    C     C_R   0.181291 0.388878 0.472964 0.219654
C3    C     C_R   0.231099 0.500614 0.503004 -0.163583
C4    C     C_R   0.327152 0.500431 0.500562 1.020576
C5    C     C_R   0.189997 0.611318 0.540520 0.180993
C6    C     C_R   0.645140 0.142090 0.644018 -0.164656
C7    C     C_R   0.710024 0.081567 0.714949 -0.068517
C8    C     C_R   0.709714 0.950922 0.714373 -0.103343
C9    C     C_R   0.643993 0.880436 0.643915 -0.170857
C10   C     C_R   0.576031 0.940190 0.574027 0.027774
C11   C     C_R   0.577107 0.071995 0.573377 0.090835
C12   C     C_R   0.909153 0.614071 0.523423 0.055674
C13   C     C_R   0.511071 0.129435 0.498648 -0.138109
C14   C     C_R   0.447353 0.060747 0.423946 -0.275881
C15   C     C_R   0.444587 0.931495 0.425032 0.485574
C16   C     C_R   0.502855 0.739300 0.500683 0.950125
C17   C     C_R   0.508031 0.872375 0.501393 -0.146472
C18   C     C_R   0.414134 0.302694 0.140242 -0.078283
C19   C     C_R   0.397789 0.186612 0.078467 -0.193771
C20   C     C_R   0.408175 0.176042 0.941434 -0.190495
C21   C     C_R   0.420523 0.285526 0.866515 0.328468
C22   C     C_R   0.458924 0.398419 0.928062 0.082240
C23   C     C_R   0.943042 0.270310 0.478224 0.233335
C24   C     C_R   0.458082 0.401676 0.071893 0.023275
C25   C     C_R   0.541309 0.595120 0.072654 0.527672
C26   C     C_R   0.539967 0.595246 0.929078 -0.214304
C27   C     C_R   0.672470 0.501867 0.499545 0.819075
C28   C     C_R   0.816481 0.614124 0.520650 -0.208947
C29   C     C_R   0.767358 0.501787 0.498907 -0.025992
C30   C     C_R   0.807916 0.388369 0.480798 -0.195384
C31   C     C_R   0.900784 0.385051 0.487031 -0.025200
C32   C     C_R   0.952056 0.499483 0.507072 0.053184
C33   C     C_R   0.035825 0.269224 0.489548 0.445444
C34   C     C_R   0.088230 0.384466 0.492159 -0.097328
C35   C     C_R   0.045740 0.499837 0.509160 -0.105342
C36   C     C_R   0.096667 0.615599 0.527330 -0.054020
C37   C     C_R   0.051869 0.730390 0.533975 0.483729
C38   C     C_R   0.958927 0.727515 0.538021 -0.193986
H1    H     H_    0.782466 0.701249 0.533375 0.133523
H2    H     H_    0.572833 0.672351 0.875179 0.144663
H3    H     H_    0.925482 0.815578 0.545139 0.209795
H4    H     H_    0.397931 0.108201 0.367866 0.177107
H5    H     H_    0.339887 0.917755 0.308468 0.346975
H6    H     H_    0.612213 0.753177 0.079537 0.314798
H7    H     H_    0.118625 0.166363 0.578219 0.383233
H8    H     H_    0.141914 0.840692 0.453927 0.370206
H9    H     H_    0.650121 0.243655 0.643595 0.146666
H10   H     H_    0.761743 0.136306 0.768326 0.156818
H11   H     H_    0.761155 0.903981 0.767386 0.146189
H12   H     H_    0.648165 0.779432 0.643743 0.135016
H13   H     H_    0.390432 0.315058 0.239906 0.228902
H14   H     H_    0.369952 0.107444 0.134529 0.178345
H15   H     H_    0.385325 0.088115 0.893774 0.203122
H16   H     H_    0.765921 0.303746 0.464439 0.169288
N1    N     N_R   0.499150 0.498800 0.142780 -0.127942
N2    N     N_R   0.499120 0.498720 0.857170 -0.120831
O1    O     O_R   0.500000 0.316780 0.614690 -0.612603
O2    O     O_3   0.585475 0.691181 0.143468 -0.722355
O3    O     O_3   0.072069 0.154292 0.508265 -0.631524
O4    O     O_3   0.095417 0.847061 0.524813 -0.653091
O5    O     O_R   0.499990 0.316750 0.385360 -0.651498
O6    O     O_R   0.367850 0.499980 0.614680 -0.547377
O7    O     O_R   0.367840 0.499960 0.385350 -0.617026
O8    O     O_R   0.500010 0.683250 0.614640 -0.630105
O9    O     O_R   0.500000 0.683220 0.385310 -0.519193
O10   O     O_R   0.632160 0.500040 0.614650 -0.643601
O11   O     O_R   0.632150 0.500020 0.385320 -0.581929
O12   O     O_3   0.379524 0.860782 0.355204 -0.724000
Zn1   Zn    Zn3+2 0.500010 0.500020 0.653130 0.995183
Zn2   Zn    Zn3+2 0.499990 0.499980 0.346870 1.033810

loop_
_geom_bond_atom_site_label_1
_geom_bond_atom_site_label_2
_ccdc_geom_bond_type
C4    O6    A    
H7    O3    S    
H8    O4    S    
C37   C38   A    
C31   C32   A    
Br3   C2    S    
C19   H14   S    
C33   C34   A    
C10   C17   A    
C15   C17   A    
C14   C15   A    
C6    C11   A    
C34   C35   A    
C1    C13   S    
N2    Zn1   S    
C11   C13   A    
C30   C31   A    
C7    H10   S    
C27   O10   A    
C25   N1    A    
C20   H15   S    
C26   N2    A    
C19   C20   A    
C27   C29   S    
Br2   C23   S    
C8    H11   S    
C27   O11   A    
C18   C24   A    
C9    C10   A    
Br1   C21   S    
C26   H2    S    
C15   O12   S    
C6    H9    S    
C14   H4    S    
C33   O3    S    
C29   C30   A    
C3    C4    S    
C20   C21   A    
C1    O5    A    
C35   C36   A    
C23   C31   A    
O8    Zn1   S    
O6    Zn1   S    
C5    C36   A    
O5    Zn2   S    
C38   H3    S    
C25   C26   A    
H6    O2    S    
O10   Zn1   S    
C2    C34   A    
C13   C14   A    
C1    O1    A    
O9    Zn2   S    
O7    Zn2   S    
C8    C9    A    
N1    Zn2   S    
C2    C3    A    
C36   C37   A    
C16   O9    A    
C12   C38   A    
C9    H12   S    
C24   N1    A    
C3    C5    A    
C25   O2    S    
C10   C11   A    
C16   O8    A    
C32   C35   A    
O11   Zn2   S    
C7    C8    A    
C18   H13   S    
C12   C28   A    
C22   C24   A    
O1    Zn1   S    
C28   C29   A    
C21   C22   A    
C12   C32   A    
C23   C33   A    
C28   H1    S    
H5    O12   S    
C6    C7    A    
C16   C17   S    
C4    O7    A    
C30   H16   S    
C18   C19   A    
C37   O4    S    
Br4   C5    S    
C22   N2    A    
