data_mof_unit_54591.cif
_audit_creation_date              2012-12-10T19:47:23-0500
_audit_creation_method            fapswitch 2.2
_symmetry_space_group_name_H-M    P1
_symmetry_Int_Tables_number       1
_space_group_crystal_system       triclinic
_cell_length_a                    10.901941
_cell_length_b                    10.936605
_cell_length_c                    12.731024
_cell_angle_alpha                 92.087707
_cell_angle_beta                  92.461524
_cell_angle_gamma                 88.604221
_cell_volume                      1515.12059364

loop_
_atom_site_label
_atom_site_type_symbol
_atom_type_description
_atom_site_fract_x
_atom_site_fract_y
_atom_site_fract_z
_atom_type_partial_charge
C1    C     C_R   0.262082 0.504401 0.501088 0.812468
C2    C     C_R   0.738394 0.500053 0.498774 0.838576
C3    C     C_R   0.501825 0.870916 0.495139 -0.280545
C4    C     C_R   0.489593 0.127401 0.500563 -0.262345
C5    C     C_R   0.420410 0.932157 0.423847 -0.162230
C6    C     C_R   0.556350 0.064113 0.580093 -0.150241
C7    C     C_R   0.205501 0.598873 0.867707 -0.165059
C8    C     C_R   0.786321 0.554434 0.143639 -0.164946
C9    C     C_R   0.147286 0.541828 0.779663 -0.104492
C10   C     C_R   0.828447 0.564234 0.248277 -0.096579
C11   C     C_R   0.127322 0.605318 0.686443 0.109915
C12   C     C_R   0.877231 0.461202 0.299178 0.091395
C13   C     C_R   0.167632 0.725902 0.681922 -0.116323
C14   C     C_R   0.883077 0.347840 0.244455 -0.113539
C15   C     C_R   0.226919 0.782287 0.769745 -0.096703
C16   C     C_R   0.839757 0.338005 0.139814 -0.078617
C17   C     C_R   0.245464 0.718947 0.862733 -0.094728
C18   C     C_R   0.792095 0.441544 0.089443 -0.102468
C19   C     C_R   0.938065 0.539641 0.589938 -0.021259
C20   C     C_R   0.063475 0.475172 0.409626 -0.158352
C21   C     C_R   0.872363 0.503994 0.496955 -0.052527
C22   C     C_R   0.128747 0.508399 0.502599 -0.088058
C23   C     C_R   0.494443 0.261857 0.500849 0.874657
C24   C     C_R   0.500552 0.737744 0.498505 0.885065
C25   C     C_R   0.936470 0.476698 0.404658 -0.012028
C26   C     C_R   0.065358 0.546411 0.592794 -0.006473
C27   C     C_2   0.475381 0.458448 0.031369 -0.301935
C28   C     C_2   0.518197 0.543446 0.968201 -0.315455
C29   C     C_1   0.519118 0.528212 0.852550 0.313138
C30   C     C_1   0.478039 0.472508 0.147301 0.274911
C31   C     C_R   0.739468 0.236819 0.793950 0.492944
C32   C     C_R   0.098611 0.836185 0.347562 0.503766
C33   C     C_R   0.700094 0.192293 0.694019 -0.083623
C34   C     C_R   0.200159 0.881298 0.406082 -0.198586
C35   C     C_R   0.592533 0.124724 0.681925 0.125973
C36   C     C_R   0.318634 0.865287 0.368380 0.107537
C37   C     C_R   0.521146 0.107371 0.769024 -0.083026
C38   C     C_R   0.335401 0.798318 0.273508 -0.068876
C39   C     C_R   0.559150 0.153598 0.868149 -0.202746
C40   C     C_R   0.234657 0.745944 0.218684 -0.225963
C41   C     C_R   0.668710 0.216606 0.880818 -0.207833
C42   C     C_R   0.116266 0.765668 0.255076 -0.173810
C43   C     C_R   0.576041 0.937738 0.569320 0.414228
C44   C     C_R   0.421937 0.060790 0.419486 0.381108
Cu1   Cu    Cu3+1 0.492140 0.492110 0.395880 1.044401
Cu2   Cu    Cu3+1 0.507860 0.507890 0.604120 1.053588
H1    H     H_    0.698233 0.247765 0.958611 0.150967
H2    H     H_    0.038496 0.728770 0.209841 0.170512
H3    H     H_    0.153124 0.775848 0.610452 0.134322
H4    H     H_    0.922941 0.268137 0.282207 0.188290
H5    H     H_    0.258271 0.875090 0.765751 0.134731
H6    H     H_    0.845166 0.250484 0.097776 0.177977
H7    H     H_    0.889960 0.568797 0.659381 0.220106
H8    H     H_    0.111368 0.451665 0.338447 0.195256
H9    H     H_    0.553728 0.627901 0.003467 0.170042
H10   H     H_    0.439070 0.374317 0.996009 0.183579
H11   H     H_    0.754469 0.205996 0.626353 0.172324
H12   H     H_    0.186676 0.936196 0.477411 0.165243
H13   H     H_    0.437673 0.055517 0.760315 0.134812
H14   H     H_    0.425684 0.788453 0.241458 0.142243
H15   H     H_    0.504950 0.138524 0.935573 0.169427
H16   H     H_    0.247872 0.693519 0.146107 0.149377
H17   H     H_    0.291232 0.762638 0.930768 0.131380
H18   H     H_    0.759545 0.435360 0.008460 0.188021
H19   H     H_    0.220477 0.549673 0.939550 0.151020
H20   H     H_    0.750240 0.634569 0.104434 0.152826
H21   H     H_    0.119305 0.448123 0.783877 0.205695
H22   H     H_    0.824436 0.652143 0.289339 0.198787
N1    N     N_1   0.480320 0.480250 0.239400 -0.140275
N2    N     N_1   0.519680 0.519750 0.760600 -0.136780
O1    O     O_R   0.313000 0.493330 0.412070 -0.560571
O2    O     O_R   0.687000 0.506670 0.587930 -0.538277
O3    O     O_R   0.326280 0.506660 0.587930 -0.589254
O4    O     O_R   0.673720 0.493340 0.412070 -0.592816
O5    O     O_R   0.493370 0.312980 0.412070 -0.496716
O6    O     O_R   0.506630 0.687020 0.587930 -0.526416
O7    O     O_R   0.506650 0.326310 0.587930 -0.609893
O8    O     O_R   0.493350 0.673690 0.412070 -0.607568
S1    S     S_3+6 0.878219 0.314891 0.810483 -0.053226
O9    O     O_2   0.949547 0.269032 0.905355 -0.322756
O10   O     O_2   0.953341 0.294429 0.714885 -0.303300
O11   O     O_3   0.845732 0.465111 0.828240 -0.584615
H23   H     H_    0.914792 0.497935 0.872888 0.361995
S2    S     S_3+6 0.949959 0.875427 0.387031 -0.008722
O12   O     O_2   0.908336 0.776504 0.454659 -0.315210
O13   O     O_2   0.950706 0.994846 0.449386 -0.239938
O14   O     O_3   0.853521 0.887692 0.281056 -0.561376
H24   H     H_    0.770926 0.899187 0.309979 0.370197
S3    S     S_3+6 0.692352 0.866107 0.651773 0.038532
O15   O     O_2   0.638422 0.836785 0.754348 -0.305924
O16   O     O_2   0.740086 0.750595 0.600054 -0.277854
O17   O     O_3   0.812430 0.958028 0.675721 -0.491276
H25   H     H_    0.870243 0.911306 0.722100 0.382765
S4    S     S_3+6 0.333479 0.137862 0.317063 0.017840
O18   O     O_2   0.258017 0.239414 0.366461 -0.273682
O19   O     O_2   0.420683 0.191950 0.243951 -0.307701
O20   O     O_3   0.236361 0.050279 0.242758 -0.506019
H26   H     H_    0.278687 0.030492 0.176739 0.357594

loop_
_geom_bond_atom_site_label_1
_geom_bond_atom_site_label_2
_ccdc_geom_bond_type
O14   H24   S    
C8    H20   S    
Cu1   O1    S    
C38   H14   S    
S2    O14   S    
S1    O11   S    
Cu2   O6    S    
O20   H26   S    
C39   C41   A    
Cu1   Cu2   S    
C3    C43   A    
C43   S3    S    
C28   C29   S    
C35   C37   A    
S2    O13   D    
C20   C25   A    
C5    C36   S    
C40   H16   S    
C6    C35   S    
C7    C9    A    
C19   C26   A    
C7    C17   A    
C31   C33   A    
Cu1   O8    S    
C15   H5    S    
S3    O16   D    
Cu2   O2    S    
C2    O4    A    
C19   H7    S    
C40   C42   A    
C1    C22   S    
C27   C30   S    
C3    C24   S    
C2    O2    A    
C28   H9    S    
C39   H15   S    
Cu1   N1    S    
S2    O12   D    
C4    C6    A    
C23   O5    A    
S1    O10   D    
C4    C23   S    
C27   H10   S    
C24   O6    A    
C4    C44   A    
S4    O20   S    
C8    C18   A    
Cu1   O4    S    
C32   C34   A    
C9    H21   S    
C7    H19   S    
C2    C21   S    
C41   H1    S    
C16   C18   A    
C42   H2    S    
C23   O7    A    
S3    O17   S    
S4    O19   D    
C9    C11   A    
C37   H13   S    
C10   C12   A    
C13   H3    S    
C20   H8    S    
C5    C44   A    
C12   C14   A    
C6    C43   A    
C13   C15   A    
C14   C16   A    
C30   N1    T    
C29   N2    T    
C24   O8    A    
C15   C17   A    
C21   C25   A    
C33   H11   S    
C31   C41   A    
C19   C21   A    
C16   H6    S    
C32   S2    S    
C20   C22   A    
C3    C5    A    
Cu2   O7    S    
C31   S1    S    
C10   H22   S    
C11   C26   S    
C12   C25   S    
Cu1   O5    S    
C1    O3    A    
C36   C38   A    
C37   C39   A    
C17   H17   S    
C38   C40   A    
C11   C13   A    
C18   H18   S    
C14   H4    S    
C1    O1    A    
O17   H25   S    
C33   C35   A    
C34   C36   A    
S4    O18   D    
Cu2   N2    S    
C44   S4    S    
S1    O9    D    
C8    C10   A    
O11   H23   S    
C22   C26   A    
C27   C28   D    
C34   H12   S    
C32   C42   A    
S3    O15   D    
Cu2   O3    S    
