data_mof_unit_14914.cif
_audit_creation_date              2012-12-11T16:26:11-0500
_audit_creation_method            fapswitch 2.2
_symmetry_space_group_name_H-M    P1
_symmetry_Int_Tables_number       1
_space_group_crystal_system       triclinic
_cell_length_a                    14.00179
_cell_length_b                    13.96483
_cell_length_c                    31.940855
_cell_angle_alpha                 90.001849
_cell_angle_beta                  89.998564
_cell_angle_gamma                 120.006371
_cell_volume                      5408.39617648

loop_
_atom_site_label
_atom_site_type_symbol
_atom_type_description
_atom_site_fract_x
_atom_site_fract_y
_atom_site_fract_z
_atom_type_partial_charge
C1    C     C_R   0.567223 0.444709 0.810525 0.547307
C2    C     C_R   0.878225 0.433479 0.689592 0.546030
C3    C     C_R   0.555153 0.122163 0.810430 0.547581
C4    C     C_R   0.567227 0.444703 0.689472 0.547393
C5    C     C_R   0.878226 0.433483 0.810408 0.545969
C6    C     C_R   0.555160 0.122169 0.689569 0.547656
C7    C     C_R   0.443848 0.567549 0.310342 0.627328
C8    C     C_R   0.432215 0.875943 0.189329 0.601136
C9    C     C_R   0.120854 0.554699 0.310142 0.573419
C10   C     C_R   0.443851 0.567543 0.189665 0.627546
C11   C     C_R   0.432211 0.875943 0.310669 0.601116
C12   C     C_R   0.120884 0.554704 0.189849 0.573629
C13   C     C_1   0.996112 0.528745 0.019662 0.080857
C14   C     C_1   0.527130 0.031574 0.478337 0.088080
C15   C     C_1   0.499299 0.471748 0.021663 0.088577
C16   C     C_1   0.995913 0.528326 0.480313 0.080866
C17   C     C_1   0.527173 0.031491 0.021651 0.088050
C18   C     C_1   0.499769 0.471850 0.478304 0.088559
C19   C     C_1   0.531759 0.042890 0.515602 0.088799
C20   C     C_1   0.988565 0.524926 0.982160 0.082100
C21   C     C_1   0.507940 0.465541 0.515395 0.090228
C22   C     C_1   0.531788 0.042769 0.984385 0.088709
C23   C     C_1   0.988380 0.524506 0.517814 0.082143
C24   C     C_1   0.507477 0.465401 0.984575 0.090230
C25   C     C_R   0.936845 0.474742 0.851240 -0.028089
C26   C     C_R   0.538148 0.068932 0.647737 -0.028323
C27   C     C_R   0.531371 0.460823 0.852537 -0.028603
C28   C     C_R   0.936807 0.474693 0.648751 -0.028043
C29   C     C_R   0.538111 0.068885 0.852254 -0.028379
C30   C     C_R   0.531421 0.460793 0.647447 -0.028547
C31   C     C_R   0.471858 0.930523 0.351784 0.035446
C32   C     C_R   0.058650 0.535108 0.149759 -0.009617
C33   C     C_R   0.456107 0.532058 0.352259 0.050909
C34   C     C_R   0.471897 0.930559 0.148217 0.035316
C35   C     C_R   0.058536 0.535095 0.350212 -0.009782
C36   C     C_R   0.456005 0.532184 0.147718 0.051111
C37   C     C_R   0.946255 0.572223 0.869746 0.203585
C38   C     C_R   0.628855 0.071519 0.626444 0.202789
C39   C     C_R   0.442698 0.369421 0.873507 0.201846
C40   C     C_R   0.946009 0.572026 0.630193 0.203459
C41   C     C_R   0.628764 0.071310 0.873524 0.202866
C42   C     C_R   0.442950 0.369320 0.626429 0.201722
C43   C     C_R   0.524372 0.891095 0.379225 0.207262
C44   C     C_R   0.045012 0.621133 0.131772 0.203423
C45   C     C_R   0.374218 0.512088 0.382337 0.213554
C46   C     C_R   0.524683 0.891338 0.120813 0.207221
C47   C     C_R   0.045301 0.621283 0.368283 0.203333
C48   C     C_R   0.374448 0.513086 0.117612 0.213810
C49   C     C_R   0.961985 0.588920 0.913475 0.307703
C50   C     C_R   0.628830 0.067160 0.582247 0.308170
C51   C     C_R   0.437393 0.368505 0.917682 0.305823
C52   C     C_R   0.961681 0.588584 0.586459 0.307649
C53   C     C_R   0.628764 0.066904 0.917720 0.308220
C54   C     C_R   0.437809 0.368473 0.582251 0.305818
C55   C     C_R   0.552654 0.934167 0.420266 0.253187
C56   C     C_R   0.024369 0.620015 0.088338 0.308385
C57   C     C_R   0.385120 0.482342 0.423552 0.254993
C58   C     C_R   0.552959 0.934393 0.079769 0.253130
C59   C     C_R   0.024626 0.620014 0.411718 0.308324
C60   C     C_R   0.385166 0.483298 0.076382 0.255137
C61   C     C_R   0.979090 0.514976 0.937443 -0.006228
C62   C     C_R   0.534736 0.049232 0.560301 -0.005801
C63   C     C_R   0.513095 0.462356 0.939959 -0.005119
C64   C     C_R   0.978936 0.514670 0.562533 -0.006196
C65   C     C_R   0.534733 0.049096 0.939685 -0.005874
C66   C     C_R   0.513446 0.462443 0.560015 -0.005096
C67   C     C_R   0.518628 0.006854 0.434607 0.008818
C68   C     C_R   0.007283 0.528996 0.064315 -0.009325
C69   C     C_R   0.482582 0.484516 0.435049 0.006208
C70   C     C_R   0.518684 0.006846 0.065388 0.008786
C71   C     C_R   0.007085 0.528716 0.435657 -0.009329
C72   C     C_R   0.482206 0.484558 0.064914 0.006304
C73   C     C_R   0.986628 0.429387 0.918359 -0.143441
C74   C     C_R   0.439674 0.028850 0.581545 -0.142037
C75   C     C_R   0.588963 0.557831 0.919082 -0.139737
C76   C     C_R   0.986677 0.429252 0.581664 -0.143416
C77   C     C_R   0.439696 0.028859 0.918459 -0.142095
C78   C     C_R   0.589086 0.557953 0.580934 -0.139713
C79   C     C_R   0.469209 0.047667 0.407550 -0.139306
C80   C     C_R   0.003680 0.437449 0.083163 -0.164178
C81   C     C_R   0.564680 0.506400 0.405522 -0.141318
C82   C     C_R   0.469035 0.047488 0.092411 -0.139362
C83   C     C_R   0.003044 0.437054 0.416720 -0.164031
C84   C     C_R   0.564029 0.505658 0.094471 -0.141156
C85   C     C_R   0.966732 0.408865 0.875684 0.137861
C86   C     C_R   0.439735 0.037162 0.624920 0.141668
C87   C     C_R   0.598488 0.558648 0.875751 0.137926
C88   C     C_R   0.966842 0.408862 0.624348 0.137941
C89   C     C_R   0.439737 0.037214 0.875087 0.141580
C90   C     C_R   0.598457 0.558708 0.624271 0.138036
C91   C     C_R   0.447887 0.012091 0.366010 0.122283
C92   C     C_R   0.028010 0.438731 0.125467 0.144763
C93   C     C_R   0.551325 0.528676 0.363979 0.116761
C94   C     C_R   0.447706 0.011945 0.133954 0.122273
C95   C     C_R   0.027398 0.438470 0.374409 0.144625
C96   C     C_R   0.550802 0.527994 0.136021 0.116527
Cr1   Cr    Cr6+3 0.504240 0.249200 0.750000 1.135583
Cr2   Cr    Cr6+3 0.744960 0.495760 0.750000 1.137401
Cr3   Cr    Cr6+3 0.750800 0.255040 0.750000 1.135202
Cr4   Cr    Cr6+3 0.249200 0.504240 0.250000 1.185701
Cr5   Cr    Cr6+3 0.495760 0.744960 0.250000 1.178560
Cr6   Cr    Cr6+3 0.255040 0.750800 0.250000 1.142467
H1    H     H_    0.985684 0.365609 0.064407 0.169535
H2    H     H_    0.445626 0.106035 0.418930 0.167872
H3    H     H_    0.638564 0.505904 0.085140 0.169308
H4    H     H_    0.984677 0.365006 0.435407 0.169577
H5    H     H_    0.445273 0.105694 0.081001 0.167858
H6    H     H_    0.639534 0.507318 0.414872 0.169398
H7    H     H_    0.365182 0.007915 0.564185 0.176199
H8    H     H_    0.005074 0.375888 0.937093 0.174949
H9    H     H_    0.642455 0.632262 0.563327 0.178643
H10   H     H_    0.365245 0.008016 0.935833 0.176225
H11   H     H_    0.005241 0.375786 0.562963 0.174936
H12   H     H_    0.642394 0.632060 0.936720 0.178691
O1    O     O_R   0.480350 0.140770 0.796330 -0.432592
O2    O     O_R   0.660420 0.519650 0.703670 -0.433660
O3    O     O_R   0.859230 0.339580 0.796330 -0.432668
O4    O     O_R   0.480350 0.140770 0.703670 -0.432548
O5    O     O_R   0.660420 0.519650 0.796330 -0.433680
O6    O     O_R   0.859230 0.339580 0.703670 -0.432652
O7    O     O_R   0.140770 0.480350 0.296330 -0.421970
O8    O     O_R   0.519650 0.660420 0.203670 -0.440206
O9    O     O_R   0.339580 0.859230 0.296330 -0.448856
O10   O     O_R   0.140770 0.480350 0.203670 -0.422196
O11   O     O_R   0.519650 0.660420 0.296330 -0.440111
O12   O     O_R   0.339580 0.859230 0.203670 -0.448884
O13   O     O_R   0.514930 0.348530 0.793250 -0.489899
O14   O     O_R   0.833600 0.485070 0.706750 -0.489632
O15   O     O_R   0.651470 0.166400 0.793250 -0.489473
O16   O     O_R   0.514930 0.348530 0.706750 -0.489959
O17   O     O_R   0.833600 0.485070 0.793250 -0.489578
O18   O     O_R   0.651470 0.166400 0.706750 -0.489522
O19   O     O_R   0.348530 0.514930 0.293250 -0.453523
O20   O     O_R   0.485070 0.833600 0.206750 -0.449677
O21   O     O_R   0.166400 0.651470 0.293250 -0.496106
O22   O     O_R   0.348530 0.514930 0.206750 -0.453701
O23   O     O_R   0.485070 0.833600 0.293250 -0.449828
O24   O     O_R   0.166400 0.651470 0.206750 -0.495958
O25   O     O_3   0.666667 0.333333 0.750000 -0.288218
O26   O     O_3   0.333333 0.666667 0.250000 -0.304605
O27   O     O_3   0.939678 0.651486 0.846171 -0.635642
H13   H     H_    0.976213 0.657194 0.818959 0.349585
O28   O     O_3   0.717979 0.078912 0.647750 -0.632970
H14   H     H_    0.690290 0.036692 0.674192 0.353315
O29   O     O_3   0.361315 0.280436 0.851900 -0.636943
H15   H     H_    0.346623 0.308916 0.825699 0.352618
O30   O     O_3   0.939273 0.651270 0.653723 -0.635725
H16   H     H_    0.975914 0.657187 0.680927 0.349673
O31   O     O_3   0.717812 0.078584 0.852197 -0.632899
H17   H     H_    0.690068 0.036448 0.825739 0.353250
O32   O     O_3   0.361612 0.280196 0.647990 -0.637010
H18   H     H_    0.346685 0.308561 0.674172 0.352724
O33   O     O_3   0.540220 0.805620 0.366297 -0.663358
H19   H     H_    0.536332 0.760643 0.390903 0.328355
O34   O     O_3   0.052537 0.707144 0.155525 -0.653072
H20   H     H_    0.019456 0.676866 0.183268 0.352002
O35   O     O_3   0.289269 0.530433 0.371408 -0.675906
H21   H     H_    0.266881 0.556403 0.396414 0.323957
O36   O     O_3   0.540824 0.806075 0.133777 -0.663061
H22   H     H_    0.537140 0.761143 0.109186 0.328473
O37   O     O_3   0.053263 0.707600 0.344612 -0.653081
H23   H     H_    0.020012 0.677524 0.316871 0.352124
O38   O     O_3   0.290049 0.532282 0.128547 -0.676519
H24   H     H_    0.268038 0.558645 0.103552 0.323946
O39   O     O_3   0.020183 0.705897 0.068476 -0.638068
H25   H     H_    0.037652 0.766295 0.088629 0.390867
O40   O     O_3   0.610212 0.904253 0.447395 -0.657961
H26   H     H_    0.658450 0.885600 0.430792 0.352336
O41   O     O_3   0.303831 0.455113 0.046527 -0.667462
H27   H     H_    0.231678 0.425380 0.060805 0.350077
O42   O     O_3   0.020850 0.706021 0.431663 -0.638061
H28   H     H_    0.038637 0.766609 0.411567 0.390810
O43   O     O_3   0.610750 0.904679 0.052676 -0.657809
H29   H     H_    0.659111 0.886252 0.069307 0.352360
O44   O     O_3   0.303551 0.453356 0.453370 -0.667309
H30   H     H_    0.231394 0.423152 0.439056 0.350316
O45   O     O_3   0.718237 0.078472 0.559642 -0.639411
H31   H     H_    0.780486 0.095947 0.578760 0.396391
O46   O     O_3   0.961732 0.676485 0.933651 -0.635823
H32   H     H_    0.943514 0.718840 0.913518 0.397825
O47   O     O_3   0.359214 0.278419 0.559951 -0.648797
H33   H     H_    0.315256 0.216101 0.579226 0.393774
O48   O     O_3   0.718132 0.078062 0.940307 -0.639211
H34   H     H_    0.780338 0.095446 0.921177 0.396494
O49   O     O_3   0.961226 0.675987 0.566235 -0.635896
H35   H     H_    0.942906 0.718322 0.586340 0.397708
O50   O     O_3   0.358580 0.278502 0.939940 -0.648779
H36   H     H_    0.314576 0.216260 0.920639 0.393910
Br1   Br    Br    0.019060 0.305137 0.146372 -0.361097
Br2   Br    Br    0.385334 0.077658 0.330532 -0.346667
Br3   Br    Br    0.664643 0.553766 0.175451 -0.372445
Br4   Br    Br    0.017699 0.304685 0.353337 -0.361046
Br5   Br    Br    0.384847 0.077319 0.169378 -0.346441
Br6   Br    Br    0.665597 0.555485 0.324601 -0.372291
Br7   Br    Br    0.300727 0.001164 0.650075 -0.346293
Br8   Br    Br    0.983673 0.289586 0.854024 -0.347037
Br9   Br    Br    0.703952 0.698107 0.648786 -0.345875
Br10  Br    Br    0.300755 0.001429 0.849964 -0.346173
Br11  Br    Br    0.984085 0.289832 0.646081 -0.347170
Br12  Br    Br    0.704321 0.698008 0.851307 -0.345702

loop_
_geom_bond_atom_site_label_1
_geom_bond_atom_site_label_2
_ccdc_geom_bond_type
C68   C80   A    
C39   C51   A    
O42   H28   S    
O35   H21   S    
C82   C94   A    
C21   C66   S    
C94   Br5   S    
C33   C45   A    
O41   H27   S    
C93   Br6   S    
C55   O40   S    
C30   C90   A    
C35   C47   A    
C74   H7    S    
C29   C89   A    
O37   H23   S    
C73   H8    S    
C90   Br9   S    
C32   C92   A    
Cr5   O20   S    
Cr4   O19   S    
C89   Br10  S    
C77   C89   A    
C54   C66   A    
O39   H25   S    
C31   C43   A    
Cr3   O18   S    
C60   O41   S    
C88   Br11  S    
C40   C52   A    
C10   O22   A    
Cr1   O16   S    
C7    O19   A    
C53   O48   S    
Cr6   O24   S    
C75   C87   A    
C41   O31   S    
C60   C72   A    
C19   C62   S    
O28   H14   S    
C18   C21   T    
C9    O7    A    
Cr1   O4    S    
C37   C49   A    
Cr4   O7    S    
C84   C96   A    
C20   C61   S    
C3    C29   S    
C44   C56   A    
Cr6   O21   S    
Cr4   O26   S    
O30   H16   S    
C25   C37   A    
Cr3   O6    S    
C57   O44   S    
O38   H24   S    
C27   C39   A    
Cr2   O17   S    
C28   C88   A    
Cr5   O11   S    
O32   H18   S    
C78   H9    S    
C34   C46   A    
Cr1   O1    S    
C53   C65   A    
C76   C88   A    
C79   C91   A    
C40   O30   S    
Cr1   O13   S    
C18   C69   S    
Cr2   O14   S    
C81   H6    S    
C11   C31   S    
C17   C70   S    
O43   H29   S    
C46   C58   A    
Cr5   O8    S    
C7    C33   S    
Cr3   O25   S    
C16   C71   S    
C87   Br12  S    
C59   O42   S    
C82   H5    S    
Cr5   O26   S    
C48   C60   A    
C71   C83   A    
C64   C76   A    
C66   C78   A    
C91   Br2   S    
C11   O9    A    
C49   C61   A    
Cr3   O15   S    
C80   H1    S    
C8    O20   A    
C69   C81   A    
C34   C94   A    
Cr2   O5    S    
C50   O45   S    
C51   C63   A    
C6    O18   A    
C52   C64   A    
O40   H26   S    
C48   O38   S    
Cr5   O23   S    
C58   C70   A    
C4    O16   A    
C61   C73   A    
O47   H33   S    
C7    O11   A    
C5    O3    A    
Cr4   O10   S    
C80   C92   A    
C77   H10   S    
O48   H34   S    
C3    O1    A    
C22   C65   S    
C1    O5    A    
C15   C72   S    
C86   Br7   S    
Cr3   O3    S    
C65   C77   A    
C81   C93   A    
C36   C96   A    
Cr2   O2    S    
O36   H22   S    
C12   O10   A    
C26   C86   A    
C62   C74   A    
C45   C57   A    
C39   O29   S    
C25   C85   A    
C84   H3    S    
C32   C44   A    
C54   O47   S    
C45   O35   S    
C75   H12   S    
C8    C34   S    
C83   C95   A    
C74   C86   A    
C27   C87   A    
C42   O32   S    
C41   C53   A    
C72   C84   A    
C37   O27   S    
C95   Br4   S    
C38   O28   S    
C5    C25   S    
C9    O21   A    
C43   C55   A    
C23   C64   S    
Cr6   O26   S    
C24   C63   S    
C31   C91   A    
C50   C62   A    
C12   O24   A    
C79   H2    S    
C58   O43   S    
C52   O49   S    
Cr6   O9    S    
O29   H15   S    
C56   O39   S    
C92   Br1   S    
C96   Br3   S    
C1    C27   S    
C73   C85   A    
C8    O12   A    
C15   C24   T    
C2    O6    A    
C13   C20   T    
C29   C41   A    
C3    O15   A    
C44   O34   S    
C14   C19   T    
C4    O2    A    
C26   C38   A    
C1    O13   A    
Cr6   O12   S    
C33   C93   A    
C55   C67   A    
C85   Br8   S    
C38   C50   A    
C35   C95   A    
C16   C23   T    
C17   C22   T    
C83   H4    S    
Cr2   O25   S    
C76   H11   S    
C11   O23   A    
O50   H36   S    
O44   H30   S    
C56   C68   A    
O27   H13   S    
C42   C54   A    
O49   H35   S    
C6    C26   S    
C63   C75   A    
C14   C67   S    
C78   C90   A    
C46   O36   S    
C10   C36   S    
C36   C48   A    
C70   C82   A    
C4    C30   S    
C51   O50   S    
C47   C59   A    
O46   H32   S    
C47   O37   S    
C10   O8    A    
C5    O17   A    
O45   H31   S    
C59   C71   A    
O34   H20   S    
C9    C35   S    
C28   C40   A    
C30   C42   A    
C2    C28   S    
C57   C69   A    
O33   H19   S    
O31   H17   S    
C43   O33   S    
Cr1   O25   S    
C67   C79   A    
C12   C32   S    
Cr4   O22   S    
C6    O4    A    
C49   O46   S    
C13   C68   S    
C2    O14   A    
