data_mof_unit_68516.cif
_audit_creation_date              2012-12-11T18:15:28-0500
_audit_creation_method            fapswitch 2.2
_symmetry_space_group_name_H-M    P1
_symmetry_Int_Tables_number       1
_space_group_crystal_system       triclinic
_cell_length_a                    20.026888
_cell_length_b                    20.173398
_cell_length_c                    8.436802
_cell_angle_alpha                 90.000043
_cell_angle_beta                  91.722879
_cell_angle_gamma                 89.922259
_cell_volume                      3407.0115716

loop_
_atom_site_label
_atom_site_type_symbol
_atom_type_description
_atom_site_fract_x
_atom_site_fract_y
_atom_site_fract_z
_atom_type_partial_charge
Ba1   Ba    Ba6+2 0.999980 0.452130 0.155200 1.617374
Ba2   Ba    Ba6+2 0.999980 0.547870 0.655200 1.615140
Ba3   Ba    Ba6+2 0.499980 0.952130 0.155200 1.617581
Ba4   Ba    Ba6+2 0.499980 0.047870 0.655200 1.615237
C1    C     C_3   0.041838 0.106680 0.394792 -0.212118
C2    C     C_3   0.996243 0.874338 0.022507 -0.205295
C3    C     C_3   0.541143 0.606573 0.393982 -0.212303
C4    C     C_3   0.496236 0.374437 0.022280 -0.205235
C5    C     C_R   0.149329 0.346530 0.827524 0.039318
C6    C     C_R   0.150855 0.652323 0.320425 0.033577
C7    C     C_R   0.649343 0.846535 0.827538 0.039736
C8    C     C_R   0.650844 0.152331 0.320422 0.033575
C9    C     C_R   0.110075 0.336558 0.690489 -0.275088
C10   C     C_R   0.113302 0.661381 0.179269 -0.280996
C11   C     C_R   0.610062 0.836536 0.690551 -0.275985
C12   C     C_R   0.613282 0.161400 0.179273 -0.281031
C13   C     C_R   0.122636 0.284026 0.589500 0.004232
C14   C     C_R   0.125579 0.714455 0.078066 0.006879
C15   C     C_R   0.622661 0.784029 0.589517 0.003848
C16   C     C_R   0.625566 0.214470 0.078052 0.006774
C17   C     C_R   0.170091 0.235961 0.631881 -0.147938
C18   C     C_R   0.172522 0.762642 0.122560 -0.139216
C19   C     C_R   0.670210 0.736038 0.631774 -0.148234
C20   C     C_R   0.672530 0.262640 0.122525 -0.139303
C21   C     C_R   0.207773 0.241813 0.774180 0.002173
C22   C     C_R   0.209537 0.756897 0.266246 0.002886
C23   C     C_R   0.707846 0.741862 0.774134 0.002197
C24   C     C_R   0.709552 0.256887 0.266205 0.003002
C25   C     C_R   0.199493 0.298593 0.871489 -0.037959
C26   C     C_R   0.200232 0.700786 0.365354 -0.038637
C27   C     C_R   0.699527 0.798616 0.871496 -0.037685
C28   C     C_R   0.700230 0.200787 0.365335 -0.038507
C29   C     C_R   0.797925 0.699572 0.950870 -0.027913
C30   C     C_R   0.797754 0.300323 0.447212 -0.031088
C31   C     C_R   0.297901 0.199556 0.950836 -0.027945
C32   C     C_R   0.297741 0.800336 0.447246 -0.031405
C33   C     C_R   0.789360 0.756109 0.049000 0.026829
C34   C     C_R   0.787735 0.244771 0.547441 0.000698
C35   C     C_R   0.289349 0.256101 0.048942 0.026667
C36   C     C_R   0.287742 0.744768 0.547445 0.000663
C37   C     C_R   0.848921 0.652238 0.992158 0.031157
C38   C     C_R   0.849055 0.347260 0.489011 0.050372
C39   C     C_R   0.348910 0.152234 0.992115 0.031234
C40   C     C_R   0.349052 0.847264 0.489020 0.050442
C41   C     C_R   0.888132 0.662187 0.130644 -0.269429
C42   C     C_R   0.887921 0.337209 0.627557 -0.277883
C43   C     C_R   0.388117 0.162176 0.130597 -0.269635
C44   C     C_R   0.387930 0.837208 0.627540 -0.277947
C45   C     C_3   0.019616 0.208465 0.917813 0.379385
C46   C     C_3   0.032026 0.780442 0.438814 0.362427
C47   C     C_3   0.519203 0.708001 0.915234 0.379011
C48   C     C_3   0.531878 0.280582 0.438350 0.362199
C49   C     C_R   0.875941 0.715156 0.232579 0.010983
C50   C     C_R   0.873996 0.285675 0.731439 0.009682
C51   C     C_R   0.375919 0.215140 0.232524 0.011115
C52   C     C_R   0.374028 0.785655 0.731385 0.009118
C53   C     C_R   0.827588 0.762441 0.190643 -0.136908
C54   C     C_R   0.825128 0.238878 0.690461 -0.135919
C55   C     C_R   0.327585 0.262437 0.190571 -0.136893
C56   C     C_R   0.325169 0.738850 0.690405 -0.135712
C57   C     C_R   0.755818 0.693067 0.814898 -0.053955
C58   C     C_R   0.756745 0.306167 0.308995 -0.051195
C59   C     C_R   0.255757 0.193024 0.814929 -0.054004
C60   C     C_R   0.256720 0.806186 0.309048 -0.051529
C61   C     C_3   0.051214 0.141166 0.947470 -0.370364
C62   C     C_3   0.072558 0.842588 0.471568 -0.387122
C63   C     C_3   0.551097 0.640957 0.946858 -0.370891
C64   C     C_3   0.572277 0.342835 0.470928 -0.387892
C65   C     C_3   0.813526 0.458047 0.821965 0.313660
C66   C     C_3   0.810503 0.540884 0.318303 0.313769
C67   C     C_3   0.313483 0.958068 0.821859 0.313676
C68   C     C_3   0.310480 0.040859 0.318131 0.313890
C69   C     C_3   0.751545 0.415312 0.797972 -0.421393
C70   C     C_3   0.747756 0.583609 0.309266 -0.403129
C71   C     C_3   0.251478 0.915358 0.797944 -0.420834
C72   C     C_3   0.247772 0.083640 0.309728 -0.403239
C73   C     C_3   0.190521 0.540146 0.995916 0.305437
C74   C     C_3   0.187544 0.459626 0.504637 0.320782
C75   C     C_3   0.690525 0.040134 0.996020 0.305309
C76   C     C_3   0.687560 0.959611 0.504483 0.320784
C77   C     C_3   0.253884 0.581638 0.010507 -0.392470
C78   C     C_3   0.248513 0.414618 0.512703 -0.404086
C79   C     C_3   0.753916 0.081570 0.010989 -0.392282
C80   C     C_3   0.748541 0.914620 0.512514 -0.404254
C81   C     C_3   0.019942 0.180414 0.384621 0.526574
C82   C     C_3   0.988747 0.805161 0.946646 0.531885
C83   C     C_3   0.519691 0.680457 0.383997 0.527189
C84   C     C_3   0.488730 0.305250 0.946427 0.531795
C85   C     C_R   0.241946 0.305339 0.006851 -0.042548
C86   C     C_R   0.240450 0.695577 0.504972 -0.054454
C87   C     C_R   0.741957 0.805349 0.006904 -0.042475
C88   C     C_R   0.740440 0.195584 0.504968 -0.054425
H1    H     H_    0.724005 0.430790 0.687960 0.122054
H2    H     H_    0.711471 0.562808 0.220433 0.116351
H3    H     H_    0.223812 0.930974 0.688201 0.122130
H4    H     H_    0.211168 0.062672 0.221916 0.116385
H5    H     H_    0.765329 0.362465 0.786871 0.076220
H6    H     H_    0.760201 0.634941 0.274274 0.073590
H7    H     H_    0.265249 0.862518 0.786395 0.076108
H8    H     H_    0.260130 0.134864 0.273748 0.073619
H9    H     H_    0.718802 0.420305 0.901274 0.123239
H10   H     H_    0.724320 0.585132 0.426910 0.116407
H11   H     H_    0.218853 0.920239 0.901498 0.123034
H12   H     H_    0.224776 0.085472 0.427819 0.115885
H13   H     H_    0.168299 0.536182 0.114064 0.019025
H14   H     H_    0.169440 0.466944 0.625802 0.017216
H15   H     H_    0.668208 0.036144 0.114058 0.019059
H16   H     H_    0.669426 0.966870 0.625637 0.017059
H17   H     H_    0.155044 0.565119 0.911470 0.064967
H18   H     H_    0.148294 0.435289 0.429356 0.074830
H19   H     H_    0.655128 0.065161 0.911479 0.064893
H20   H     H_    0.648336 0.935294 0.429099 0.074998
H21   H     H_    0.289275 0.559040 0.098908 0.119915
H22   H     H_    0.289757 0.439087 0.581242 0.114608
H23   H     H_    0.789210 0.058923 0.099545 0.120177
H24   H     H_    0.789730 0.939037 0.581353 0.114558
H25   H     H_    0.242038 0.632694 0.049093 0.070096
H26   H     H_    0.236769 0.367209 0.571349 0.069807
H27   H     H_    0.742077 0.132628 0.049569 0.070081
H28   H     H_    0.736771 0.867144 0.570840 0.069987
H29   H     H_    0.278104 0.584309 0.893961 0.118153
H30   H     H_    0.264678 0.403415 0.390998 0.120046
H31   H     H_    0.778247 0.084247 0.894579 0.118230
H32   H     H_    0.764800 0.903563 0.390808 0.120093
H33   H     H_    0.014972 0.200414 0.507021 -0.075256
H34   H     H_    0.988981 0.769085 0.046694 -0.074580
H35   H     H_    0.514614 0.700367 0.506405 -0.075832
H36   H     H_    0.488914 0.269181 0.046477 -0.074460
H37   H     H_    0.007048 0.074197 0.327359 0.091356
H38   H     H_    0.996235 0.913041 0.929586 0.096883
H39   H     H_    0.505527 0.574167 0.329020 0.091691
H40   H     H_    0.496357 0.413152 0.929346 0.096944
H41   H     H_    0.019400 0.102708 0.890152 0.108229
H42   H     H_    0.062912 0.879548 0.377177 0.088839
H43   H     H_    0.518425 0.601860 0.896080 0.109156
H44   H     H_    0.562109 0.379954 0.377169 0.089476
H45   H     H_    0.073651 0.373606 0.653687 0.058894
H46   H     H_    0.076325 0.624833 0.143495 0.064276
H47   H     H_    0.573598 0.873554 0.653801 0.059026
H48   H     H_    0.576296 0.124859 0.143514 0.064307
H49   H     H_    0.179591 0.195723 0.550458 0.068513
H50   H     H_    0.180784 0.804069 0.043755 0.067058
H51   H     H_    0.679819 0.695878 0.550208 0.068590
H52   H     H_    0.680804 0.304061 0.043712 0.067076
H53   H     H_    0.819210 0.803658 0.269970 0.063073
H54   H     H_    0.815798 0.198389 0.771218 0.073027
H55   H     H_    0.319216 0.303660 0.269889 0.063146
H56   H     H_    0.315859 0.698349 0.771141 0.072853
H57   H     H_    0.926048 0.626170 0.164380 0.064524
H58   H     H_    0.926321 0.372684 0.660982 0.061458
H59   H     H_    0.426026 0.126156 0.164348 0.064442
H60   H     H_    0.426322 0.872688 0.660976 0.061365
H61   H     H_    0.238984 0.348859 0.080897 0.108530
H62   H     H_    0.236318 0.653004 0.581582 0.104601
H63   H     H_    0.738976 0.848857 0.080984 0.108486
H64   H     H_    0.736293 0.153021 0.581605 0.104613
H65   H     H_    0.759872 0.650343 0.738545 0.099797
H66   H     H_    0.761274 0.348614 0.232055 0.104680
H67   H     H_    0.259800 0.150287 0.738609 0.099893
H68   H     H_    0.261244 0.848637 0.232115 0.104746
H69   H     H_    0.091166 0.100292 0.339432 0.105968
H70   H     H_    0.045442 0.876482 0.086910 0.068651
H71   H     H_    0.589847 0.599596 0.336109 0.105749
H72   H     H_    0.545379 0.376545 0.086923 0.068581
H73   H     H_    0.049980 0.245795 0.984831 0.087379
H74   H     H_    0.052958 0.741685 0.519085 0.123528
H75   H     H_    0.550048 0.745847 0.979133 0.083993
H76   H     H_    0.552969 0.241851 0.518493 0.123191
H77   H     H_    0.020475 0.219171 0.788570 -0.080063
H78   H     H_    0.038446 0.765818 0.313336 -0.060527
H79   H     H_    0.519042 0.717638 0.785521 -0.080185
H80   H     H_    0.538211 0.265994 0.312816 -0.060666
H81   H     H_    0.102479 0.140032 0.900577 0.065080
H82   H     H_    0.126676 0.830632 0.474998 0.088418
H83   H     H_    0.601364 0.638917 0.895447 0.064318
H84   H     H_    0.626439 0.331103 0.473182 0.088095
H85   H     H_    0.054296 0.130028 0.075720 0.148933
H86   H     H_    0.059391 0.863479 0.587606 0.155814
H87   H     H_    0.556652 0.631689 0.075104 0.149284
H88   H     H_    0.559431 0.363441 0.587475 0.155927
H89   H     H_    0.840542 0.460133 0.709431 0.010776
H90   H     H_    0.831896 0.537856 0.199062 0.007632
H91   H     H_    0.340452 0.960172 0.709263 0.010853
H92   H     H_    0.331627 0.037772 0.198646 0.007724
H93   H     H_    0.845839 0.435169 0.916080 0.078198
H94   H     H_    0.846849 0.564403 0.402910 0.071668
H95   H     H_    0.345826 0.935158 0.915881 0.077987
H96   H     H_    0.347007 0.064374 0.402308 0.071445
O1    O     O_2   0.130070 0.404060 0.104920 -0.451366
O2    O     O_2   0.130070 0.595940 0.604920 -0.471560
O3    O     O_2   0.630070 0.904060 0.104920 -0.451300
O4    O     O_2   0.630070 0.095940 0.604920 -0.471449
O5    O     O_3   0.792832 0.477534 0.369858 -0.641194
O6    O     O_3   0.793636 0.521719 0.866891 -0.641295
O7    O     O_3   0.292837 0.977538 0.369953 -0.641264
O8    O     O_3   0.293625 0.021733 0.866912 -0.641201
O9    O     O_3   0.953653 0.207069 0.969975 -0.582627
O10   O     O_3   0.964068 0.791700 0.468964 -0.623295
O11   O     O_3   0.453687 0.707093 0.970170 -0.581705
O12   O     O_3   0.463937 0.291707 0.468865 -0.623145
O13   O     O_3   0.924190 0.533610 0.949240 -0.496261
O14   O     O_3   0.924190 0.466390 0.449240 -0.494613
O15   O     O_3   0.424190 0.033610 0.949240 -0.496292
O16   O     O_3   0.424190 0.966390 0.449240 -0.494581
O17   O     O_3   0.075780 0.466370 0.861070 -0.497172
O18   O     O_3   0.075780 0.533630 0.361070 -0.493308
O19   O     O_3   0.575780 0.966370 0.861070 -0.497155
O20   O     O_3   0.575780 0.033630 0.361070 -0.493371
O21   O     O_3   0.022320 0.344950 0.359800 -0.483607
O22   O     O_3   0.022320 0.655050 0.859800 -0.476936
O23   O     O_3   0.522320 0.844950 0.359800 -0.483794
O24   O     O_3   0.522320 0.155050 0.859800 -0.476898
O25   O     O_2   0.147257 0.313561 0.286748 -0.480992
O26   O     O_2   0.131801 0.709460 0.749380 -0.496063
O27   O     O_2   0.647237 0.813547 0.286834 -0.480621
O28   O     O_2   0.631781 0.209462 0.749372 -0.495837
O29   O     O_3   0.207531 0.477149 0.940634 -0.641561
O30   O     O_3   0.205996 0.520649 0.440335 -0.641855
O31   O     O_3   0.707530 0.977149 0.940650 -0.641571
O32   O     O_3   0.706008 0.020666 0.440343 -0.641914
O33   O     O_3   0.068788 0.213699 0.298046 -0.611062
O34   O     O_3   0.041895 0.794361 0.842411 -0.613247
O35   O     O_3   0.568886 0.713602 0.298194 -0.610498
O36   O     O_3   0.541902 0.294401 0.842284 -0.613234
O37   O     O_2   0.869860 0.403670 0.205810 -0.468080
O38   O     O_2   0.869860 0.596330 0.705810 -0.463222
O39   O     O_2   0.369860 0.903670 0.205810 -0.468121
O40   O     O_2   0.369860 0.096330 0.705810 -0.463106
O41   O     O_3   0.977590 0.344880 0.951200 -0.492643
O42   O     O_3   0.977590 0.655120 0.451200 -0.489183
O43   O     O_3   0.477590 0.844880 0.951200 -0.492083
O44   O     O_3   0.477590 0.155120 0.451200 -0.489086
O45   O     O_2   0.865740 0.293278 0.059639 -0.486533
O46   O     O_2   0.869987 0.710634 0.562416 -0.493513
O47   O     O_2   0.365718 0.793311 0.059524 -0.486693
O48   O     O_2   0.369921 0.210588 0.562325 -0.493463
P1    P     P_3+3 0.136530 0.426510 0.931350 0.965504
P2    P     P_3+3 0.136530 0.573490 0.431350 0.961734
P3    P     P_3+3 0.636530 0.926510 0.931350 0.965736
P4    P     P_3+3 0.636530 0.073490 0.431350 0.961774
P5    P     P_3+3 0.863410 0.426100 0.379280 0.968607
P6    P     P_3+3 0.863410 0.573900 0.879280 0.967535
P7    P     P_3+3 0.363410 0.926100 0.379280 0.968515
P8    P     P_3+3 0.363410 0.073900 0.879280 0.967567
P9    P     P_3+3 0.916608 0.283661 0.927335 0.940563
P10   P     P_3+3 0.919956 0.718544 0.427553 0.919308
P11   P     P_3+3 0.416620 0.783655 0.927297 0.940764
P12   P     P_3+3 0.419908 0.218506 0.427501 0.919589
P13   P     P_3+3 0.081496 0.718076 0.883363 0.934116
P14   P     P_3+3 0.089039 0.289222 0.386435 0.936830
P15   P     P_3+3 0.581474 0.218102 0.883341 0.934289
P16   P     P_3+3 0.589019 0.789188 0.386502 0.937518
N1    N     N_2   0.955936 0.189262 0.301130 -0.383837
H97   H     H_    0.944760 0.238709 0.284097 0.235417
C89   C     C_3   0.898988 0.152522 0.355151 -0.272132
H98   H     H_    0.852339 0.176110 0.308677 0.133974
H99   H     H_    0.898633 0.150767 0.486665 0.084418
H100  H     H_    0.899167 0.102051 0.304793 0.122535
N2    N     N_2   0.925123 0.798067 0.860242 -0.429986
H101  H     H_    0.918462 0.751051 0.815465 0.233613
C90   C     C_3   0.903461 0.850392 0.751905 -0.178613
H102  H     H_    0.864519 0.831424 0.667375 0.137631
H103  H     H_    0.946003 0.870171 0.685624 0.145796
H104  H     H_    0.880582 0.891799 0.817094 0.072030
N3    N     N_2   0.455868 0.689741 0.299968 -0.382916
H105  H     H_    0.444951 0.739255 0.283388 0.235690
C91   C     C_3   0.398613 0.653111 0.352700 -0.270939
H106  H     H_    0.352155 0.677350 0.307151 0.134040
H107  H     H_    0.398266 0.650503 0.484142 0.083916
H108  H     H_    0.398320 0.602967 0.300360 0.122434
N4    N     N_2   0.425126 0.298179 0.859930 -0.429999
H109  H     H_    0.418440 0.251163 0.815185 0.233607
C92   C     C_3   0.403501 0.350511 0.751571 -0.178353
H110  H     H_    0.364579 0.331546 0.666968 0.137705
H111  H     H_    0.446063 0.370292 0.685364 0.145644
H112  H     H_    0.380608 0.391921 0.816728 0.071966
C93   C     C_3   0.049359 0.083132 0.566588 -0.247224
C94   C     C_3   0.074527 0.011560 0.577846 -0.208848
C95   C     C_3   0.093896 0.993280 0.748449 -0.430404
H113  H     H_    0.136306 0.024357 0.792410 0.155349
H114  H     H_    0.050857 0.000194 0.825881 0.124630
H115  H     H_    0.108934 0.940515 0.755356 0.134028
H116  H     H_    0.034177 0.977986 0.535104 0.126057
H117  H     H_    0.118813 0.004562 0.503234 0.132654
H118  H     H_    0.085664 0.116103 0.629502 0.114725
H119  H     H_    0.000071 0.086810 0.622937 0.112588
C96   C     C_3   0.940422 0.888828 0.138337 -0.235910
C97   C     C_3   0.949548 0.956113 0.219169 -0.199413
C98   C     C_3   0.901340 0.963755 0.354846 -0.438444
H120  H     H_    0.850467 0.974613 0.305953 0.146173
H121  H     H_    0.900127 0.918099 0.427980 0.150967
H122  H     H_    0.917379 0.004842 0.434250 0.119008
H123  H     H_    0.001448 0.960905 0.266300 0.115996
H124  H     H_    0.940642 0.996490 0.131385 0.123046
H125  H     H_    0.890500 0.887725 0.078167 0.127246
H126  H     H_    0.941036 0.849369 0.228248 0.143816
C99   C     C_3   0.550104 0.583421 0.565780 -0.246610
C100  C     C_3   0.573874 0.511398 0.576914 -0.209072
C101  C     C_3   0.594412 0.493238 0.746986 -0.430069
H127  H     H_    0.637360 0.524041 0.788883 0.155772
H128  H     H_    0.552040 0.500568 0.826131 0.124578
H129  H     H_    0.609071 0.440372 0.753869 0.133794
H130  H     H_    0.532460 0.478480 0.536849 0.126011
H131  H     H_    0.617275 0.503313 0.500005 0.132461
H132  H     H_    0.587771 0.615841 0.625552 0.114527
H133  H     H_    0.501655 0.588311 0.625351 0.113077
C102  C     C_3   0.440337 0.388946 0.137913 -0.236197
C103  C     C_3   0.449160 0.456414 0.218030 -0.199919
C104  C     C_3   0.400587 0.464194 0.352948 -0.438019
H134  H     H_    0.349686 0.474319 0.303158 0.146421
H135  H     H_    0.399723 0.418827 0.427252 0.150313
H136  H     H_    0.416000 0.505817 0.431423 0.118936
H137  H     H_    0.500974 0.461407 0.265781 0.116000
H138  H     H_    0.440324 0.496610 0.129651 0.123072
H139  H     H_    0.390432 0.387546 0.077714 0.127481
H140  H     H_    0.441071 0.349666 0.228290 0.143880

loop_
_geom_bond_atom_site_label_1
_geom_bond_atom_site_label_2
_ccdc_geom_bond_type
C89   H99   S    
C51   C55   A    
Ba2   O14   S    
C69   H1    S    
O1    P1    D    
O12   P12   S    
C25   C85   A    
C64   H84   S    
C71   H3    S    
Ba4   O44   S    
C53   H53   S    
C15   P16   S    
N4    H109  S    
C34   C88   A    
C13   P14   S    
C92   H112  S    
O31   P3    S    
C5    C9    A    
O36   P15   S    
C83   O35   S    
C7    C11   A    
C8    C12   A    
C30   C38   A    
C66   C70   S    
C97   H124  S    
O22   P13   S    
O42   P10   S    
C76   C80   S    
C69   H9    S    
C71   H11   S    
Ba3   O16   S    
C19   H51   S    
Ba1   O14   S    
C11   H47   S    
C3    C99   S    
C21   C25   A    
C23   C27   A    
C67   H91   S    
C24   C28   A    
C68   H92   S    
C3    H71   S    
C13   C17   A    
C77   H29   S    
C1    H69   S    
C15   C19   A    
C74   C78   S    
C75   O31   S    
O40   P8    D    
C32   C36   A    
C12   C16   A    
C76   H20   S    
O18   P2    S    
O24   P15   S    
C4    H72   S    
C32   C40   A    
C100  C101  S    
O30   P2    S    
C65   H93   S    
O16   P7    S    
Ba2   O38   S    
C90   H103  S    
O43   P11   S    
Ba2   O2    S    
C67   H95   S    
N2    C90   S    
C39   P8    S    
C72   H8    S    
C74   H14   S    
C2    C96   S    
C72   H4    S    
O45   P9    D    
C28   C88   A    
C66   O5    S    
O9    P9    S    
C96   H125  S    
C95   H114  S    
C103  H137  S    
C8    P4    S    
O33   P14   S    
C29   C57   A    
C37   C41   A    
C62   H82   S    
C31   C59   A    
C56   H56   S    
O44   P12   S    
C32   C60   A    
C39   C43   A    
C78   H30   S    
O46   P10   D    
C40   C44   A    
C65   H89   S    
C55   H55   S    
O35   P16   S    
C45   H77   S    
C36   C56   A    
C77   H25   S    
C82   H34   S    
O48   P12   D    
C47   H75   S    
C59   H67   S    
C2    H38   S    
C73   O29   S    
C48   H80   S    
C70   H6    S    
C45   O9    S    
C4    C102  S    
O10   P10   S    
C90   H102  S    
C91   H108  S    
O4    P4    D    
C79   H27   S    
C50   P9    S    
C62   H42   S    
C84   O36   S    
C48   O12   S    
C31   C39   A    
O21   P14   S    
C1    C81   S    
C41   C49   A    
C80   H24   S    
C93   C94   S    
C12   H48   S    
C99   H132  S    
C104  H135  S    
Ba3   O23   S    
Ba1   O21   S    
C79   H23   S    
C88   H64   S    
C6    C10   A    
Ba3   O43   S    
Ba4   O15   S    
C100  H131  S    
O15   P8    S    
Ba1   P1    S    
C93   H118  S    
O13   P6    S    
C4    C84   S    
C46   C62   S    
C84   N4    S    
C18   H50   S    
O26   P13   D    
C71   H7    S    
C98   H120  S    
C47   C63   S    
C73   H17   S    
Ba1   O18   S    
Ba2   P6    S    
C47   O11   S    
C22   C26   A    
C27   C87   A    
C94   H116  S    
C5    P1    S    
C6    C26   A    
C102  H139  S    
Ba3   Ba4   S    
O29   P1    S    
C17   C21   A    
C14   C18   A    
O5    P5    S    
O32   P4    S    
C20   C24   A    
C90   H104  S    
C91   H106  S    
C76   H16   S    
C2    C82   S    
C9    C13   A    
C51   P12   S    
C36   C86   A    
C61   H85   S    
O28   P15   D    
C92   H111  S    
C35   C85   A    
C100  H130  S    
C101  H129  S    
C33   C53   A    
Ba2   O42   S    
C94   C95   S    
C81   O33   S    
Ba4   P8    S    
C89   H98   S    
Ba1   O1    S    
C72   H12   S    
Ba3   O15   S    
Ba4   O4    S    
O2    P2    D    
C26   C86   A    
Ba1   O13   S    
C11   C15   A    
C14   P13   S    
O37   P5    D    
C30   C58   A    
C98   H122  S    
C44   C52   A    
C38   C42   A    
C49   P10   S    
O7    P7    S    
C34   C54   A    
C81   H33   S    
C66   H90   S    
C3    C83   S    
C10   H46   S    
C63   H83   S    
C46   H74   S    
C95   H113  S    
C58   H66   S    
C65   C69   S    
O23   P16   S    
C86   H62   S    
C3    H39   S    
O19   P3    S    
C70   H10   S    
C1    H37   S    
C89   H100  S    
Ba2   O13   S    
C52   P11   S    
C102  C103  S    
N3    C91   S    
C49   C53   A    
C29   C33   A    
C52   C56   A    
C63   H43   S    
C101  H127  S    
C45   H73   S    
C57   H65   S    
C96   C97   S    
C73   C77   S    
C80   H28   S    
C35   C55   A    
C42   C50   A    
Ba4   P4    S    
C75   H15   S    
C46   H78   S    
C97   H123  S    
O17   P1    S    
C103  H138  S    
C83   N3    S    
C43   H59   S    
C44   H60   S    
O27   P16   D    
Ba3   O39   S    
Ba4   O19   S    
Ba1   O37   S    
C38   P5    S    
C29   C37   A    
C73   H13   S    
C17   H49   S    
C63   H87   S    
C74   O30   S    
C75   C79   S    
C91   H107  S    
N1    H97   S    
C20   H52   S    
C65   O6    S    
Ba4   O40   S    
O38   P6    D    
C18   C22   A    
C77   H21   S    
C70   H2    S    
C79   H31   S    
Ba3   P3    S    
C99   C100  S    
C10   C14   A    
C31   C35   A    
C68   C72   S    
O20   P4    S    
C68   O7    S    
C83   H35   S    
C104  H134  S    
C69   H5    S    
C62   H86   S    
C45   C61   S    
O8    P8    S    
Ba3   O20   S    
O39   P7    D    
Ba4   O16   S    
C7    P3    S    
C96   H126  S    
Ba1   Ba2   S    
C21   C59   A    
C95   H115  S    
C22   C60   A    
C68   H96   S    
C23   C57   A    
C2    H70   S    
C4    H40   S    
C19   C23   A    
N3    H105  S    
C48   C64   S    
C5    C25   A    
C7    C27   A    
C94   H117  S    
C8    C28   A    
C60   H68   S    
O47   P11   D    
O3    P3    D    
Ba2   O22   S    
C33   C87   A    
C16   C20   A    
C64   H44   S    
C1    C93   S    
C78   H22   S    
N1    C89   S    
C66   H94   S    
Ba2   P2    S    
C16   P15   S    
O14   P5    S    
C64   H88   S    
C9    H45   S    
C87   H63   S    
Ba3   O3    S    
C85   H61   S    
C92   H110  S    
O25   P14   D    
C74   H18   S    
Ba2   O17   S    
Ba3   P7    S    
C101  H128  S    
Ba1   P5    S    
C42   H58   S    
C6    P2    S    
N2    H101  S    
C99   H133  S    
C103  C104  S    
C43   C51   A    
C50   C54   A    
C104  H136  S    
N4    C92   S    
O6    P6    S    
C61   H81   S    
C30   C34   A    
C76   O32   S    
C54   H54   S    
O11   P11   S    
C80   H32   S    
C93   H119  S    
C81   N1    S    
Ba4   O24   S    
C75   H19   S    
C37   P6    S    
C97   C98   S    
C47   H79   S    
O41   P9    S    
C46   O10   S    
C84   H36   S    
C48   H76   S    
C67   C71   S    
C67   O8    S    
C98   H121  S    
C41   H57   S    
C82   N2    S    
O34   P13   S    
Ba1   O41   S    
C78   H26   S    
C102  H140  S    
C82   O34   S    
C61   H41   S    
C40   P7    S    
C24   C58   A    
