data_mof_unit_18501.cif
_audit_creation_date              2012-12-11T17:43:16-0500
_audit_creation_method            fapswitch 2.2
_symmetry_space_group_name_H-M    P1
_symmetry_Int_Tables_number       1
_space_group_crystal_system       triclinic
_cell_length_a                    15.060379
_cell_length_b                    14.961109
_cell_length_c                    16.973341
_cell_angle_alpha                 108.81677
_cell_angle_beta                  106.450326
_cell_angle_gamma                 108.897939
_cell_volume                      3087.40044593

loop_
_atom_site_label
_atom_site_type_symbol
_atom_type_description
_atom_site_fract_x
_atom_site_fract_y
_atom_site_fract_z
_atom_type_partial_charge
Br1   Br    Br    0.756380 0.562407 0.280986 -0.631644
Br2   Br    Br    0.245583 0.581273 0.713921 -0.667145
C1    C     C_R   0.084021 0.288207 0.080784 -0.134699
C2    C     C_R   0.082685 0.113225 0.132708 -0.230120
C3    C     C_R   0.991175 0.924108 0.078096 0.048936
C4    C     C_R   0.989790 0.111403 0.082664 0.045787
C5    C     C_R   0.083181 0.021330 0.136381 0.051769
C6    C     C_R   0.894500 0.022098 0.053204 0.048791
C7    C     C_R   0.704207 0.950981 0.954404 -0.295988
C8    C     C_R   0.159149 0.979753 0.263297 -0.247510
C9    C     C_R   0.604843 0.037455 0.004593 0.602283
C10   C     C_R   0.345088 0.066681 0.359632 0.608327
C11   C     C_R   0.493111 0.587516 0.273077 -0.090109
C12   C     C_R   0.908302 0.722314 0.977157 -0.114726
C13   C     C_R   0.505707 0.299317 0.647841 -0.088191
C14   C     C_R   0.481026 0.563145 0.182808 -0.067522
C15   C     C_R   0.496262 0.314528 0.730143 -0.133255
C16   C     C_R   0.937103 0.507853 0.741328 -0.150664
C17   C     C_R   0.064814 0.555929 0.263058 -0.136251
C18   C     C_R   0.449343 0.458404 0.120021 0.115264
C19   C     C_R   0.470077 0.393790 0.771874 0.093922
C20   C     C_R   0.430843 0.378783 0.148923 -0.164238
C21   C     C_R   0.451721 0.456056 0.728558 -0.138573
C22   C     C_R   0.441319 0.403328 0.238854 -0.096910
C23   C     C_R   0.029800 0.558794 0.736860 0.113502
C24   C     C_R   0.460283 0.439820 0.645678 -0.088410
C25   C     C_R   0.472558 0.507708 0.300944 -0.078738
C26   C     C_R   0.487447 0.361671 0.605446 -0.108901
C27   C     C_R   0.523183 0.417485 0.012790 -0.193141
C28   C     C_R   0.378855 0.424125 0.872573 -0.215709
C29   C     C_R   0.537777 0.414503 0.934714 0.047693
C30   C     C_R   0.371174 0.438492 0.955757 0.058127
C31   C     C_R   0.462801 0.411548 0.860744 0.024367
C32   C     C_R   0.443391 0.433269 0.026138 0.005358
C33   C     C_R   0.610457 0.956865 0.938762 -0.136908
C34   C     C_R   0.974017 0.545098 0.273568 0.104099
C35   C     C_R   0.243756 0.996743 0.337555 -0.132245
C36   C     C_R   0.971562 0.594014 0.363388 0.028712
C37   C     C_R   0.042339 0.587624 0.664795 0.018305
C38   C     C_R   0.145493 0.637840 0.585862 -0.246552
C39   C     C_R   0.877786 0.592325 0.458642 -0.262347
C40   C     C_R   0.775122 0.201790 0.812450 -0.128883
C41   C     C_R   0.280252 0.784859 0.176561 -0.137174
C42   C     C_R   0.135485 0.608588 0.653451 0.328535
C43   C     C_R   0.879428 0.583394 0.374330 0.327107
C44   C     C_R   0.959253 0.591615 0.604390 -0.287604
C45   C     C_R   0.757368 0.195393 0.725552 0.060163
C46   C     C_R   0.063832 0.635181 0.442277 -0.276602
C47   C     C_R   0.965536 0.607741 0.529412 0.138518
C48   C     C_R   0.059818 0.632248 0.521464 0.132943
C49   C     C_R   0.716248 0.098838 0.639674 0.133257
C50   C     C_R   0.445604 0.853965 0.321497 0.142056
C51   C     C_R   0.596402 0.025195 0.391712 -0.214269
C52   C     C_R   0.609625 0.908765 0.554971 -0.219116
C53   C     C_R   0.503749 0.944835 0.316188 -0.132524
C54   C     C_R   0.677752 0.998957 0.638067 -0.161043
C55   C     C_R   0.488270 0.838080 0.397545 -0.290978
C56   C     C_R   0.336730 0.781547 0.254663 0.067483
C57   C     C_R   0.701268 0.105084 0.556474 -0.272954
C58   C     C_R   0.578268 0.918854 0.473936 0.203530
C59   C     C_R   0.629057 0.015827 0.473242 0.209558
C60   C     C_R   0.694635 0.112352 0.087305 -0.319610
C61   C     C_R   0.361494 0.116516 0.303826 -0.321519
C62   C     C_R   0.788315 0.106367 0.103173 -0.172977
C63   C     C_R   0.276945 0.098889 0.228964 -0.202996
C64   C     C_R   0.262918 0.536526 0.952863 -0.125965
C65   C     C_R   0.699794 0.401765 0.994399 -0.117963
C66   C     C_R   0.794202 0.026366 0.036386 0.126349
C67   C     C_R   0.290613 0.462545 0.970424 0.051290
C68   C     C_R   0.174651 0.031615 0.208827 0.123153
C69   C     C_R   0.779804 0.296804 0.734445 -0.126358
C70   C     C_R   0.274508 0.688589 0.252110 -0.144841
C71   C     C_R   0.246613 0.434042 0.024567 -0.119504
C72   C     C_R   0.703805 0.499666 0.919980 -0.121019
C73   C     C_R   0.109508 0.594596 0.821194 -0.082869
C74   C     C_R   0.891514 0.468510 0.187882 -0.104338
C75   C     C_R   0.912723 0.203332 0.999899 -0.142825
C76   C     C_R   0.082334 0.807059 0.051678 -0.122650
C77   C     C_R   0.995347 0.196485 0.054461 0.067516
C78   C     C_R   0.640944 0.433941 0.944049 0.056852
C79   C     C_R   0.993651 0.821459 0.040470 0.055752
C80   C     C_R   0.896350 0.927272 0.045973 -0.226443
H1    H     H_    0.161204 0.316565 0.132710 0.092631
H2    H     H_    0.509811 0.264717 0.761497 0.123381
H3    H     H_    0.407946 0.297919 0.101655 0.117383
H4    H     H_    0.432472 0.518235 0.759584 0.158804
H5    H     H_    0.426251 0.341706 0.260690 0.104485
H6    H     H_    0.446446 0.488312 0.612915 0.123786
H7    H     H_    0.581421 0.420654 0.070059 0.169049
H8    H     H_    0.320127 0.423889 0.817852 0.163145
H9    H     H_    0.137987 0.653947 0.439730 0.130878
H10   H     H_    0.887458 0.575573 0.611835 0.132947
H11   H     H_    0.216620 0.652628 0.577071 0.162200
H12   H     H_    0.826983 0.703282 0.950454 0.094690
H13   H     H_    0.806133 0.579232 0.466057 0.161236
H14   H     H_    0.859410 0.484420 0.693269 0.090010
H15   H     H_    0.143980 0.608930 0.313227 0.101824
H16   H     H_    0.541921 0.898784 0.874938 0.155209
H17   H     H_    0.230276 0.957284 0.379514 0.144876
H18   H     H_    0.735464 0.180679 0.556290 0.117888
H19   H     H_    0.446738 0.768015 0.402828 0.110924
H20   H     H_    0.692257 0.990504 0.700699 0.118168
H21   H     H_    0.474575 0.957944 0.257161 0.113398
H22   H     H_    0.636062 0.098472 0.389532 0.119811
H23   H     H_    0.707010 0.888796 0.901923 0.144257
H24   H     H_    0.573375 0.833598 0.555558 0.126737
H25   H     H_    0.692215 0.175347 0.139312 0.132094
H26   H     H_    0.439456 0.169894 0.318897 0.122442
H27   H     H_    0.856649 0.164787 0.167100 0.141818
H28   H     H_    0.291420 0.138618 0.187400 0.129064
H29   H     H_    0.765067 0.138171 0.831104 0.096592
H30   H     H_    0.309946 0.837696 0.149160 0.095154
H31   H     H_    0.286618 0.577372 0.914647 0.142399
H32   H     H_    0.672674 0.340255 0.014660 0.098400
H33   H     H_    0.772397 0.321133 0.680745 0.093737
H34   H     H_    0.081216 0.928075 0.249761 0.153376
H35   H     H_    0.297926 0.650577 0.292599 0.089822
H36   H     H_    0.249723 0.376421 0.048928 0.112066
H37   H     H_    0.680138 0.531669 0.873683 0.102736
H38   H     H_    0.188560 0.655185 0.849531 0.140729
H39   H     H_    0.809498 0.436407 0.169848 0.147819
H40   H     H_    0.831105 0.153072 0.973519 0.117508
H41   H     H_    0.162624 0.866018 0.091486 0.117848
H42   H     H_    0.823448 0.856130 0.014766 0.129025
H43   H     H_    0.154675 0.186153 0.169683 0.120623
H44   H     H_    0.520258 0.102382 0.039020 0.304383
H45   H     H_    0.481835 0.526961 0.370892 0.097013
H46   H     H_    0.491057 0.141514 0.445763 0.296552
H47   H     H_    0.494463 0.349508 0.541512 0.105812
H48   H     H_    0.519881 0.668503 0.321784 0.116326
H49   H     H_    0.527349 0.239206 0.617130 0.148089
H50   H     H_    0.497800 0.625812 0.162205 0.113309
N1    N     N_R   0.055660 0.348550 0.045620 -0.039364
N2    N     N_R   0.185200 0.638170 0.176300 -0.038568
N3    N     N_R   0.201680 0.494570 0.045620 -0.043027
N4    N     N_R   0.798320 0.505430 0.954380 -0.040708
N5    N     N_R   0.068420 0.560530 0.871650 -0.049055
N6    N     N_R   0.931580 0.439470 0.128350 -0.050052
N7    N     N_R   0.948070 0.295860 0.997670 -0.040751
N8    N     N_R   0.051930 0.704140 0.002330 -0.045961
N9    N     N_R   0.944340 0.651450 0.954380 -0.043747
N10   N     N_R   0.960830 0.507850 0.823700 -0.040800
N11   N     N_R   0.039170 0.492150 0.176300 -0.044208
N12   N     N_R   0.811290 0.303410 0.871650 -0.042515
N13   N     N_R   0.188710 0.696590 0.128350 -0.039116
N14   N     N_R   0.205200 0.552990 0.997670 -0.044751
N15   N     N_R   0.794800 0.447010 0.002330 -0.038137
N16   N     N_R   0.814800 0.361830 0.823700 -0.040902
Ni1   Ni    Ni4+2 0.119340 0.493420 0.109960 0.214068
Ni2   Ni    Ni4+2 0.880660 0.506580 0.890040 0.215959
Ni3   Ni    Ni4+2 0.872590 0.372590 0.000000 0.219014
Ni4   Ni    Ni4+2 0.127410 0.627410 0.000000 0.220143
O1    O     O_3   0.511107 0.040930 0.986217 -0.766914
O2    O     O_3   0.425810 0.085722 0.436477 -0.778846

loop_
_geom_bond_atom_site_label_1
_geom_bond_atom_site_label_2
_ccdc_geom_bond_type
N5    N10   A    
C61   C63   A    
C64   H31   S    
C16   H14   S    
C22   C25   A    
C38   H11   S    
C28   H8    S    
C9    C60   A    
C1    C77   A    
C5    C68   S    
C27   H7    S    
C17   H15   S    
C29   C78   S    
C52   C58   A    
C72   H37   S    
C44   C47   A    
C2    H43   S    
C8    C35   A    
C6    C80   A    
C74   H39   S    
C62   C66   A    
C65   H32   S    
N16   Ni2   S    
C49   C54   A    
N12   Ni3   S    
N6    N11   A    
C20   H3    S    
C64   C67   A    
C19   C31   S    
C51   H22   S    
C7    H23   S    
C63   C68   A    
C53   H21   S    
C26   H47   S    
C21   C24   A    
C80   H42   S    
C10   C35   A    
C36   C43   A    
C60   C62   A    
C75   H40   S    
C34   C74   A    
C41   C56   A    
C51   C59   A    
C71   N3    A    
Br2   C42   S    
C21   H4    S    
C72   N4    A    
C70   H35   S    
C65   C78   A    
C11   H48   S    
C29   C31   A    
N5    Ni4   S    
C67   C71   A    
C33   H16   S    
N8    Ni4   S    
C36   C46   A    
C50   C53   A    
H46   O2    S    
C65   N15   A    
C18   C32   S    
C46   C48   A    
C69   N16   A    
C12   N9    A    
C72   C78   A    
C57   H18   S    
C16   C23   A    
C25   H45   S    
C2    C5    A    
C39   C47   A    
N9    Ni2   S    
C13   H49   S    
C51   C53   A    
C52   C54   A    
C57   C59   A    
C52   H24   S    
N4    N15   A    
C16   N10   A    
N1    Ni1   S    
N8    N9    A    
C2    C4    A    
C73   N5    A    
Br1   C43   S    
C3    C5    A    
C10   C61   A    
C55   C58   A    
C45   C49   S    
C60   H25   S    
N3    Ni1   S    
N2    Ni1   S    
C27   C32   A    
C46   H9    S    
C15   C19   A    
C58   C59   A    
C23   C73   A    
C30   C32   A    
C40   N12   A    
N15   Ni3   S    
C40   H29   S    
N4    Ni2   S    
C41   N13   A    
N7    Ni3   S    
C3    C79   S    
C70   N2    A    
N11   Ni1   S    
C14   C18   A    
N3    N14   A    
C75   C77   A    
C69   H33   S    
C76   H41   S    
C45   C69   A    
C37   C42   A    
C50   C56   S    
C37   C44   A    
N14   Ni4   S    
C8    C68   A    
C18   C20   A    
C6    C66   S    
C62   H27   S    
C19   C21   A    
C1    H1    S    
C20   C22   A    
C49   C57   A    
C41   H30   S    
C13   C26   A    
C35   H17   S    
C8    H34   S    
C13   C15   A    
N2    N13   A    
C17   N11   A    
C71   H36   S    
C28   C31   A    
C73   H38   S    
C75   N7    A    
C10   O2    S    
C76   N8    A    
C4    C6    A    
N1    N7    A    
C30   C67   S    
C74   N6    A    
N6    Ni3   S    
C55   H19   S    
C24   C26   A    
C17   C34   A    
C15   H2    S    
N10   Ni2   S    
C9    C33   A    
C7    C66   A    
C54   H20   S    
C27   C29   A    
C23   C37   S    
C28   C30   A    
C3    C80   A    
C76   C79   A    
C56   C70   A    
C4    C77   S    
C39   H13   S    
C38   C48   A    
C34   C36   S    
C40   C45   A    
C14   H50   S    
C22   H5    S    
C63   H28   S    
C64   N14   A    
N13   Ni4   S    
C50   C55   A    
C9    O1    S    
H44   O1    S    
C38   C42   A    
C44   H10   S    
C24   H6    S    
C47   C48   A    
C11   C14   A    
C7    C33   A    
C39   C43   A    
C11   C25   A    
C12   C79   A    
C1    N1    A    
C61   H26   S    
C12   H12   S    
N12   N16   A    
