data_mof_unit_6725.cif
_audit_creation_date              2012-12-10T20:35:52-0500
_audit_creation_method            fapswitch 2.2
_symmetry_space_group_name_H-M    P1
_symmetry_Int_Tables_number       1
_space_group_crystal_system       triclinic
_cell_length_a                    15.717933
_cell_length_b                    10.689972
_cell_length_c                    9.874522
_cell_angle_alpha                 89.2024
_cell_angle_beta                  89.666398
_cell_angle_gamma                 90.980332
_cell_volume                      1658.72521777

loop_
_atom_site_label
_atom_site_type_symbol
_atom_type_description
_atom_site_fract_x
_atom_site_fract_y
_atom_site_fract_z
_atom_type_partial_charge
C1    C     C_R   0.500672 0.259902 0.500663 0.867352
C2    C     C_3   0.952401 0.381705 0.579385 -0.039349
C3    C     C_3   0.916997 0.498198 0.500159 0.300089
C4    C     C_3   0.952436 0.623849 0.561283 -0.078995
C5    C     C_3   0.049926 0.614868 0.578334 -0.434090
C6    C     C_1   0.825527 0.498296 0.499683 -0.098105
C7    C     C_1   0.174361 0.503015 0.497071 -0.104984
C8    C     C_1   0.249611 0.500893 0.500130 -0.231867
C9    C     C_R   0.551252 0.062938 0.598313 0.134729
C10   C     C_R   0.507025 0.127763 0.498346 -0.101164
C11   C     C_R   0.477971 0.064805 0.383646 -0.235464
C12   C     C_R   0.338362 0.499558 0.500326 0.906453
C13   C     C_R   0.480010 0.936249 0.380916 -0.225457
C14   C     C_R   0.511651 0.871208 0.493153 -0.092224
C15   C     C_R   0.554422 0.935082 0.594799 0.118161
C16   C     C_3   0.549536 0.920694 0.745036 -0.482450
C17   C     C_3   0.543111 0.061740 0.749207 -0.509113
C18   C     C_R   0.433224 0.447607 0.072870 0.149134
C19   C     C_R   0.562155 0.560654 0.070356 -0.126434
C20   C     C_R   0.562403 0.560145 0.926523 -0.128688
C21   C     C_R   0.431789 0.450966 0.930124 0.129580
C22   C     C_3   0.399071 0.319066 0.923390 -0.158236
C23   C     C_R   0.502345 0.739685 0.498797 0.877862
C24   C     C_3   0.404752 0.312959 0.078791 -0.181563
C25   C     C_R   0.661599 0.500149 0.499616 0.912973
C26   C     C_3   0.050323 0.380149 0.560249 -0.505283
C27   C     C_3   0.048288 0.510360 0.344719 -0.038570
C28   C     C_3   0.949485 0.494382 0.350703 -0.503580
C29   C     C_1   0.750289 0.499345 0.499079 -0.212829
C30   C     C_3   0.082977 0.504378 0.493677 0.307052
H1    H     H_    0.080403 0.365924 0.661081 0.171079
H2    H     H_    0.942133 0.394571 0.688853 0.146844
H3    H     H_    0.942883 0.697544 0.482046 0.135896
H4    H     H_    0.449079 0.113968 0.300168 0.168789
H5    H     H_    0.451259 0.888272 0.296222 0.169109
H6    H     H_    0.490651 0.871205 0.781051 0.219484
H7    H     H_    0.609772 0.885267 0.788446 0.194163
H8    H     H_    0.479235 0.089108 0.783569 0.194022
H9    H     H_    0.597875 0.108409 0.799659 0.204766
H10   H     H_    0.613203 0.607829 0.123313 0.148229
H11   H     H_    0.070053 0.300916 0.495788 0.171640
H12   H     H_    0.613735 0.606695 0.871226 0.146779
H13   H     H_    0.448035 0.261889 0.874786 0.163321
H14   H     H_    0.457615 0.252304 0.112487 0.154662
H15   H     H_    0.073599 0.429003 0.288734 0.139939
H16   H     H_    0.930815 0.405064 0.302156 0.163899
H17   H     H_    0.917727 0.568650 0.290027 0.168190
H18   H     H_    0.066829 0.599959 0.686457 0.177712
H19   H     H_    0.081228 0.704564 0.545741 0.155678
N1    N     N_R   0.499430 0.499140 0.142800 -0.112095
N2    N     N_R   0.499430 0.499180 0.857150 -0.111960
O1    O     O_R   0.500010 0.316790 0.614690 -0.621480
O2    O     O_R   0.500000 0.316760 0.385350 -0.629186
O3    O     O_R   0.377150 0.500020 0.614720 -0.621438
O4    O     O_R   0.377140 0.499990 0.385380 -0.629765
O5    O     O_R   0.500000 0.683240 0.614650 -0.619159
O6    O     O_R   0.499990 0.683210 0.385310 -0.622044
O7    O     O_R   0.622860 0.500010 0.614620 -0.620524
O8    O     O_R   0.622850 0.499980 0.385280 -0.613957
Zn1   Zn    Zn3+2 0.500010 0.500020 0.653130 0.933787
Zn2   Zn    Zn3+2 0.499990 0.499980 0.346870 0.933767
C31   C     C_3   0.909801 0.253084 0.544126 -0.414409
C32   C     C_3   0.839124 0.214148 0.645565 -0.366129
C33   C     C_3   0.794859 0.092409 0.604178 -0.880710
H20   H     H_    0.763116 0.104793 0.504779 0.263240
H21   H     H_    0.841574 0.015888 0.597296 0.252673
H22   H     H_    0.745882 0.065336 0.681078 0.250625
H23   H     H_    0.867245 0.200489 0.747656 0.211975
H24   H     H_    0.790737 0.288065 0.652876 0.232991
H25   H     H_    0.883152 0.254823 0.440424 0.212208
H26   H     H_    0.957706 0.177741 0.546725 0.204906
C34   C     C_3   0.310583 0.307705 0.855640 -0.341933
C35   C     C_3   0.300882 0.182424 0.782617 -0.361567
C36   C     C_3   0.214091 0.168972 0.715797 -0.927052
H27   H     H_    0.162321 0.178557 0.791807 0.258843
H28   H     H_    0.207628 0.241252 0.634941 0.266040
H29   H     H_    0.208146 0.075412 0.668979 0.256300
H30   H     H_    0.350378 0.176555 0.702268 0.227717
H31   H     H_    0.309621 0.103489 0.855265 0.218171
H32   H     H_    0.257303 0.320130 0.927311 0.194067
H33   H     H_    0.302816 0.383482 0.780200 0.231696
C37   C     C_3   0.324019 0.291702 0.166667 -0.338419
C38   C     C_3   0.286270 0.158319 0.156879 -0.366331
C39   C     C_3   0.231433 0.124945 0.280915 -0.920915
H34   H     H_    0.270800 0.124992 0.374041 0.267419
H35   H     H_    0.179460 0.193307 0.292036 0.256472
H36   H     H_    0.202800 0.030074 0.269158 0.254277
H37   H     H_    0.245540 0.150218 0.066214 0.233246
H38   H     H_    0.337597 0.088728 0.148146 0.218001
H39   H     H_    0.343560 0.305417 0.273002 0.240081
H40   H     H_    0.274788 0.362252 0.144507 0.177802
C40   C     C_3   0.072856 0.630014 0.260028 -0.427893
C41   C     C_3   0.167976 0.643211 0.224367 -0.323537
C42   C     C_3   0.183064 0.734583 0.106054 -0.910843
H41   H     H_    0.152117 0.698922 0.013021 0.258476
H42   H     H_    0.157164 0.827739 0.130291 0.260948
H43   H     H_    0.252459 0.745256 0.086256 0.253761
H44   H     H_    0.203260 0.680160 0.312609 0.233837
H45   H     H_    0.193977 0.550970 0.196769 0.217878
H46   H     H_    0.037204 0.625299 0.163072 0.213949
H47   H     H_    0.051926 0.715784 0.311779 0.197502
C43   C     C_3   0.906752 0.679681 0.686712 -0.417480
C44   C     C_3   0.897611 0.594488 0.812718 -0.325072
C45   C     C_3   0.864216 0.666737 0.933699 -0.917618
H48   H     H_    0.909605 0.743143 0.960470 0.259826
H49   H     H_    0.801259 0.707159 0.910104 0.260883
H50   H     H_    0.856824 0.602478 0.022508 0.244765
H51   H     H_    0.851213 0.517646 0.792252 0.218758
H52   H     H_    0.959926 0.554670 0.840820 0.209351
H53   H     H_    0.942192 0.766385 0.714972 0.205941
H54   H     H_    0.842147 0.709760 0.656144 0.200188

loop_
_geom_bond_atom_site_label_1
_geom_bond_atom_site_label_2
_ccdc_geom_bond_type
C28   H17   S    
C41   C42   S    
C18   C21   A    
C35   C36   S    
C19   C20   A    
C39   H36   S    
C3    C6    S    
C45   H49   S    
C7    C8    T    
O3    Zn1   S    
C28   H16   S    
C36   H28   S    
C18   C24   S    
C3    C28   S    
C39   H35   S    
C13   H5    S    
C20   N2    A    
O7    Zn1   S    
C15   C16   S    
C31   H25   S    
C2    H2    S    
C17   H9    S    
C1    O2    A    
C24   C37   S    
O1    Zn1   S    
C4    H3    S    
O2    Zn2   S    
C22   H13   S    
C16   C17   S    
C36   H29   S    
C4    C43   S    
C35   H30   S    
C44   H51   S    
C9    C10   A    
C41   H45   S    
C34   H33   S    
C16   H7    S    
C27   H15   S    
C38   H37   S    
C26   H1    S    
C7    C30   S    
C21   C22   S    
C27   C30   S    
C5    H19   S    
C43   H54   S    
C43   C44   S    
C22   C34   S    
C45   H48   S    
C25   C29   S    
C38   H38   S    
C5    H18   S    
O8    Zn2   S    
C36   H27   S    
C33   H22   S    
C32   H24   S    
C23   O5    A    
C39   H34   S    
C19   H10   S    
C40   H46   S    
C34   C35   S    
C42   H43   S    
C37   H40   S    
O5    Zn1   S    
C33   H21   S    
C14   C23   S    
C31   C32   S    
C38   C39   S    
C8    C12   S    
C35   H31   S    
C27   C40   S    
C2    C26   S    
C42   H42   S    
C40   H47   S    
C9    C17   S    
C26   C30   S    
C24   H14   S    
C22   C24   S    
C43   H53   S    
C25   O7    A    
C3    C4    S    
C21   N2    A    
C18   N1    A    
C5    C30   S    
C23   O6    A    
C32   H23   S    
C11   H4    S    
C1    C10   S    
C4    C5    S    
C20   H12   S    
O6    Zn2   S    
C37   H39   S    
C44   H52   S    
C33   H20   S    
C2    C3    S    
C9    C15   A    
C34   H32   S    
C16   H6    S    
C11   C13   A    
C19   N1    A    
O4    Zn2   S    
C40   C41   S    
C31   H26   S    
C17   H8    S    
C42   H41   S    
C1    O1    A    
C12   O4    A    
C10   C11   A    
C32   C33   S    
C6    C29   T    
C37   C38   S    
C44   C45   S    
N1    Zn2   S    
C14   C15   A    
N2    Zn1   S    
C25   O8    A    
C13   C14   A    
C41   H44   S    
C45   H50   S    
C12   O3    A    
C2    C31   S    
C26   H11   S    
C27   C28   S    
