data_mof_unit_47532.cif
_audit_creation_date              2012-12-10T18:58:14-0500
_audit_creation_method            fapswitch 2.2
_symmetry_space_group_name_H-M    P1
_symmetry_Int_Tables_number       1
_space_group_crystal_system       triclinic
_cell_length_a                    11.046412
_cell_length_b                    10.820564
_cell_length_c                    9.555204
_cell_angle_alpha                 90.066167
_cell_angle_beta                  102.418382
_cell_angle_gamma                 90.175256
_cell_volume                      1115.38942379

loop_
_atom_site_label
_atom_site_type_symbol
_atom_type_description
_atom_site_fract_x
_atom_site_fract_y
_atom_site_fract_z
_atom_type_partial_charge
C1    C     C_R   0.498546 0.262416 0.499671 0.890251
C2    C     C_R   0.485385 0.129552 0.497266 -0.116839
C3    C     C_R   0.433396 0.067277 0.369320 -0.256749
C4    C     C_R   0.423646 0.937733 0.366367 0.432590
C5    C     C_R   0.472753 0.870487 0.494047 -0.203483
C6    C     C_R   0.502360 0.936160 0.622771 0.004476
C7    C     C_3   0.604630 0.922705 0.752206 -0.495221
C8    C     C_3   0.616158 0.063156 0.752667 0.261908
C9    C     C_R   0.608574 0.509415 0.100458 0.253488
C10   C     C_R   0.394057 0.479315 0.047868 -0.035380
C11   C     C_R   0.394079 0.479263 0.899529 -0.082959
C12   C     C_R   0.262857 0.498540 0.442107 0.876729
C13   C     C_R   0.608515 0.508893 0.953158 0.285543
C14   C     C_3   0.700006 0.611941 0.968852 -0.477046
C15   C     C_3   0.699684 0.613604 0.127466 -0.470756
C16   C     C_R   0.491540 0.737384 0.497688 0.846073
C17   C     C_R   0.737091 0.499192 0.558060 0.896800
C18   C     C_2   0.128062 0.492206 0.410089 -0.298242
C19   C     C_2   0.067592 0.490584 0.517030 -0.134004
C20   C     C_2   0.871926 0.498665 0.591307 -0.264855
C21   C     C_2   0.933329 0.481997 0.486924 -0.121727
C22   C     C_R   0.510743 0.062405 0.624156 0.017854
Cu1   Cu    Cu3+1 0.499990 0.499980 0.640670 0.982179
Cu2   Cu    Cu3+1 0.500010 0.500020 0.359330 1.012370
H1    H     H_    0.884378 0.463300 0.377792 0.172159
H2    H     H_    0.307688 0.463806 0.080768 0.159577
H3    H     H_    0.307727 0.463456 0.823910 0.150059
H4    H     H_    0.789953 0.581815 0.946058 0.209432
H5    H     H_    0.660624 0.696515 0.911683 0.214001
H6    H     H_    0.790284 0.586074 0.194462 0.191067
H7    H     H_    0.660664 0.699521 0.163191 0.255702
H8    H     H_    0.117073 0.497449 0.628171 0.174677
H9    H     H_    0.921251 0.514016 0.701335 0.150348
H10   H     H_    0.078072 0.487385 0.298976 0.157427
H11   H     H_    0.401869 0.119351 0.271609 0.200184
H12   H     H_    0.569417 0.887892 0.845358 0.200514
H13   H     H_    0.685383 0.871535 0.729288 0.204999
H14   H     H_    0.591774 0.107385 0.847953 0.117720
N1    N     N_R   0.500780 0.500930 0.148120 -0.182268
N2    N     N_R   0.500790 0.500890 0.852210 -0.195837
O1    O     O_R   0.500000 0.319640 0.618810 -0.571341
O2    O     O_R   0.500010 0.319680 0.381230 -0.587375
O3    O     O_R   0.320680 0.500000 0.575130 -0.604049
O4    O     O_R   0.320690 0.500040 0.337550 -0.570275
O5    O     O_R   0.499990 0.680320 0.618770 -0.589090
O6    O     O_R   0.500000 0.680360 0.381190 -0.517215
O7    O     O_R   0.679310 0.499960 0.662450 -0.564668
O8    O     O_R   0.679320 0.500000 0.424870 -0.595394
S1    S     S_3+6 0.761280 0.114679 0.717312 0.022875
O9    O     O_2   0.773487 0.251460 0.742838 -0.269329
O10   O     O_2   0.866130 0.051061 0.817342 -0.245998
O11   O     O_3   0.769419 0.084220 0.546876 -0.504149
H15   H     H_    0.766036 0.992962 0.538765 0.343293
S2    S     S_3+6 0.346812 0.867239 0.203555 0.016855
O12   O     O_2   0.268065 0.761343 0.234145 -0.292085
O13   O     O_2   0.265360 0.959804 0.110957 -0.269443
O14   O     O_3   0.452628 0.815203 0.115212 -0.553393
H16   H     H_    0.403968 0.773931 0.028453 0.368027

loop_
_geom_bond_atom_site_label_1
_geom_bond_atom_site_label_2
_ccdc_geom_bond_type
C16   O5    A    
C2    C22   A    
C8    C22   S    
Cu1   Cu2   S    
C15   H7    S    
C6    C7    S    
Cu1   O5    S    
C11   H3    S    
Cu2   O2    S    
C7    H12   S    
Cu1   O1    S    
C17   O8    A    
C3    H11   S    
S1    O11   S    
Cu2   O6    S    
C10   H2    S    
S1    O10   D    
C2    C3    A    
C7    H13   S    
C7    C8    S    
C12   O4    A    
C13   C14   S    
C20   C21   D    
C18   H10   S    
O14   H16   S    
C11   N2    A    
C8    H14   S    
C20   H9    S    
C8    S1    S    
C1    O1    A    
C19   C21   S    
C18   C19   D    
C12   O3    A    
C4    S2    S    
C9    C15   S    
C5    C6    A    
Cu2   O4    S    
S2    O13   D    
Cu1   O7    S    
C10   C11   A    
C19   H8    S    
C14   H5    S    
C12   C18   S    
C3    C4    A    
Cu2   O8    S    
C1    O2    A    
C9    N1    A    
C17   C20   S    
Cu1   O3    S    
O11   H15   S    
C15   H6    S    
C1    C2    S    
C16   O6    A    
S1    O9    D    
Cu1   N2    S    
C9    C13   A    
C14   C15   S    
C4    C5    A    
C13   N2    A    
C21   H1    S    
C14   H4    S    
S2    O12   D    
Cu2   N1    S    
C17   O7    A    
C10   N1    A    
C5    C16   S    
S2    O14   S    
C6    C22   A    
