data_mof_unit_38854.cif
_audit_creation_date              2013-03-05T15:49:02-0500
_audit_creation_method            fapswitch 2.2
_symmetry_space_group_name_H-M    P1
_symmetry_Int_Tables_number       1
_space_group_crystal_system       triclinic
_cell_length_a                    17.818396
_cell_length_b                    18.972035
_cell_length_c                    12.134925
_cell_angle_alpha                 89.993295
_cell_angle_beta                  88.287944
_cell_angle_gamma                 90.000531
_cell_volume                      4100.39507338

loop_
_atom_site_label
_atom_site_type_symbol
_atom_site_description
_atom_site_fract_x
_atom_site_fract_y
_atom_site_fract_z
_atom_type_partial_charge
O1    O     O_R   0.418020 0.076820 0.422210 -0.550046
O2    O     O_R   0.581980 0.923180 0.577790 -0.539136
O3    O     O_R   0.581980 0.076820 0.577790 -0.549781
O4    O     O_R   0.418020 0.923180 0.422210 -0.538817
O5    O     O_R   0.918020 0.576820 0.422210 -0.550011
O6    O     O_R   0.081980 0.423180 0.577790 -0.539129
O7    O     O_R   0.081980 0.576820 0.577790 -0.549707
O8    O     O_R   0.918020 0.423180 0.422210 -0.538786
O9    O     O_R   0.430370 0.076830 0.608590 -0.576007
O10   O     O_R   0.569630 0.923170 0.391410 -0.589437
O11   O     O_R   0.569630 0.076830 0.391410 -0.576113
O12   O     O_R   0.430370 0.923170 0.608590 -0.589516
O13   O     O_R   0.930370 0.576830 0.608590 -0.576072
O14   O     O_R   0.069630 0.423170 0.391410 -0.589431
O15   O     O_R   0.069630 0.576830 0.391410 -0.576180
O16   O     O_R   0.930370 0.423170 0.608590 -0.589531
C1    C     C_R   0.402420 0.102767 0.519910 0.944983
C2    C     C_R   0.597343 0.897862 0.480167 0.990047
C3    C     C_R   0.597644 0.102722 0.480059 0.944555
C4    C     C_R   0.402647 0.897863 0.519837 0.990033
C5    C     C_R   0.902434 0.602777 0.519903 0.945272
C6    C     C_R   0.097345 0.397863 0.480168 0.989978
C7    C     C_R   0.097636 0.602729 0.480065 0.944831
C8    C     C_R   0.902641 0.397867 0.519838 0.989969
C9    C     C_R   0.588948 0.006255 0.836601 0.201430
C10   C     C_R   0.411049 0.006324 0.163419 0.201511
C11   C     C_R   0.088953 0.506229 0.836597 0.201489
C12   C     C_R   0.911045 0.506312 0.163425 0.201546
Zn1   Zn    Zn3+2 0.491750 0.000000 0.375560 1.119839
Zn2   Zn    Zn3+2 0.508250 0.000000 0.624440 1.119875
Zn3   Zn    Zn3+2 0.991750 0.500000 0.375560 1.119858
Zn4   Zn    Zn3+2 0.008250 0.500000 0.624440 1.119896
C13   C     C_R   0.598771 0.993336 0.950450 0.369859
C14   C     C_R   0.401200 0.993440 0.049571 0.369878
C15   C     C_R   0.098770 0.493317 0.950446 0.369836
C16   C     C_R   0.901198 0.493441 0.049577 0.369854
C17   C     C_R   0.457597 0.989644 0.858796 0.448434
C18   C     C_R   0.542360 0.989482 0.141181 0.448755
C19   C     C_R   0.957588 0.489689 0.858792 0.448275
C20   C     C_R   0.042362 0.489504 0.141181 0.448632
C21   C     C_R   0.651331 0.160914 0.467883 -0.354532
C22   C     C_R   0.354933 0.836392 0.529016 -0.298505
C23   C     C_R   0.348920 0.161109 0.531964 -0.354473
C24   C     C_R   0.645144 0.836462 0.470953 -0.298561
C25   C     C_R   0.151297 0.660942 0.467910 -0.354267
C26   C     C_R   0.854927 0.336395 0.529019 -0.298515
C27   C     C_R   0.848966 0.661147 0.531935 -0.354218
C28   C     C_R   0.145140 0.336460 0.470951 -0.298591
C29   C     C_R   0.313418 0.729561 0.620879 0.241992
C30   C     C_R   0.715081 0.250600 0.356647 0.290624
C31   C     C_R   0.686781 0.729704 0.379077 0.242498
C32   C     C_R   0.285529 0.251122 0.642911 0.290710
C33   C     C_R   0.813374 0.229607 0.620964 0.242073
C34   C     C_R   0.214966 0.750700 0.356722 0.290692
C35   C     C_R   0.186809 0.229736 0.379005 0.242545
C36   C     C_R   0.785651 0.751224 0.642839 0.290754
C37   C     C_R   0.366346 0.784004 0.609530 0.177624
C38   C     C_R   0.662328 0.196367 0.365417 0.165351
C39   C     C_R   0.633711 0.784012 0.390571 0.177633
C40   C     C_R   0.338171 0.196788 0.634256 0.165563
C41   C     C_R   0.866304 0.284044 0.609600 0.177546
C42   C     C_R   0.162228 0.696452 0.365483 0.165367
C43   C     C_R   0.133733 0.284037 0.390517 0.177564
C44   C     C_R   0.838295 0.696891 0.634182 0.165623
C45   C     C_R   0.298305 0.828843 0.452900 0.502064
C46   C     C_R   0.695132 0.179553 0.558178 0.487484
C47   C     C_R   0.701979 0.829126 0.546775 0.501998
C48   C     C_R   0.305089 0.179710 0.441688 0.487508
C49   C     C_R   0.798342 0.328804 0.452845 0.502139
C50   C     C_R   0.195133 0.679554 0.558182 0.487455
C51   C     C_R   0.201940 0.329086 0.546821 0.502070
C52   C     C_R   0.805095 0.679714 0.441684 0.487451
C53   C     C_R   0.259480 0.765904 0.447279 -0.200885
C54   C     C_R   0.757576 0.222818 0.541198 -0.241508
C55   C     C_R   0.740955 0.766273 0.552404 -0.200901
C56   C     C_R   0.242721 0.223064 0.458627 -0.241516
C57   C     C_R   0.759536 0.265853 0.447248 -0.200978
C58   C     C_R   0.257573 0.722821 0.541175 -0.241631
C59   C     C_R   0.240896 0.266222 0.552431 -0.200984
C60   C     C_R   0.742733 0.723072 0.458647 -0.241595
N1    N     N_R   0.480750 0.000000 0.209750 -0.222061
N2    N     N_R   0.519250 0.000000 0.790250 -0.222068
N3    N     N_R   0.980750 0.500000 0.209750 -0.222080
N4    N     N_R   0.019250 0.500000 0.790250 -0.222088
C61   C     C_R   0.464123 0.990811 0.976772 -0.248336
C62   C     C_R   0.535830 0.990734 0.023216 -0.248164
C63   C     C_R   0.964118 0.490830 0.976770 -0.248373
C64   C     C_R   0.035829 0.490741 0.023215 -0.248154
N5    N     N_R   0.346736 0.030335 0.226577 0.244663
O17   O     O_R   0.296670 0.069379 0.180030 -0.271988
O18   O     O_R   0.328453 0.000949 0.319382 -0.320489
N6    N     N_R   0.653258 0.030318 0.773489 0.244699
O19   O     O_R   0.703283 0.069384 0.820075 -0.271782
O20   O     O_R   0.671593 0.000943 0.680708 -0.319950
N7    N     N_R   0.846720 0.530296 0.226589 0.244700
O21   O     O_R   0.796621 0.569305 0.180046 -0.272076
O22   O     O_R   0.828475 0.500935 0.319427 -0.320490
N8    N     N_R   0.153274 0.530274 0.773485 0.244717
O23   O     O_R   0.203325 0.569309 0.820074 -0.271900
O24   O     O_R   0.171576 0.500929 0.680670 -0.319937
N9    N     N_R   0.612814 0.974605 0.189400 0.252490
O25   O     O_R   0.637893 0.910287 0.190104 -0.395899
O26   O     O_R   0.655631 0.025447 0.221940 -0.321518
N10   N     N_R   0.387056 0.975230 0.810516 0.252435
O27   O     O_R   0.361666 0.911027 0.809353 -0.396004
O28   O     O_R   0.344305 0.026404 0.778966 -0.320497
N11   N     N_R   0.112833 0.474716 0.189412 0.252508
O29   O     O_R   0.137964 0.410417 0.190226 -0.395907
O30   O     O_R   0.155639 0.525621 0.221755 -0.321340
N12   N     N_R   0.887018 0.475429 0.810491 0.252433
O31   O     O_R   0.861530 0.411261 0.809158 -0.396012
O32   O     O_R   0.844292 0.526707 0.779271 -0.320246
O33   O     O_3   0.671554 0.163147 0.664749 -0.513308
C65   C     C_3   0.635800 0.223206 0.711862 0.098370
H1    H     H_    0.586215 0.238413 0.663564 0.159623
H2    H     H_    0.674661 0.269117 0.714532 0.118631
C66   C     C_3   0.609858 0.207415 0.829991 -0.522694
H3    H     H_    0.659030 0.198302 0.882180 0.284620
H4    H     H_    0.577609 0.252935 0.864090 0.198994
H5    H     H_    0.573373 0.160022 0.832719 0.255923
O34   O     O_3   0.272396 0.886333 0.395701 -0.547203
C67   C     C_3   0.217928 0.922513 0.462206 0.092195
H6    H     H_    0.244218 0.970347 0.497196 0.191782
H7    H     H_    0.193736 0.891053 0.532700 0.084615
C68   C     C_3   0.153094 0.944848 0.391309 -0.609823
H8    H     H_    0.119882 0.897908 0.368237 0.233011
H9    H     H_    0.115769 0.981716 0.438214 0.214524
H10   H     H_    0.174618 0.971263 0.315097 0.314854
O35   O     O_3   0.328591 0.163205 0.335132 -0.513327
C69   C     C_3   0.364659 0.223115 0.288042 0.097951
H11   H     H_    0.414369 0.238028 0.336282 0.159565
H12   H     H_    0.326042 0.269215 0.285474 0.118613
C70   C     C_3   0.390454 0.207276 0.169874 -0.523151
H13   H     H_    0.341214 0.198275 0.117781 0.284765
H14   H     H_    0.422793 0.252726 0.135705 0.199119
H15   H     H_    0.426824 0.159809 0.167105 0.255601
O36   O     O_3   0.727918 0.886752 0.603584 -0.547096
C71   C     C_3   0.781901 0.923136 0.536482 0.092778
H16   H     H_    0.755407 0.971219 0.502629 0.192379
H17   H     H_    0.805365 0.892024 0.465103 0.084728
C72   C     C_3   0.847445 0.944948 0.606358 -0.610731
H18   H     H_    0.880754 0.897803 0.628204 0.232410
H19   H     H_    0.884456 0.981977 0.559216 0.214365
H20   H     H_    0.826643 0.971016 0.683269 0.315027
O37   O     O_3   0.171588 0.663118 0.664760 -0.513295
C73   C     C_3   0.135976 0.723206 0.712018 0.098670
H21   H     H_    0.086456 0.738604 0.663720 0.159621
H22   H     H_    0.174960 0.769018 0.714854 0.118786
C74   C     C_3   0.109944 0.707338 0.830083 -0.522644
H23   H     H_    0.159071 0.698100 0.882310 0.284626
H24   H     H_    0.077754 0.752873 0.864252 0.198996
H25   H     H_    0.073378 0.659997 0.832660 0.255924
O38   O     O_3   0.772446 0.386264 0.395561 -0.547239
C75   C     C_3   0.717872 0.422407 0.461928 0.092245
H26   H     H_    0.744089 0.470244 0.497026 0.191799
H27   H     H_    0.693599 0.390922 0.532336 0.084533
C76   C     C_3   0.653127 0.444731 0.390849 -0.609801
H28   H     H_    0.619971 0.397781 0.367648 0.233021
H29   H     H_    0.615719 0.481567 0.437674 0.214586
H30   H     H_    0.674736 0.471177 0.314713 0.314790
O39   O     O_3   0.828560 0.663177 0.335122 -0.513324
C77   C     C_3   0.864525 0.723103 0.287907 0.098161
H31   H     H_    0.914192 0.738160 0.336140 0.159582
H32   H     H_    0.825819 0.769130 0.285208 0.118747
C78   C     C_3   0.890384 0.707194 0.169790 -0.523127
H33   H     H_    0.841176 0.698087 0.117676 0.284777
H34   H     H_    0.922672 0.752654 0.135552 0.199143
H35   H     H_    0.926820 0.659769 0.167145 0.255574
O40   O     O_3   0.227869 0.386685 0.603704 -0.547140
C79   C     C_3   0.281944 0.423041 0.536722 0.092892
H36   H     H_    0.255526 0.471158 0.502852 0.192489
H37   H     H_    0.305434 0.391931 0.465357 0.084629
C80   C     C_3   0.347450 0.444773 0.606733 -0.610879
H38   H     H_    0.380678 0.397589 0.628637 0.232394
H39   H     H_    0.384549 0.481762 0.559663 0.214419
H40   H     H_    0.326613 0.470864 0.683609 0.314930
N13   N     N_R   0.616729 0.181840 0.272661 0.271541
O41   O     O_R   0.647965 0.167754 0.176868 -0.276538
O42   O     O_R   0.545626 0.196861 0.278686 -0.436225
N14   N     N_R   0.433029 0.783625 0.673598 0.257794
O43   O     O_R   0.428962 0.776699 0.780207 -0.262295
O44   O     O_R   0.498772 0.786125 0.624273 -0.356268
N15   N     N_R   0.383951 0.182411 0.726878 0.271362
O45   O     O_R   0.352922 0.168823 0.822993 -0.277035
O46   O     O_R   0.455140 0.197005 0.720236 -0.436620
N16   N     N_R   0.566891 0.783445 0.326787 0.257836
O47   O     O_R   0.570724 0.775957 0.220264 -0.261625
O48   O     O_R   0.501243 0.786159 0.376361 -0.356702
N17   N     N_R   0.116565 0.681976 0.272778 0.271488
O49   O     O_R   0.147732 0.667977 0.176907 -0.276777
O50   O     O_R   0.045450 0.696932 0.278965 -0.436250
N18   N     N_R   0.932963 0.283688 0.673719 0.257802
O51   O     O_R   0.928849 0.276912 0.780349 -0.262456
O52   O     O_R   0.998723 0.286100 0.624435 -0.356173
N19   N     N_R   0.884184 0.682601 0.726719 0.271288
O53   O     O_R   0.853275 0.669149 0.822961 -0.277301
O54   O     O_R   0.955388 0.697102 0.719812 -0.436731
N20   N     N_R   0.066925 0.283484 0.326708 0.257843
O55   O     O_R   0.070777 0.276052 0.220176 -0.261699
O56   O     O_R   0.001269 0.286161 0.376265 -0.356676
N21   N     N_R   0.821479 0.176925 0.704366 0.288197
O57   O     O_R   0.809404 0.192643 0.807711 -0.276303
O58   O     O_R   0.833037 0.111640 0.676112 -0.336670
N22   N     N_R   0.226241 0.787668 0.254075 0.265107
O59   O     O_R   0.169620 0.814843 0.203798 -0.391418
O60   O     O_R   0.293470 0.793578 0.210169 -0.336998
N23   N     N_R   0.178718 0.177034 0.295658 0.288506
O61   O     O_R   0.190971 0.192694 0.192322 -0.276236
O62   O     O_R   0.166902 0.111796 0.323972 -0.337115
N24   N     N_R   0.774622 0.788406 0.745313 0.265265
O63   O     O_R   0.831339 0.815916 0.794937 -0.391096
O64   O     O_R   0.707526 0.794157 0.789736 -0.337974
N25   N     N_R   0.321557 0.676835 0.704207 0.288154
O65   O     O_R   0.309486 0.692493 0.807576 -0.276252
O66   O     O_R   0.333063 0.611558 0.675856 -0.336748
N26   N     N_R   0.726435 0.287505 0.253956 0.265080
O67   O     O_R   0.669851 0.314617 0.203513 -0.391475
O68   O     O_R   0.793700 0.293424 0.210181 -0.336797
N27   N     N_R   0.678657 0.676963 0.295797 0.288460
O69   O     O_R   0.690884 0.692574 0.192437 -0.276198
O70   O     O_R   0.666880 0.611733 0.324196 -0.337230
N28   N     N_R   0.274435 0.288249 0.745423 0.265218
O71   O     O_R   0.331128 0.315668 0.795218 -0.391183
O72   O     O_R   0.207306 0.294027 0.789721 -0.337798
O73   O     O_3   0.670506 0.992846 0.991662 -0.538605
C81   C     C_3   0.707297 0.929576 0.960134 0.228303
H41   H     H_    0.717519 0.927056 0.869470 0.201161
H42   H     H_    0.673876 0.882569 0.986579 0.193826
C82   C     C_3   0.783195 0.926449 0.014257 -0.622330
H43   H     H_    0.776077 0.931324 0.105113 0.268617
H44   H     H_    0.811070 0.875419 0.995040 0.232595
H45   H     H_    0.819526 0.970084 0.982993 0.265930
O74   O     O_3   0.329451 0.992937 0.008432 -0.538349
C83   C     C_3   0.292766 0.929575 0.039777 0.227874
H46   H     H_    0.282775 0.926799 0.130476 0.200534
H47   H     H_    0.326156 0.882658 0.012855 0.193998
C84   C     C_3   0.216732 0.926573 0.986030 -0.622656
H48   H     H_    0.223623 0.931835 0.895196 0.268931
H49   H     H_    0.188981 0.875430 0.004873 0.232589
H50   H     H_    0.180405 0.970033 0.017911 0.265686
O75   O     O_3   0.170506 0.492800 0.991648 -0.538615
C85   C     C_3   0.207255 0.429502 0.960160 0.228303
H51   H     H_    0.217437 0.426934 0.869491 0.201071
H52   H     H_    0.173822 0.382522 0.986694 0.193864
C86   C     C_3   0.283176 0.426374 0.014221 -0.622383
H53   H     H_    0.276099 0.431324 0.105072 0.268670
H54   H     H_    0.311009 0.375314 0.995083 0.232627
H55   H     H_    0.319523 0.469965 0.982842 0.265848
O76   O     O_3   0.829445 0.492901 0.008462 -0.538327
C87   C     C_3   0.792832 0.429488 0.039731 0.227765
H56   H     H_    0.782930 0.426617 0.130441 0.200420
H57   H     H_    0.826238 0.382622 0.012628 0.194037
C88   C     C_3   0.716750 0.426491 0.986125 -0.622442
H58   H     H_    0.723536 0.432046 0.895319 0.269087
H59   H     H_    0.689144 0.375234 0.004638 0.232555
H60   H     H_    0.680346 0.469783 0.018415 0.265445

loop_
_geom_bond_atom_site_label_1
_geom_bond_atom_site_label_2
_geom_bond_distance
_ccdc_geom_bond_type
C6    C28   1.445427 S    
C63   C64   1.411860 A    
C11   N8    1.433747 S    
C32   N28   1.438135 S    
C78   H33   1.109840 S    
C7    C25   1.465360 S    
C46   O33   1.383212 S    
O16   Zn4   2.025668 S    
O2    C2    1.299919 A    
C37   N14   1.439271 S    
N21   O58   1.299970 A    
O40   C79   1.420509 S    
O13   Zn4   2.025653 S    
C49   C57   1.382712 A    
C33   C54   1.414046 A    
C56   C59   1.401870 A    
C19   C63   1.440005 A    
O14   Zn3   2.025655 S    
N15   O45   1.301502 A    
C51   C59   1.382646 A    
O39   C77   1.417544 S    
C29   C37   1.402642 A    
C61   C62   1.411808 A    
C10   N5    1.433774 S    
Zn1   N1    2.027437 S    
O11   C3    1.296122 A    
O76   C87   1.414936 S    
C76   H28   1.109802 S    
C18   C62   1.439863 A    
C12   N7    1.433820 S    
O10   C2    1.290779 A    
C17   C61   1.439967 A    
C11   N4    1.383679 A    
O8    Zn3   2.031218 S    
N26   O68   1.301263 A    
C19   N4    1.372079 A    
C73   H21   1.112774 S    
C82   H45   1.110663 S    
C13   O73   1.386418 S    
C66   H4    1.110459 S    
C88   H58   1.109946 S    
N8    O23   1.301400 A    
O7    C7    1.306086 A    
C50   C58   1.393021 A    
C79   H36   1.111452 S    
C24   C39   1.412529 A    
C87   H57   1.114196 S    
O6    C6    1.299916 A    
C44   N19   1.434525 S    
C29   N25   1.432724 S    
C25   C42   1.421983 A    
Zn3   N3    2.027437 S    
C29   C58   1.414043 A    
C39   N16   1.439394 S    
O75   C85   1.414972 S    
N21   O57   1.300737 A    
N9    O26   1.298647 A    
N17   O50   1.298513 A    
C31   C60   1.414086 A    
C26   C49   1.395533 A    
O5    Zn3   2.031330 S    
C32   C40   1.395569 A    
N12   O31   1.299607 A    
C33   C41   1.402614 A    
C48   O35   1.383156 S    
C10   C14   1.419076 A    
C19   N12   1.428980 S    
O38   C75   1.420479 S    
N7    O21   1.301397 A    
C23   C48   1.409140 A    
N13   O42   1.298520 A    
C54   C57   1.401785 A    
C35   C43   1.402647 A    
C41   N18   1.439247 S    
C85   H52   1.114192 S    
C53   C58   1.401781 A    
C36   C44   1.395590 A    
O3    C3    1.306129 A    
N20   O55   1.300215 A    
C45   O34   1.379682 S    
N5    O18   1.289636 A    
C32   C59   1.404342 A    
C55   C60   1.401884 A    
C86   H55   1.110662 S    
C75   H27   1.118787 S    
O4    Zn1   2.031218 S    
C81   H42   1.114193 S    
O12   Zn2   2.025668 S    
C40   N15   1.434509 S    
N25   O66   1.299989 A    
C68   H8    1.109801 S    
O16   C8    1.290896 A    
C36   C55   1.404376 A    
C80   H38   1.109920 S    
C84   H48   1.109915 S    
C12   N3    1.383731 A    
N11   O30   1.298645 A    
C20   N3    1.372109 A    
C78   H34   1.110456 S    
C72   H18   1.109913 S    
C83   H47   1.114200 S    
C66   H3    1.109849 S    
C22   C37   1.412591 A    
N10   O28   1.298756 A    
N10   O27   1.299591 A    
N14   O44   1.300329 A    
O37   C73   1.417597 S    
C42   N17   1.434501 S    
C73   H22   1.113795 S    
C80   H39   1.110422 S    
C67   C68   1.521056 S    
Zn4   N4    2.027437 S    
O6    Zn4   2.031331 S    
C85   C86   1.522141 S    
C26   C41   1.412566 A    
N23   O61   1.300757 A    
C30   C38   1.395531 A    
N9    O25   1.299616 A    
C12   C16   1.419023 A    
N26   O67   1.301000 A    
C75   C76   1.521068 S    
C45   C53   1.382716 A    
N27   O69   1.300757 A    
C88   H59   1.109696 S    
O35   C69   1.417514 S    
C28   C43   1.412527 A    
C34   C42   1.395542 A    
C31   N27   1.432632 S    
C87   H56   1.110930 S    
N25   O65   1.300746 A    
O15   Zn3   2.025667 S    
C77   H31   1.112809 S    
C33   N21   1.432710 S    
C52   C60   1.392895 A    
C14   C61   1.407415 A    
N18   O52   1.300342 A    
C74   H25   1.109471 S    
Zn2   N2    2.027437 S    
O3    Zn2   2.031217 S    
C69   H12   1.113851 S    
C13   C62   1.407391 A    
C1    C23   1.465268 S    
C36   N24   1.438111 S    
C82   H43   1.109901 S    
C10   N1    1.383715 A    
C2    C24   1.445423 S    
C68   H9    1.110408 S    
C70   H15   1.109422 S    
C73   C74   1.522709 S    
C15   C64   1.407395 A    
C34   C53   1.404306 A    
C65   H2    1.113806 S    
C30   N26   1.438324 S    
N11   O29   1.299623 A    
O12   C4    1.290886 A    
O1    Zn1   2.031330 S    
C16   O76   1.386285 S    
C75   H26   1.111420 S    
O13   C5    1.296242 A    
C81   H41   1.110829 S    
C50   O37   1.383249 S    
C48   C56   1.392887 A    
N28   O72   1.301280 A    
C52   O39   1.383190 S    
O34   C67   1.420473 S    
C71   H17   1.118907 S    
C23   C40   1.421864 A    
C20   N11   1.428944 S    
C35   C56   1.414081 A    
O9    Zn2   2.025653 S    
O9    C1    1.296197 A    
N22   O60   1.301262 A    
C51   O40   1.379607 S    
C15   O75   1.386403 S    
C78   H35   1.109428 S    
N24   O64   1.301284 A    
C84   H49   1.109689 S    
C18   N1    1.372141 A    
C70   H13   1.109832 S    
C74   H24   1.110445 S    
C17   N2    1.372108 A    
C66   H5    1.109455 S    
C69   C70   1.522661 S    
C47   C55   1.382661 A    
C83   H46   1.110915 S    
C28   C51   1.395415 A    
C67   H7    1.118785 S    
N5    O17   1.301402 A    
C30   C57   1.404291 A    
C27   C44   1.421833 A    
N14   O43   1.300206 A    
N23   O62   1.299943 A    
O33   C65   1.417562 S    
O74   C83   1.414947 S    
C80   H40   1.110207 S    
N17   O49   1.301496 A    
C22   C45   1.395530 A    
C9    N6    1.433703 S    
O7    Zn4   2.031217 S    
O73   C81   1.414981 S    
C25   C50   1.409242 A    
C77   C78   1.522667 S    
O1    C1    1.306001 A    
C71   C72   1.521008 S    
C21   C38   1.422019 A    
C17   N10   1.428972 S    
C4    C22   1.445558 S    
N7    O22   1.289618 A    
C65   H1    1.112764 S    
C21   C46   1.409241 A    
C72   H20   1.110180 S    
C76   H30   1.110062 S    
C18   N9    1.428944 S    
C81   C82   1.522134 S    
C35   N23   1.432621 S    
O36   C71   1.420500 S    
N8    O24   1.289606 A    
C43   N20   1.439383 S    
O2    Zn2   2.031331 S    
C11   C15   1.419033 A    
N18   O51   1.300189 A    
C20   C64   1.439893 A    
C88   H60   1.110763 S    
C72   H19   1.110428 S    
C69   H11   1.112802 S    
C67   H6    1.111412 S    
C8    C26   1.445561 S    
C82   H44   1.109740 S    
C77   H32   1.113837 S    
C74   H23   1.109861 S    
O10   Zn1   2.025655 S    
O14   C6    1.290785 A    
N6    O20   1.289624 A    
C9    N2    1.383671 A    
C79   H37   1.118920 S    
C87   C88   1.522140 S    
C68   H10   1.110055 S    
C34   N22   1.438295 S    
C85   H51   1.110841 S    
O15   C7    1.296164 A    
N6    O19   1.301401 A    
O8    C8    1.299886 A    
C86   H54   1.109729 S    
C38   N13   1.434505 S    
N27   O70   1.299946 A    
N24   O63   1.301063 A    
N28   O71   1.301049 A    
C47   O36   1.379608 S    
N12   O32   1.298741 A    
C27   C52   1.409135 A    
C65   C66   1.522699 S    
C49   O38   1.379684 S    
C71   H16   1.111445 S    
N19   O53   1.301504 A    
O4    C4    1.299892 A    
C16   C63   1.407416 A    
C31   C39   1.402650 A    
N22   O59   1.300996 A    
O11   Zn1   2.025667 S    
N15   O46   1.298478 A    
C76   H29   1.110412 S    
N13   O41   1.301496 A    
O5    C5    1.305958 A    
C84   H50   1.110697 S    
C70   H14   1.110462 S    
C24   C47   1.395421 A    
N20   O56   1.300324 A    
C5    C27   1.465264 S    
N16   O47   1.300212 A    
C86   H53   1.109898 S    
C14   O74   1.386318 S    
N16   O48   1.300316 A    
C83   C84   1.522137 S    
C3    C21   1.465360 S    
C9    C13   1.419074 A    
N19   O54   1.298474 A    
C79   C80   1.521015 S    
C46   C54   1.393000 A    
