data_mof_unit_8297.cif
_audit_creation_date              2012-12-10T18:58:43-0500
_audit_creation_method            fapswitch 2.2
_symmetry_space_group_name_H-M    P1
_symmetry_Int_Tables_number       1
_space_group_crystal_system       triclinic
_cell_length_a                    13.021266
_cell_length_b                    10.82475
_cell_length_c                    9.540842
_cell_angle_alpha                 89.801571
_cell_angle_beta                  95.884467
_cell_angle_gamma                 90.2125
_cell_volume                      1337.69842466

loop_
_atom_site_label
_atom_site_type_symbol
_atom_type_description
_atom_site_fract_x
_atom_site_fract_y
_atom_site_fract_z
_atom_type_partial_charge
C1    C     C_R   0.501644 0.262382 0.500432 0.798877
C2    C     C_R   0.027438 0.511812 0.560479 0.164094
C3    C     C_R   0.974166 0.461206 0.436767 0.123137
C4    C     C_R   0.866314 0.447410 0.428033 -0.094315
C5    C     C_R   0.866881 0.540374 0.660994 -0.204447
C6    C     C_R   0.973622 0.548870 0.672350 -0.213228
C7    C     C_R   0.502979 0.063391 0.626608 0.139610
C8    C     C_R   0.511070 0.129406 0.502367 -0.100448
C9    C     C_R   0.532207 0.065212 0.380904 -0.206082
C10   C     C_R   0.531589 0.936491 0.380657 -0.214327
C11   C     C_R   0.510162 0.871058 0.501824 -0.098987
C12   C     C_R   0.300849 0.498530 0.473974 0.800470
C13   C     C_R   0.502478 0.936145 0.626399 0.120068
C14   C     C_3   0.421079 0.929750 0.725924 -0.468692
C15   C     C_3   0.421995 0.069942 0.726375 -0.468227
C16   C     C_R   0.584739 0.539498 0.085231 0.304831
C17   C     C_R   0.420994 0.448470 0.063599 -0.083183
C18   C     C_R   0.420999 0.448416 0.914737 -0.088065
C19   C     C_R   0.584871 0.539243 0.937945 0.274282
C20   C     C_3   0.633971 0.663818 0.938153 -0.512185
C21   C     C_3   0.633327 0.664299 0.097163 -0.511711
C22   C     C_R   0.501315 0.737750 0.500072 0.803325
C23   C     C_R   0.699363 0.496186 0.525664 0.805148
C24   C     C_R   0.812332 0.492608 0.538775 -0.097392
C25   C     C_R   0.188908 0.490121 0.458968 -0.044990
C26   C     C_R   0.030386 0.427125 0.324485 -0.206996
C27   C     C_R   0.136702 0.442508 0.335336 -0.199542
C28   C     C_R   0.134277 0.524751 0.571068 -0.262444
Cu1   Cu    Cu3+1 0.499990 0.499980 0.640670 0.943970
Cu2   Cu    Cu3+1 0.500010 0.500020 0.359330 0.953060
H1    H     H_    0.450202 0.889151 0.829443 0.195120
H2    H     H_    0.348738 0.111385 0.677770 0.194382
H3    H     H_    0.452340 0.109809 0.829705 0.202478
H4    H     H_    0.356318 0.408386 0.110274 0.136822
H5    H     H_    0.356320 0.408180 0.850419 0.143098
H6    H     H_    0.713038 0.660678 0.904520 0.191392
H7    H     H_    0.582804 0.734825 0.884007 0.215134
H8    H     H_    0.711906 0.661816 0.154920 0.203507
H9    H     H_    0.580893 0.734936 0.133857 0.205164
H10   H     H_    0.826748 0.573927 0.747037 0.154455
H11   H     H_    0.992958 0.389248 0.227439 0.149892
H12   H     H_    0.013968 0.587129 0.767518 0.138396
H13   H     H_    0.178303 0.414584 0.248053 0.146644
H14   H     H_    0.174919 0.562426 0.666483 0.145842
H15   H     H_    0.544623 0.113821 0.284617 0.174585
H16   H     H_    0.543405 0.889115 0.284252 0.156149
H17   H     H_    0.347347 0.889496 0.676816 0.198618
N1    N     N_R   0.500660 0.500930 0.148010 -0.189383
N2    N     N_R   0.500660 0.500890 0.852110 -0.189165
O1    O     O_R   0.500000 0.319640 0.618810 -0.577540
O2    O     O_R   0.500010 0.319680 0.381230 -0.581692
O3    O     O_R   0.348990 0.499960 0.599490 -0.592979
O4    O     O_R   0.349000 0.500000 0.361910 -0.590564
O5    O     O_R   0.499990 0.680320 0.618770 -0.580125
O6    O     O_R   0.500000 0.680360 0.381190 -0.584493
O7    O     O_R   0.651000 0.500000 0.638090 -0.583705
O8    O     O_R   0.651010 0.500040 0.400510 -0.573257
C29   C     C_1   0.812310 0.383251 0.308588 0.235526
N3    N     N_1   0.769470 0.331923 0.213519 -0.299913

loop_
_geom_bond_atom_site_label_1
_geom_bond_atom_site_label_2
_ccdc_geom_bond_type
C10   H16   S    
C2    C28   A    
Cu2   O2    S    
C9    H15   S    
C14   H17   S    
Cu1   O7    S    
C25   C27   A    
C1    C8    S    
C11   C13   A    
Cu2   O6    S    
C19   N2    A    
C11   C22   S    
C12   O4    A    
C21   H9    S    
C17   N1    A    
C12   C25   S    
C23   C24   S    
Cu1   O5    S    
C10   C11   A    
C16   N1    A    
C7    C15   S    
C17   C18   A    
C22   O6    A    
C7    C8    A    
C22   O5    A    
C2    C6    A    
C13   C14   S    
C25   C28   A    
C20   H7    S    
C1    O2    A    
C23   O7    A    
C26   C27   A    
C16   C21   S    
C5    C24   A    
C16   C19   A    
C18   H5    S    
Cu2   N1    S    
C12   O3    A    
C28   H14   S    
C1    O1    A    
C2    C3    A    
Cu1   O1    S    
C6    H12   S    
C5    C6    A    
C4    C24   A    
Cu2   O4    S    
C17   H4    S    
Cu1   Cu2   S    
C3    C4    A    
C20   H6    S    
Cu2   O8    S    
C27   H13   S    
C7    C13   A    
C20   C21   S    
C26   H11   S    
C9    C10   A    
C5    H10   S    
C4    C29   S    
C23   O8    A    
C14   H1    S    
C14   C15   S    
Cu1   N2    S    
C29   N3    T    
C15   H3    S    
C3    C26   A    
C21   H8    S    
C19   C20   S    
C18   N2    A    
C8    C9    A    
Cu1   O3    S    
C15   H2    S    
