data_mof_unit_55931.cif
_audit_creation_date              2012-12-10T19:50:19-0500
_audit_creation_method            fapswitch 2.2
_symmetry_space_group_name_H-M    P1
_symmetry_Int_Tables_number       1
_space_group_crystal_system       triclinic
_cell_length_a                    10.807852
_cell_length_b                    19.293998
_cell_length_c                    18.181773
_cell_angle_alpha                 91.031077
_cell_angle_beta                  90.170921
_cell_angle_gamma                 93.263858
_cell_volume                      3784.59137317

loop_
_atom_site_label
_atom_site_type_symbol
_atom_type_description
_atom_site_fract_x
_atom_site_fract_y
_atom_site_fract_z
_atom_type_partial_charge
C1    C     C_R   0.502611 0.367494 0.499233 0.786628
C2    C     C_R   0.543727 0.818694 0.447812 0.459451
C3    C     C_R   0.482377 0.145608 0.490775 -0.088190
C4    C     C_R   0.477416 0.853438 0.502334 -0.113464
C5    C     C_R   0.562542 0.181992 0.441019 -0.088454
C6    C     C_R   0.410917 0.815245 0.556867 -0.080713
C7    C     C_R   0.572366 0.255599 0.443774 -0.076649
C8    C     C_R   0.413714 0.741756 0.556498 -0.080586
C9    C     C_R   0.502943 0.291391 0.496690 -0.162603
C10   C     C_R   0.485241 0.708156 0.502639 -0.177886
C11   C     C_R   0.477547 0.929450 0.500141 0.496530
C12   C     C_R   0.495659 0.632461 0.500741 0.794402
C13   C     C_R   0.479886 0.069436 0.494685 0.520670
C14   C     C_R   0.573524 0.548339 0.277719 0.193575
C15   C     C_R   0.415531 0.457590 0.722403 0.210803
C16   C     C_R   0.262352 0.501619 0.499871 0.776138
C17   C     C_R   0.737607 0.497971 0.500155 0.781085
C18   C     C_R   0.574331 0.547520 0.199694 -0.226930
C19   C     C_R   0.416513 0.457659 0.800442 -0.227565
C20   C     C_R   0.502380 0.498479 0.158654 -0.061743
C21   C     C_R   0.502366 0.499130 0.841321 -0.033548
C22   C     C_R   0.428769 0.450373 0.197946 -0.205460
C23   C     C_R   0.871260 0.496041 0.500338 -0.081690
C24   C     C_R   0.587369 0.540873 0.801910 -0.208736
C25   C     C_R   0.427751 0.450973 0.276031 0.169937
C26   C     C_R   0.586165 0.541517 0.723834 0.172844
C27   C     C_R   0.502958 0.498721 0.924411 0.430776
C28   C     C_R   0.503082 0.498217 0.075559 0.432973
C29   C     C_R   0.255590 0.680347 0.353294 -0.179063
C30   C     C_R   0.731490 0.329225 0.655093 -0.204063
C31   C     C_R   0.202163 0.637469 0.406951 -0.088257
C32   C     C_R   0.790223 0.366923 0.599197 -0.105268
C33   C     C_R   0.127272 0.578469 0.386493 0.045078
C34   C     C_R   0.128661 0.502769 0.499704 -0.084412
C35   C     C_R   0.872585 0.423667 0.616425 0.068620
C36   C     C_R   0.106135 0.563135 0.311554 -0.195554
C37   C     C_R   0.898460 0.440896 0.690578 -0.237628
C38   C     C_R   0.161373 0.604983 0.257182 0.519363
C39   C     C_R   0.838549 0.403126 0.747937 0.516837
C40   C     C_R   0.234826 0.664752 0.278829 -0.219169
C41   C     C_R   0.755561 0.347221 0.728662 -0.148131
C42   C     C_R   0.935894 0.530543 0.444013 -0.222654
C43   C     C_R   0.064112 0.467902 0.555802 -0.240845
C44   C     C_2   0.655639 0.295751 0.392736 0.374251
C45   C     C_R   0.935543 0.463800 0.556939 0.037428
C46   C     C_2   0.341711 0.699613 0.611257 0.361153
C47   C     C_2   0.656336 0.602519 0.314677 0.331325
C48   C     C_2   0.321076 0.409527 0.685573 0.301812
C49   C     C_2   0.346404 0.396634 0.311396 0.402959
C50   C     C_2   0.680733 0.588865 0.688371 0.384330
C51   C     C_3   0.234315 0.592781 0.137364 0.045031
C52   C     C_3   0.222043 0.650191 0.081311 -0.347587
C53   C     C_3   0.329479 0.652339 0.027014 -0.856540
C54   C     C_3   0.912160 0.481064 0.842720 0.051090
C55   C     C_3   0.053396 0.480497 0.851125 -0.346148
C56   C     C_R   0.064417 0.535318 0.443484 0.031570
C57   C     C_3   0.110440 0.552293 0.872116 -0.859410
C58   C     C_3   0.208153 0.167268 0.584168 0.062965
C59   C     C_3   0.169835 0.198997 0.657942 -0.324533
C60   C     C_3   0.044486 0.231370 0.652326 -0.840031
C61   C     C_3   0.526525 0.864943 0.333349 0.062091
C62   C     C_3   0.538071 0.807565 0.274701 -0.339577
C63   C     C_3   0.461478 0.821226 0.206383 -0.883045
C64   C     C_2   0.636963 0.143624 0.386667 0.493001
C65   C     C_2   0.336833 0.851317 0.613214 0.490901
C66   C     C_R   0.424502 0.254597 0.544738 -0.296785
C67   C     C_R   0.549682 0.747057 0.449663 -0.262353
C68   C     C_R   0.409128 0.182206 0.540275 0.462198
Cu1   Cu    Cu3+1 0.499990 0.499980 0.573360 0.921545
Cu2   Cu    Cu3+1 0.500010 0.500020 0.426640 0.922340
H1    H     H_    0.274113 0.699880 0.238378 0.141284
H2    H     H_    0.771896 0.351816 0.542455 0.094582
H3    H     H_    0.046301 0.518487 0.295273 0.160121
H4    H     H_    0.965531 0.483398 0.702098 0.147825
H5    H     H_    0.886098 0.556652 0.401795 0.153883
H6    H     H_    0.113962 0.441849 0.597939 0.167019
H7    H     H_    0.372049 0.282610 0.584836 0.150755
H8    H     H_    0.605602 0.721654 0.409161 0.184211
H9    H     H_    0.705819 0.342968 0.411939 0.068707
H10   H     H_    0.294385 0.650746 0.594509 0.082134
H11   H     H_    0.683272 0.599664 0.371220 0.128250
H12   H     H_    0.709902 0.316968 0.771351 0.167798
H13   H     H_    0.320866 0.398822 0.627678 0.132704
H14   H     H_    0.316958 0.400835 0.367444 0.121266
H15   H     H_    0.675735 0.602489 0.631676 0.142644
H16   H     H_    0.235026 0.542201 0.107232 0.186115
H17   H     H_    0.325281 0.599788 0.166408 0.128062
H18   H     H_    0.133565 0.640904 0.050423 0.240910
H19   H     H_    0.220151 0.701289 0.110283 0.221466
H20   H     H_    0.418981 0.662306 0.056613 0.263742
H21   H     H_    0.318222 0.694633 0.987359 0.270836
H22   H     H_    0.330900 0.602364 0.995875 0.264361
H23   H     H_    0.632413 0.585444 0.170582 0.206769
H24   H     H_    0.873256 0.494741 0.897233 0.190396
H25   H     H_    0.883532 0.522390 0.805476 0.166314
H26   H     H_    0.076061 0.443326 0.894506 0.249239
H27   H     H_    0.095685 0.462944 0.799041 0.250507
H28   H     H_    0.090953 0.590082 0.828780 0.277452
H29   H     H_    0.212426 0.549889 0.877864 0.260956
H30   H     H_    0.072334 0.570298 0.925352 0.259460
H31   H     H_    0.146351 0.120359 0.572396 0.184258
H32   H     H_    0.191968 0.203885 0.538638 0.127270
H33   H     H_    0.164427 0.157925 0.700087 0.240401
H34   H     H_    0.349920 0.424521 0.829758 0.202698
H35   H     H_    0.240448 0.239628 0.676484 0.248766
H36   H     H_    0.049451 0.274537 0.612599 0.252605
H37   H     H_    0.018510 0.252620 0.706948 0.282685
H38   H     H_    0.971689 0.191715 0.634202 0.249922
H39   H     H_    0.555218 0.915607 0.308711 0.212834
H40   H     H_    0.427477 0.868521 0.349739 0.119088
H41   H     H_    0.636874 0.804586 0.258814 0.270080
H42   H     H_    0.505194 0.756704 0.297135 0.220462
H43   H     H_    0.362326 0.824761 0.221092 0.252522
H44   H     H_    0.469339 0.777941 0.165860 0.262602
H45   H     H_    0.370995 0.412071 0.167493 0.205757
H46   H     H_    0.495747 0.870394 0.180614 0.275558
H47   H     H_    0.731108 0.162105 0.374187 0.093048
H48   H     H_    0.248084 0.828314 0.630721 0.094202
H49   H     H_    0.654887 0.573747 0.832333 0.191963
H50   H     H_    0.311072 0.726565 0.369492 0.147624
H51   H     H_    0.667675 0.285597 0.641391 0.167013
H52   H     H_    0.216837 0.651004 0.464436 0.095182
N1    N     N_R   0.587414 0.036829 0.500041 -0.224446
N2    N     N_R   0.583420 0.541268 0.037831 -0.230266
N3    N     N_R   0.369778 0.961929 0.495146 -0.232324
N4    N     N_R   0.586314 0.967994 0.502443 -0.159084
N5    N     N_R   0.370918 0.030863 0.492573 -0.182529
N6    N     N_R   0.500010 0.500050 0.316380 -0.251345
N7    N     N_R   0.499990 0.499950 0.683620 -0.250026
N8    N     N_R   0.422761 0.455373 0.035717 -0.232448
N9    N     N_R   0.583467 0.541466 0.964252 -0.234973
N10   N     N_R   0.422628 0.455676 0.962149 -0.233091
O1    O     O_R   0.500010 0.400130 0.561970 -0.597999
O2    O     O_2   0.338349 0.717640 0.675898 -0.525379
O3    O     O_2   0.698404 0.652666 0.280906 -0.584462
O4    O     O_2   0.239154 0.379456 0.720942 -0.608684
O5    O     O_2   0.308942 0.344690 0.276848 -0.534588
O6    O     O_2   0.768428 0.614960 0.723588 -0.585958
O7    O     O_3   0.129834 0.589992 0.184304 -0.602365
O8    O     O_3   0.861813 0.413963 0.822996 -0.606746
O9    O     O_3   0.331554 0.146041 0.588933 -0.587620
O10   O     O_3   0.607236 0.854986 0.393347 -0.584464
O11   O     O_2   0.592682 0.092191 0.353911 -0.522394
O12   O     O_R   0.499990 0.599870 0.438030 -0.597898
O13   O     O_2   0.375561 0.905986 0.642037 -0.499957
O14   O     O_R   0.500020 0.400160 0.438070 -0.595184
O15   O     O_R   0.499980 0.599840 0.561930 -0.603112
O16   O     O_R   0.319640 0.499990 0.561950 -0.611713
O17   O     O_R   0.680360 0.500010 0.438050 -0.611405
O18   O     O_R   0.319650 0.500020 0.438050 -0.600399
O19   O     O_R   0.680350 0.499980 0.561950 -0.594514
O20   O     O_2   0.665095 0.278250 0.328226 -0.507362

loop_
_geom_bond_atom_site_label_1
_geom_bond_atom_site_label_2
_ccdc_geom_bond_type
C19   C21   A    
C30   C32   A    
C37   H4    S    
C34   C56   A    
C23   C45   A    
C40   H1    S    
C49   O5    D    
C27   N9    A    
C14   C18   A    
C2    C4    A    
C3    C68   A    
Cu2   O18   S    
C61   H39   S    
C1    O14   A    
C39   C41   A    
C10   C67   A    
C15   C19   A    
Cu2   O17   S    
C42   H5    S    
C17   C23   S    
C23   C42   A    
C49   H14   S    
C11   N3    A    
C25   N6    A    
C24   C26   A    
C26   C50   S    
C13   N1    A    
C66   C68   A    
C57   H28   S    
C57   H29   S    
C33   C36   A    
C14   N6    A    
C9    C66   A    
C50   H15   S    
C42   C56   A    
C39   O8    S    
C63   H44   S    
C6    C65   S    
C54   O8    S    
C62   H41   S    
C22   C25   A    
C53   H21   S    
C38   O7    S    
C31   C33   A    
C30   C41   A    
Cu2   O14   S    
C28   N8    A    
C61   C62   S    
C60   H38   S    
C16   C34   S    
C33   C56   S    
C21   C27   S    
C59   C60   S    
C38   C40   A    
Cu1   O16   S    
C27   N10   A    
C52   H19   S    
C17   O19   A    
C67   H8    S    
C15   C48   S    
C1    O1    A    
C61   H40   S    
C51   H16   S    
C8    C46   S    
C37   C39   A    
C29   H50   S    
C26   N7    A    
C51   C52   S    
Cu1   O19   S    
C32   C35   A    
C52   H18   S    
C11   N4    A    
C1    C9    S    
C4    C6    A    
C2    C67   A    
C51   H17   S    
C5    C7    A    
N1    N4    A    
C6    C8    A    
C20   C28   S    
C58   C59   S    
C57   H30   S    
C64   H47   S    
C12   O12   A    
N2    N9    A    
C13   N5    A    
N8    N10   A    
C62   C63   S    
C46   O2    D    
C19   H34   S    
C15   N7    A    
C30   H51   S    
C65   H48   S    
C55   H27   S    
C53   H22   S    
C28   N2    A    
C68   O9    S    
C58   H31   S    
C59   H35   S    
C7    C44   S    
C4    C11   S    
C43   C45   A    
C54   H25   S    
C60   H37   S    
C10   C12   S    
C58   H32   S    
C63   H46   S    
Cu1   N7    S    
C22   H45   S    
C20   C22   A    
C55   C57   S    
Cu1   O15   S    
C65   O13   D    
C35   C45   S    
C60   H36   S    
C52   C53   S    
C12   O15   A    
Cu2   N6    S    
C43   H6    S    
C7    C9    A    
C66   H7    S    
C54   C55   S    
C24   H49   S    
Cu1   O1    S    
C47   O3    D    
C48   O4    D    
C44   H9    S    
C17   O17   A    
C34   C43   A    
C31   H52   S    
C55   H26   S    
C3    C5    A    
C3    C13   S    
C50   O6    D    
C14   C47   S    
C64   O11   D    
Cu2   O12   S    
C44   O20   D    
C48   H13   S    
C16   O16   A    
C59   H33   S    
C36   C38   A    
C35   C37   A    
C29   C31   A    
C46   H10   S    
C58   O9    S    
C2    O10   S    
C41   H12   S    
C29   C40   A    
C18   C20   A    
C47   H11   S    
Cu1   Cu2   S    
C25   C49   S    
C54   H24   S    
C36   H3    S    
C63   H43   S    
C61   O10   S    
C62   H42   S    
C5    C64   S    
C8    C10   A    
C21   C24   A    
C53   H20   S    
N3    N5    A    
C18   H23   S    
C16   O18   A    
C32   H2    S    
C51   O7    S    
