data_mof_unit_17751.cif
_audit_creation_date              2012-12-10T18:11:47-0500
_audit_creation_method            fapswitch 2.2
_symmetry_space_group_name_H-M    P1
_symmetry_Int_Tables_number       1
_space_group_crystal_system       triclinic
_cell_length_a                    10.505494
_cell_length_b                    12.644906
_cell_length_c                    13.212919
_cell_angle_alpha                 82.525514
_cell_angle_beta                  90.688758
_cell_angle_gamma                 102.79456
_cell_volume                      1696.83602413

loop_
_atom_site_label
_atom_site_type_symbol
_atom_type_description
_atom_site_fract_x
_atom_site_fract_y
_atom_site_fract_z
_atom_type_partial_charge
C1    C     C_R   0.485675 0.439191 0.690930 0.904655
C2    C     C_R   0.545736 0.475422 0.961614 -0.049759
C3    C     C_R   0.476154 0.472892 0.869541 -0.052712
C4    C     C_R   0.742182 0.500988 0.500404 1.005395
C5    C     C_R   0.521407 0.546284 0.030230 -0.011416
C6    C     C_R   0.450732 0.627969 0.997311 0.086178
C7    C     C_R   0.386637 0.626407 0.904688 -0.145773
C8    C     C_R   0.391166 0.544659 0.845528 -0.075403
C9    C     C_R   0.549489 0.529181 0.133983 0.651335
C10   C     C_R   0.470274 0.689393 0.163254 -0.236428
C11   C     C_R   0.500024 0.404555 0.799100 -0.244183
C12   C     C_3   0.061583 0.576268 0.428219 0.519656
C13   C     C_R   0.314139 0.085061 0.352511 -0.261421
C14   C     C_R   0.651005 0.798431 0.631914 0.646826
C15   C     C_R   0.675410 0.899837 0.666321 0.509551
C16   C     C_R   0.515827 0.560834 0.309171 0.931737
C17   C     C_R   0.615216 0.980382 0.619632 -0.293432
C18   C     C_R   0.532951 0.961347 0.535187 -0.044998
C19   C     C_R   0.507143 0.854558 0.505880 0.064101
C20   C     C_R   0.472207 0.041632 0.480741 -0.066806
C21   C     C_R   0.379818 0.010002 0.404374 0.074383
C22   C     C_R   0.354594 0.904066 0.379140 -0.177039
C23   C     C_3   0.987764 0.599927 0.519686 -0.205027
C24   C     C_R   0.419158 0.828329 0.427895 -0.087706
C25   C     C_R   0.499579 0.152854 0.496244 0.742425
C26   C     C_R   0.341350 0.191523 0.374978 -0.010212
C27   C     C_R   0.257777 0.498941 0.499811 0.928702
C28   C     C_3   0.936768 0.422182 0.574222 -0.231232
C29   C     C_3   0.049816 0.519553 0.592472 -0.279466
C30   C     C_3   0.122315 0.497264 0.500019 -0.298101
C31   C     C_3   0.011428 0.401417 0.481841 0.594787
C32   C     C_3   0.950411 0.480392 0.409798 0.545044
C33   C     C_3   0.877542 0.502430 0.501185 -0.298346
C34   C     C_R   0.434282 0.703651 0.061791 -0.141659
C35   C     C_R   0.518788 0.597595 0.200466 -0.196243
C36   C     C_R   0.576516 0.327604 0.826575 0.564659
C37   C     C_R   0.648039 0.332442 0.915377 -0.329157
C38   C     C_R   0.640760 0.410812 0.978493 0.673975
F1    F     F_    0.585340 0.435861 0.174294 -0.582408
F2    F     F_    0.598784 0.259707 0.760499 -0.600279
F3    F     F_    0.737829 0.431565 0.046702 -0.552565
F4    F     F_    0.595467 0.196471 0.557454 -0.618685
F5    F     F_    0.709295 0.719721 0.677698 -0.602002
F6    F     F_    0.755337 0.919600 0.746356 -0.587261
F7    F     F_    0.026564 0.300250 0.461696 -0.598382
F8    F     F_    0.895664 0.460879 0.316438 -0.552231
F9    F     F_    0.129284 0.653824 0.352909 -0.653118
H1    H     H_    0.330877 0.540496 0.778455 0.132156
H2    H     H_    0.974743 0.681331 0.534573 0.218715
H3    H     H_    0.447223 0.743071 0.214435 0.188913
H4    H     H_    0.326139 0.684116 0.881061 0.149745
H5    H     H_    0.384665 0.768593 0.035962 0.172921
H6    H     H_    0.094913 0.535156 0.667076 0.196532
H7    H     H_    0.718470 0.281701 0.930590 0.221685
H8    H     H_    0.290906 0.250588 0.336185 0.190745
H9    H     H_    0.285674 0.879875 0.320136 0.193502
H10   H     H_    0.242594 0.061569 0.295083 0.184974
H11   H     H_    0.881346 0.359159 0.633642 0.234263
H12   H     H_    0.632247 0.054326 0.654248 0.290903
H13   H     H_    0.397477 0.749111 0.403588 0.222038
N1    N     N_R   0.432930 0.222190 0.444670 -0.157062
N2    N     N_R   0.566370 0.776980 0.554790 -0.221033
O1    O     O_R   0.467970 0.366730 0.627150 -0.539778
O2    O     O_R   0.510820 0.544830 0.662520 -0.581932
O3    O     O_R   0.664630 0.410960 0.482340 -0.526224
O4    O     O_R   0.707470 0.589060 0.517710 -0.584160
O5    O     O_R   0.489180 0.455170 0.337480 -0.558600
O6    O     O_R   0.532030 0.633270 0.372850 -0.658397
O7    O     O_R   0.292530 0.410940 0.482290 -0.596758
O8    O     O_R   0.335370 0.589040 0.517660 -0.640799
Zn1   Zn    Zn3+2 0.471390 0.381080 0.476380 1.109291
Zn2   Zn    Zn3+2 0.528610 0.618920 0.523620 0.998403

loop_
_geom_bond_atom_site_label_1
_geom_bond_atom_site_label_2
_ccdc_geom_bond_type
C1    C11   S    
C26   H8    S    
C7    C8    A    
C12   C23   S    
C29   C30   S    
C23   C29   S    
C36   C37   A    
C26   N1    A    
C15   F6    S    
C16   C35   S    
C4    O3    A    
C23   H2    S    
C13   H10   S    
C20   C25   A    
C19   N2    A    
C14   N2    A    
C9    F1    S    
C18   C19   A    
O7    Zn1   S    
O4    Zn2   S    
C23   C33   S    
C10   C35   A    
C16   O6    A    
C18   C20   A    
C27   O7    A    
C24   H13   S    
N1    Zn1   S    
C21   C22   A    
C12   C32   S    
C27   C30   S    
C12   F9    S    
C1    O1    A    
N2    Zn2   S    
C36   F2    S    
C38   F3    S    
C3    C8    A    
C22   H9    S    
O3    Zn1   S    
C6    C34   A    
C11   C36   A    
C8    H1    S    
C5    C9    A    
C37   C38   A    
C2    C38   A    
C31   C32   S    
C30   C31   S    
O6    Zn2   S    
C17   C18   A    
C13   C21   A    
C10   C34   A    
C16   O5    A    
C25   N1    A    
C27   O8    A    
C17   H12   S    
C37   H7    S    
O1    Zn1   S    
C28   C33   S    
C22   C24   A    
C13   C26   A    
C2    C5    A    
C10   H3    S    
C1    O2    A    
C15   C17   A    
C4    C33   S    
C28   C29   S    
C12   C30   S    
C32   F8    S    
C28   C31   S    
C25   F4    S    
C6    C7    A    
C28   H11   S    
C34   H5    S    
C32   C33   S    
C19   C24   A    
C7    H4    S    
C4    O4    A    
C5    C6    A    
C29   H6    S    
C2    C3    A    
O5    Zn1   S    
O2    Zn2   S    
C3    C11   A    
C20   C21   A    
C31   F7    S    
C9    C35   A    
C14   C15   A    
O8    Zn2   S    
C14   F5    S    
