data_mof_unit_21412.cif
_audit_creation_date              2012-12-10T17:42:44-0500
_audit_creation_method            fapswitch 2.2
_symmetry_space_group_name_H-M    P1
_symmetry_Int_Tables_number       1
_space_group_crystal_system       triclinic
_cell_length_a                    9.987257
_cell_length_b                    10.600032
_cell_length_c                    13.042405
_cell_angle_alpha                 92.815788
_cell_angle_beta                  69.055116
_cell_angle_gamma                 90.858931
_cell_volume                      1287.94300071

loop_
_atom_site_label
_atom_site_type_symbol
_atom_type_description
_atom_site_fract_x
_atom_site_fract_y
_atom_site_fract_z
_atom_type_partial_charge
C1    C     C_R   0.500016 0.739186 0.501591 0.906662
C2    C     C_R   0.367439 0.476269 0.822886 -0.110298
C3    C     C_R   0.334572 0.878223 0.702664 -0.127759
C4    C     C_R   0.419578 0.492313 0.704175 0.854194
C5    C     C_R   0.251412 0.948368 0.796603 -0.112074
C6    C     C_R   0.246486 0.079469 0.795263 -0.125780
C7    C     C_R   0.325324 0.140750 0.700144 -0.189968
C8    C     C_R   0.409926 0.070892 0.604245 0.087431
C9    C     C_R   0.413435 0.938907 0.605189 0.110950
C10   C     C_R   0.498693 0.871885 0.508362 -0.061337
C11   C     C_R   0.581904 0.931394 0.414175 -0.167389
C12   C     C_R   0.432756 0.470270 0.984365 0.102065
C13   C     C_R   0.579262 0.060240 0.413594 -0.211627
C14   C     C_R   0.493900 0.128714 0.507110 -0.090497
C15   C     C_R   0.788327 0.626564 0.682601 0.454877
C16   C     C_R   0.498518 0.260891 0.501254 0.842283
C17   C     C_R   0.821573 0.653223 0.776732 -0.164124
C18   C     C_R   0.962731 0.659286 0.768324 -0.290674
C19   C     C_R   0.068552 0.624211 0.669612 -0.126083
C20   C     C_R   0.035445 0.561015 0.584877 0.109299
C21   C     C_R   0.890446 0.562607 0.586849 -0.018990
C22   C     C_R   0.965191 0.438186 0.419004 0.494712
C23   C     C_R   0.462630 0.436161 0.872932 0.093063
C24   C     C_R   0.108926 0.442100 0.418004 -0.193982
C25   C     C_R   0.580771 0.502016 0.295434 0.909751
C26   C     C_R   0.777658 0.376417 0.010122 -0.203032
C27   C     C_R   0.632076 0.491221 0.176039 -0.120268
C28   C     C_R   0.228294 0.514880 0.888674 -0.226871
C29   C     C_R   0.188062 0.522407 0.002531 -0.145583
C30   C     C_R   0.290078 0.502897 0.050363 -0.096620
C31   C     C_3   0.956063 0.246396 0.333453 0.090187
C32   C     C_3   0.951610 0.183603 0.227312 -0.841539
C33   C     C_R   0.545011 0.463759 0.026117 -0.016857
C34   C     C_R   0.670926 0.393371 0.965531 0.134333
C35   C     C_R   0.687981 0.340462 0.861674 -0.215750
C36   C     C_R   0.586011 0.362922 0.815116 -0.201687
C37   C     C_R   0.538631 0.527180 0.124700 0.296012
C38   C     C_R   0.755695 0.421478 0.116934 -0.279718
Cl1   Cl    Cl    0.659563 0.736844 0.683537 -0.627622
Cl2   Cl    Cl    0.435885 0.667171 0.175885 -0.635861
H1    H     H_    0.832202 0.398562 0.154484 0.211851
H2    H     H_    0.781908 0.284415 0.815241 0.152924
H3    H     H_    0.194074 0.397105 0.349924 0.160332
H4    H     H_    0.873953 0.322724 0.964829 0.150811
H5    H     H_    0.151598 0.540408 0.852219 0.162183
H6    H     H_    0.255044 0.509100 0.139023 0.185171
H7    H     H_    0.079335 0.548384 0.053560 0.163869
H8    H     H_    0.602903 0.319590 0.734593 0.169967
H9    H     H_    0.646730 0.877701 0.340606 0.157941
H10   H     H_    0.869418 0.206081 0.404054 0.174277
H11   H     H_    0.061397 0.221858 0.338543 0.127488
H12   H     H_    0.338723 0.776968 0.707635 0.134943
H13   H     H_    0.037549 0.222532 0.155640 0.253342
H14   H     H_    0.968079 0.080195 0.227069 0.225707
H15   H     H_    0.846323 0.200238 0.219799 0.243320
H16   H     H_    0.191402 0.900912 0.870760 0.141448
H17   H     H_    0.182256 0.133925 0.868281 0.138751
H18   H     H_    0.319688 0.242519 0.702550 0.134156
H19   H     H_    0.641932 0.106826 0.339699 0.148259
H20   H     H_    0.741715 0.693840 0.851007 0.198594
H21   H     H_    0.990493 0.701180 0.835457 0.166218
H22   H     H_    0.175174 0.650541 0.660126 0.201806
N1    N     N_R   0.856860 0.501200 0.500990 -0.141746
N2    N     N_R   0.142450 0.501280 0.501020 -0.119965
O1    O     O_R   0.385310 0.683220 0.500000 -0.620157
O2    O     O_R   0.614640 0.683250 0.500010 -0.547144
O3    O     O_R   0.328400 0.499950 0.653610 -0.653282
O4    O     O_R   0.557730 0.499970 0.653620 -0.585331
O5    O     O_R   0.385360 0.316750 0.499990 -0.613861
O6    O     O_R   0.614690 0.316780 0.500000 -0.619096
O7    O     O_R   0.442270 0.500030 0.346380 -0.577285
O8    O     O_R   0.671600 0.500050 0.346390 -0.573920
O9    O     O_3   0.935925 0.378197 0.332781 -0.602353
Zn1   Zn    Zn3+2 0.346880 0.499980 0.499990 0.957618
Zn2   Zn    Zn3+2 0.653120 0.500020 0.500010 1.009334

loop_
_geom_bond_atom_site_label_1
_geom_bond_atom_site_label_2
_ccdc_geom_bond_type
C5    H16   S    
C35   C36   A    
C26   H4    S    
C7    C8    A    
O4    Zn2   S    
C12   C23   A    
C29   H7    S    
C3    C9    A    
C28   C29   A    
C34   C35   A    
C37   Cl2   S    
C5    C6    A    
C31   O9    S    
C27   C38   A    
C17   C18   A    
C18   C19   A    
C35   H2    S    
C22   N1    A    
C26   C34   A    
C19   C20   A    
C8    C9    A    
C1    O1    A    
C25   O7    A    
C9    C10   A    
C7    H18   S    
C24   N2    A    
C13   C14   A    
C6    H17   S    
O8    Zn2   S    
C32   H14   S    
C33   C34   A    
C28   H5    S    
C1    C10   S    
C16   O6    A    
C38   H1    S    
C25   O8    A    
C26   C38   A    
C33   C37   A    
O1    Zn1   S    
C20   N2    A    
C2    C4    S    
C29   C30   A    
C11   H9    S    
C4    O3    A    
C31   C32   S    
C1    O2    A    
O5    Zn1   S    
O3    Zn1   S    
C15   Cl1   S    
C14   C16   S    
C31   H10   S    
C32   H13   S    
O6    Zn2   S    
C4    O4    A    
C15   C17   A    
C8    C14   A    
C32   H15   S    
C12   C30   A    
C30   H6    S    
C16   O5    A    
C31   H11   S    
C3    C5    A    
O7    Zn1   S    
C3    H12   S    
C18   H21   S    
C6    C7    A    
C13   H19   S    
C25   C27   S    
C11   C13   A    
N1    Zn2   S    
C27   C37   A    
O2    Zn2   S    
C36   H8    S    
C22   C24   A    
C21   N1    A    
C10   C11   A    
C17   H20   S    
C15   C21   A    
C20   C21   A    
C23   C36   A    
C2    C23   A    
C24   H3    S    
N2    Zn1   S    
C2    C28   A    
C19   H22   S    
C22   O9    S    
C12   C33   A    
