data_mof_unit_65488.cif
_audit_creation_date              2012-12-10T18:16:20-0500
_audit_creation_method            fapswitch 2.2
_symmetry_space_group_name_H-M    P1
_symmetry_Int_Tables_number       1
_space_group_crystal_system       triclinic
_cell_length_a                    42.397729
_cell_length_b                    29.209104
_cell_length_c                    29.202742
_cell_angle_alpha                 90.000141
_cell_angle_beta                  133.864791
_cell_angle_gamma                 89.997907
_cell_volume                      26073.8954231

loop_
_atom_site_label
_atom_site_type_symbol
_atom_type_description
_atom_site_fract_x
_atom_site_fract_y
_atom_site_fract_z
_atom_type_partial_charge
Br1   Br    Br    0.284857 0.586020 0.223356 -0.498769
Br2   Br    Br    0.284657 0.407144 0.233305 -0.499234
Br3   Br    Br    0.783942 0.091621 0.231135 -0.477477
Br4   Br    Br    0.783967 0.909856 0.228595 -0.477267
Br5   Br    Br    0.282293 0.505735 0.387392 -0.498156
Br6   Br    Br    0.784310 0.998473 0.389741 -0.552072
C1    C     C_R   0.499972 0.586678 0.499993 0.907769
C2    C     C_1   0.834605 0.999981 0.335098 0.137226
C3    C     C_3   0.761336 0.962691 0.238281 0.212229
C4    C     C_1   0.372616 0.499886 0.372974 -0.136353
C5    C     C_1   0.872613 0.999993 0.373101 -0.135756
C6    C     C_1   0.121190 0.499976 0.120249 -0.167733
C7    C     C_1   0.621196 0.999995 0.120193 -0.168158
C8    C     C_3   0.260718 0.502236 0.303277 0.078170
C9    C     C_3   0.760555 0.999353 0.304144 0.013384
C10   C     C_3   0.289106 0.499719 0.288246 -0.134990
C11   C     C_3   0.789093 0.999974 0.289223 -0.136342
C12   C     C_3   0.244903 0.610609 0.292650 0.161273
C13   C     C_1   0.159189 0.499908 0.157410 0.122526
C14   C     C_3   0.229674 0.639586 0.317536 -0.767249
C15   C     C_3   0.244610 0.395194 0.304562 0.161421
C16   C     C_3   0.229304 0.370982 0.332378 -0.767574
C17   C     C_3   0.744095 0.101987 0.309049 0.169314
C18   C     C_3   0.729276 0.151675 0.294732 -0.776549
C19   C     C_3   0.744126 0.896158 0.306174 0.169380
C20   C     C_3   0.729386 0.846450 0.290432 -0.776506
C21   C     C_1   0.659200 0.999991 0.157456 0.123450
C22   C     C_1   0.499952 0.637262 0.499946 -0.206168
C23   C     C_1   0.499950 0.362738 0.499944 -0.205683
C24   C     C_1   0.999951 0.137262 0.499946 -0.205699
C25   C     C_1   0.999949 0.862738 0.499944 -0.205775
C26   C     C_1   0.499940 0.679400 0.499928 0.015864
C27   C     C_1   0.499937 0.320600 0.499925 0.016507
C28   C     C_1   0.999939 0.179399 0.499927 0.016526
C29   C     C_R   0.499972 0.413322 0.499992 0.908288
C30   C     C_1   0.999936 0.820600 0.499924 0.016439
C31   C     C_1   0.499935 0.729136 0.499926 0.016821
C32   C     C_1   0.499931 0.270864 0.499921 0.017362
C33   C     C_1   0.999934 0.229135 0.499925 0.017394
C34   C     C_1   0.999929 0.770864 0.499920 0.017334
C35   C     C_1   0.499937 0.771272 0.499935 0.015265
C36   C     C_1   0.499932 0.228728 0.499929 0.015649
C37   C     C_1   0.999936 0.271272 0.499934 0.015659
C38   C     C_1   0.999931 0.728728 0.499928 0.015641
C39   C     C_1   0.499944 0.821009 0.499952 0.012023
C40   C     C_R   0.999972 0.086678 0.499992 0.908171
C41   C     C_1   0.499939 0.178991 0.499946 0.012284
C42   C     C_1   0.999944 0.321009 0.499952 0.012282
C43   C     C_1   0.999938 0.678991 0.499945 0.012299
C44   C     C_1   0.499951 0.863147 0.499968 -0.206194
C45   C     C_1   0.499946 0.136853 0.499963 -0.206022
C46   C     C_1   0.999951 0.363147 0.499968 -0.206001
C47   C     C_1   0.999946 0.636853 0.499963 -0.205968
C48   C     C_R   0.417132 0.500040 0.417296 0.941186
C49   C     C_R   0.917131 0.000006 0.417307 0.941156
C50   C     C_1   0.635843 0.500001 0.635531 -0.213846
C51   C     C_R   0.999972 0.913322 0.499992 0.908158
C52   C     C_1   0.135843 0.000001 0.635531 -0.213876
C53   C     C_1   0.677114 0.500001 0.676782 0.021755
C54   C     C_1   0.177114 0.000001 0.676782 0.021743
C55   C     C_1   0.726260 0.500002 0.725986 0.008900
C56   C     C_1   0.226260 0.000002 0.725986 0.008904
C57   C     C_1   0.767532 0.500002 0.767332 0.008918
C58   C     C_1   0.267532 0.000002 0.767332 0.008933
C59   C     C_1   0.816679 0.500003 0.816581 0.021838
C60   C     C_1   0.316679 0.000003 0.816581 0.021866
C61   C     C_1   0.857950 0.500003 0.857937 -0.214789
C62   C     C_3   0.204701 0.499812 0.202666 -0.065667
C63   C     C_1   0.357950 0.000003 0.857937 -0.214748
C64   C     C_R   0.994870 0.500000 0.081687 0.910487
C65   C     C_R   0.494870 0.000000 0.081688 0.909858
C66   C     C_R   0.076680 0.499997 0.076860 0.941269
C67   C     C_R   0.576680 0.999999 0.076728 0.940469
C68   C     C_R   0.992983 0.500000 0.906352 0.905667
C69   C     C_R   0.492982 1.000000 0.906351 0.905661
C70   C     C_R   0.907986 0.500001 0.908065 0.887005
C71   C     C_R   0.407986 0.000001 0.908065 0.886986
C72   C     C_R   0.585810 0.500000 0.585713 0.884647
C73   C     C_3   0.704718 0.999987 0.202876 -0.063190
C74   C     C_R   0.085810 0.000000 0.585713 0.884644
C75   C     C_R   0.499055 0.000000 0.412868 0.896357
C76   C     C_R   0.999056 0.500000 0.412868 0.896318
C77   C     C_R   0.499958 0.913731 0.499984 0.895861
C78   C     C_R   0.499956 0.086269 0.499982 0.895886
C79   C     C_R   0.999958 0.413731 0.499984 0.895824
C80   C     C_R   0.999956 0.586269 0.499982 0.895858
C81   C     C_R   0.500791 0.000000 0.587079 0.895482
C82   C     C_R   0.000791 0.500000 0.587079 0.895456
C83   C     C_1   0.995616 0.500000 0.133005 -0.208140
C84   C     C_3   0.232655 0.497292 0.187132 -0.274833
C85   C     C_1   0.495614 0.000000 0.133003 -0.208960
C86   C     C_1   0.996245 0.500000 0.175767 0.015208
C87   C     C_1   0.496243 0.000000 0.175764 0.014675
C88   C     C_1   0.996978 0.500000 0.226224 0.016931
C89   C     C_1   0.496975 0.000000 0.226221 0.016624
C90   C     C_1   0.497570 0.000000 0.268948 0.015508
C91   C     C_1   0.997572 0.500000 0.268951 0.015684
C92   C     C_1   0.498218 0.000000 0.319322 0.012391
C93   C     C_1   0.998220 0.500000 0.319324 0.012499
C94   C     C_1   0.498681 0.000000 0.361920 -0.205764
C95   C     C_3   0.732875 0.000605 0.187760 -0.295161
C96   C     C_1   0.998682 0.500000 0.361920 -0.205662
C97   C     C_1   0.994053 0.500000 0.856825 -0.211534
C98   C     C_1   0.494052 1.000000 0.856824 -0.211206
C99   C     C_3   0.232766 0.538266 0.250505 0.406003
C100  C     C_3   0.232669 0.463732 0.254633 0.406001
C101  C     C_3   0.732613 0.036994 0.253555 0.414426
C102  C     C_3   0.732622 0.962360 0.252506 0.414465
C103  C     C_1   0.995295 0.500000 0.815934 0.013398
C104  C     C_1   0.495294 1.000000 0.815934 0.013497
C105  C     C_1   0.996940 0.500000 0.767850 0.015558
C106  C     C_1   0.334610 0.499767 0.334596 0.135050
C107  C     C_1   0.496939 1.000000 0.767850 0.015558
C108  C     C_1   0.498321 1.000000 0.727105 0.014617
C109  C     C_1   0.998321 0.500000 0.727105 0.014663
C110  C     C_1   0.499771 1.000000 0.678819 0.011940
C111  C     C_1   0.999771 0.500000 0.678819 0.012020
C112  C     C_1   0.500621 1.000000 0.637524 -0.206662
C113  C     C_1   0.000621 0.500000 0.637524 -0.206554
C114  C     C_3   0.261312 0.536157 0.235937 0.178559
C115  C     C_3   0.261220 0.460847 0.240112 0.178933
C116  C     C_3   0.761326 0.037889 0.239337 0.212169
H1    H     H_    0.219389 0.495312 0.138450 0.209770
H2    H     H_    0.197239 0.354181 0.293978 0.257128
H3    H     H_    0.253552 0.344534 0.366878 0.206819
H4    H     H_    0.225864 0.396092 0.357255 0.276510
H5    H     H_    0.777255 0.100730 0.326543 0.166231
H6    H     H_    0.746474 0.089885 0.347396 0.191994
H7    H     H_    0.696838 0.154546 0.278996 0.258245
H8    H     H_    0.753304 0.172786 0.338078 0.208552
H9    H     H_    0.726791 0.164846 0.256646 0.276554
H10   H     H_    0.746426 0.907192 0.344790 0.191972
H11   H     H_    0.777311 0.897938 0.323801 0.166144
H12   H     H_    0.719967 0.001106 0.139243 0.209335
H13   H     H_    0.727012 0.834329 0.252078 0.276593
H14   H     H_    0.753400 0.824823 0.333201 0.208527
H15   H     H_    0.696910 0.843029 0.274475 0.258308
H16   H     H_    0.248356 0.633270 0.265814 0.185473
H17   H     H_    0.277613 0.596182 0.334361 0.166686
H18   H     H_    0.226166 0.617839 0.344993 0.276550
H19   H     H_    0.254001 0.666924 0.349075 0.206672
H20   H     H_    0.197657 0.655693 0.277324 0.257181
H21   H     H_    0.277360 0.410420 0.344640 0.166994
H22   H     H_    0.247996 0.369251 0.280409 0.185507
O1    O     O_R   0.500400 0.563130 0.536080 -0.596237
O2    O     O_R   0.963990 0.500000 0.400890 -0.592129
O3    O     O_R   0.534410 0.000000 0.471310 -0.592024
O4    O     O_R   0.034410 0.500000 0.471310 -0.591980
O5    O     O_R   0.464750 0.936830 0.464780 -0.592297
O6    O     O_R   0.464750 0.063170 0.464780 -0.592088
O7    O     O_R   0.964750 0.436830 0.464780 -0.592108
O8    O     O_R   0.964750 0.563170 0.464780 -0.592168
O9    O     O_R   0.535170 0.936820 0.535200 -0.592226
O10   O     O_R   0.535170 0.063180 0.535200 -0.592315
O11   O     O_R   0.035170 0.436820 0.535200 -0.592306
O12   O     O_R   0.500400 0.436870 0.536080 -0.596464
O13   O     O_R   0.035170 0.563180 0.535200 -0.592224
O14   O     O_R   0.465520 0.000000 0.528690 -0.593173
O15   O     O_R   0.965520 0.500000 0.528690 -0.593153
O16   O     O_R   0.535930 0.000000 0.599110 -0.591238
O17   O     O_R   0.035930 0.500000 0.599110 -0.591198
O18   O     O_R   0.499540 0.563080 0.463930 -0.593077
O19   O     O_R   0.499540 0.436920 0.463930 -0.592958
O20   O     O_R   0.999540 0.063080 0.463930 -0.593297
O21   O     O_R   0.999540 0.936920 0.463930 -0.593270
O22   O     O_R   0.438030 0.500000 0.473700 -0.608615
O23   O     O_R   0.000400 0.063130 0.536080 -0.596187
O24   O     O_R   0.938030 0.000000 0.473700 -0.606557
O25   O     O_R   0.437170 0.500000 0.401550 -0.597965
O26   O     O_R   0.937170 0.000000 0.401550 -0.600088
O27   O     O_R   0.562760 0.500000 0.598450 -0.592033
O28   O     O_R   0.062760 0.000000 0.598450 -0.592082
O29   O     O_R   0.561900 0.500000 0.526300 -0.592767
O30   O     O_R   0.061900 0.000000 0.526300 -0.592762
O31   O     O_R   0.994600 0.535610 0.057840 -0.595019
O32   O     O_R   0.994600 0.464390 0.057840 -0.595073
O33   O     O_R   0.494600 0.035610 0.057840 -0.595085
O34   O     O_R   0.000400 0.936870 0.536080 -0.596114
O35   O     O_R   0.494600 0.964390 0.057840 -0.595083
O36   O     O_R   0.056200 0.535620 0.056290 -0.606041
O37   O     O_R   0.056200 0.464380 0.056290 -0.606721
O38   O     O_R   0.556200 0.035620 0.056290 -0.605976
O39   O     O_R   0.556200 0.964380 0.056290 -0.605845
O40   O     O_R   0.993060 0.535640 0.930020 -0.595498
O41   O     O_R   0.993060 0.464360 0.930020 -0.595588
O42   O     O_R   0.493060 0.035640 0.930020 -0.595507
O43   O     O_R   0.493060 0.964360 0.930020 -0.595429
O44   O     O_3   0.213132 0.576781 0.251480 -0.582179
O45   O     O_R   0.931470 0.535630 0.931560 -0.591748
O46   O     O_3   0.212933 0.427869 0.259725 -0.582489
O47   O     O_3   0.712675 0.075495 0.253938 -0.585651
O48   O     O_3   0.712699 0.923288 0.251802 -0.585598
O49   O     O_R   0.931470 0.464370 0.931560 -0.591730
O50   O     O_R   0.431470 0.035630 0.931560 -0.591740
O51   O     O_R   0.431470 0.964370 0.931560 -0.591702
O52   O     O_R   0.463990 0.000000 0.400890 -0.592131
Zn1   Zn    Zn3+2 0.500540 0.500000 0.548170 0.995885
Zn2   Zn    Zn3+2 0.952950 0.500000 0.452980 0.982670
Zn3   Zn    Zn3+2 0.546980 0.000000 0.547020 0.984244
Zn4   Zn    Zn3+2 0.046980 0.500000 0.547020 0.984486
Zn5   Zn    Zn3+2 0.000540 0.000000 0.548170 0.997179
Zn6   Zn    Zn3+2 0.499390 0.500000 0.451830 1.005267
Zn7   Zn    Zn3+2 0.999390 0.000000 0.451830 1.003564
Zn8   Zn    Zn3+2 0.993830 0.547580 0.993940 0.992042
Zn9   Zn    Zn3+2 0.993830 0.452420 0.993940 0.991694
Zn10  Zn    Zn3+2 0.493830 0.047580 0.993940 0.992222
Zn11  Zn    Zn3+2 0.493830 0.952420 0.993940 0.992380
Zn12  Zn    Zn3+2 0.452950 0.000000 0.452980 0.982418

loop_
_geom_bond_atom_site_label_1
_geom_bond_atom_site_label_2
_ccdc_geom_bond_type
C38   C43   S    
O32   Zn9   S    
C9    C101  S    
C57   C59   S    
O19   Zn6   S    
O52   Zn12  S    
O40   Zn8   S    
O39   Zn11  S    
C84   H1    S    
O3    Zn3   S    
O12   Zn1   S    
C48   O25   A    
C80   O8    A    
C10   C115  S    
C20   H15   S    
C65   C85   S    
C17   O47   S    
C95   H12   S    
O33   Zn10  S    
C3    C102  S    
O18   Zn6   S    
C99   O44   S    
C46   C79   S    
O31   Zn8   S    
C32   C36   T    
C42   C46   T    
C21   C73   S    
C111  C113  T    
C51   O34   A    
C67   O39   A    
C16   H4    S    
C60   C63   T    
C51   O21   A    
C52   C54   T    
C82   O17   A    
C23   C27   T    
C50   C72   S    
C81   O16   A    
C6    C13   T    
C54   C56   S    
C79   O11   A    
C82   O15   A    
C65   O35   A    
C55   C57   T    
O30   Zn7   S    
C56   C58   T    
C20   H13   S    
C103  C105  S    
C91   C93   S    
O25   Zn6   S    
C78   O10   A    
C18   H7    S    
C8    C99   S    
C25   C51   S    
C89   C90   T    
C75   O3    A    
C90   C92   S    
C44   C77   S    
C72   O29   A    
C62   C84   S    
C17   C18   S    
C99   C114  S    
C4    C106  T    
C47   C80   S    
C70   O45   A    
C19   H11   S    
C37   C42   S    
O21   Zn7   S    
C49   O26   A    
C7    C21   T    
Br3   C116  S    
C52   C74   S    
C68   O41   A    
C6    C66   S    
C87   C89   S    
C40   O20   A    
C15   C16   S    
O7    Zn2   S    
C12   H17   S    
C62   C100  S    
C49   O24   A    
C48   O22   A    
O5    Zn12  S    
C76   O2    A    
O24   Zn5   S    
O16   Zn3   S    
O15   Zn2   S    
O45   Zn8   S    
O50   Zn10  S    
C1    O18   A    
O35   Zn11  S    
C53   C55   S    
O49   Zn9   S    
C40   O23   A    
O42   Zn10  S    
C73   C101  S    
C28   C33   S    
C14   H20   S    
C30   C34   S    
C29   O12   A    
C15   H21   S    
C81   C112  S    
C24   C28   T    
O10   Zn3   S    
O4    Zn4   S    
C16   H3    S    
C33   C37   T    
C68   C97   S    
C88   C91   T    
C109  C111  S    
C19   C20   S    
Br5   C8    S    
C29   O19   A    
C1    C22   S    
O29   Zn6   S    
C82   C113  S    
Br1   C114  S    
C84   C114  S    
C9    C102  S    
O2    Zn2   S    
O37   Zn9   S    
C71   O50   A    
C79   O7    A    
O1    Zn1   S    
O20   Zn7   S    
O41   Zn9   S    
C85   C87   T    
C108  C110  S    
C22   C26   T    
Br6   C9    S    
C86   C88   S    
C76   C96   S    
O8    Zn2   S    
C13   C62   S    
C26   C31   S    
C83   C86   T    
C104  C107  S    
O26   Zn7   S    
O9    Zn3   S    
C3    C11   S    
C12   H16   S    
C92   C94   T    
C69   C98   S    
C84   C115  S    
C8    C10   S    
O34   Zn5   S    
C69   O42   A    
C62   C99   S    
C74   O28   A    
C76   O4    A    
C77   O5    A    
C14   H18   S    
C5    C49   S    
C10   C106  S    
C100  O46   S    
C17   H5    S    
C107  C108  T    
C64   O31   A    
Br2   C115  S    
C9    C11   S    
C35   C39   S    
O17   Zn4   S    
C14   H19   S    
C24   C40   S    
C69   O43   A    
C95   C116  S    
C15   H22   S    
C7    C67   S    
O36   Zn8   S    
C19   O48   S    
C66   O37   A    
C41   C45   T    
C50   C53   T    
C16   H2    S    
C77   O9    A    
C75   C94   S    
C23   C29   S    
C2    C11   S    
C59   C61   T    
C81   O14   A    
C97   C103  T    
O13   Zn4   S    
O14   Zn12  S    
C65   O33   A    
C10   C114  S    
C71   O51   A    
O22   Zn1   S    
C74   O30   A    
O27   Zn1   S    
C75   O52   A    
C98   C104  T    
C67   O38   A    
C18   H9    S    
C63   C71   S    
C15   O46   S    
C73   C95   S    
C39   C44   T    
C2    C5    T    
C43   C47   T    
C100  C115  S    
C12   O44   S    
C72   O27   A    
C110  C112  T    
C73   C102  S    
C12   C14   S    
C36   C41   S    
O23   Zn5   S    
C31   C35   T    
O28   Zn5   S    
C4    C48   S    
C80   O13   A    
C20   H14   S    
C70   O49   A    
O6    Zn12  S    
C101  O47   S    
C64   C83   S    
C18   H8    S    
C11   C116  S    
C34   C38   T    
C93   C96   T    
C68   O40   A    
O51   Zn11  S    
C3    C95   S    
C8    C100  S    
O43   Zn11  S    
C66   O36   A    
C25   C30   T    
C102  O48   S    
C27   C32   S    
C105  C109  T    
C61   C70   S    
C101  C116  S    
O38   Zn10  S    
Br4   C3    S    
C19   H10   S    
C64   O32   A    
C45   C78   S    
O11   Zn4   S    
C58   C60   S    
C17   H6    S    
C1    O1    A    
C78   O6    A    
