data_mof_unit_27678.cif
_audit_creation_date              2013-03-05T15:55:52-0500
_audit_creation_method            fapswitch 2.2
_symmetry_space_group_name_H-M    P1
_symmetry_Int_Tables_number       1
_space_group_crystal_system       triclinic
_cell_length_a                    12.407798
_cell_length_b                    13.185174
_cell_length_c                    15.827825
_cell_angle_alpha                 76.980001
_cell_angle_beta                  101.178167
_cell_angle_gamma                 116.879863
_cell_volume                      2237.62280886

loop_
_atom_site_label
_atom_site_type_symbol
_atom_site_description
_atom_site_fract_x
_atom_site_fract_y
_atom_site_fract_z
_atom_type_partial_charge
O1    O     O_R   0.972510 0.318130 0.524770 -0.542707
O2    O     O_R   0.806530 0.359650 0.491510 -0.613944
C1    C     C_R   0.854989 0.286809 0.505139 0.775138
O3    O     O_R   0.082970 0.479240 0.637550 -0.528962
O4    O     O_R   0.916990 0.520750 0.604290 -0.607484
C2    C     C_R   0.999463 0.499343 0.659890 0.826546
Cu1   Cu    Cu3+1 0.098270 0.475420 0.519690 1.052252
Cu2   Cu    Cu3+1 0.901730 0.524580 0.480310 0.922021
O5    O     O_R   0.193470 0.640350 0.508490 -0.550996
O6    O     O_R   0.027490 0.681870 0.475230 -0.599200
O7    O     O_R   0.083010 0.479250 0.395710 -0.505695
O8    O     O_R   0.917030 0.520760 0.362450 -0.610274
C3    C     C_R   0.145066 0.713633 0.487225 0.805524
C4    C     C_R   0.000011 0.499932 0.340168 0.829726
C5    C     C_3   0.032648 0.418469 0.048818 -0.146365
C6    C     C_3   0.920309 0.387013 0.979422 -0.191047
H1    H     H_    0.862561 0.299938 0.961744 0.145083
H2    H     H_    0.066912 0.356903 0.090150 0.148469
C7    C     C_1   0.998042 0.497677 0.749781 -0.129231
C8    C     C_1   0.997964 0.497375 0.250589 -0.131352
C9    C     C_3   0.105686 0.525501 0.984710 -0.119965
C10   C     C_3   0.993472 0.494314 0.917091 0.155463
C11   C     C_3   0.061178 0.598993 0.019718 -0.153957
C12   C     C_3   0.988162 0.491996 0.082792 0.139497
C13   C     C_3   0.948945 0.568001 0.950394 -0.203952
C14   C     C_3   0.876630 0.460917 0.014430 0.040171
C15   C     C_1   0.996235 0.496074 0.825460 -0.044186
C16   C     C_1   0.993967 0.494745 0.174861 -0.063967
H3    H     H_    0.914873 0.629630 0.908889 0.143595
H4    H     H_    0.119090 0.686189 0.037101 0.148617
H5    H     H_    0.200075 0.552115 0.971158 0.145861
C17   C     C_R   0.273987 0.027742 0.390126 -0.180389
H6    H     H_    0.093748 0.892331 0.395498 0.150176
H7    H     H_    0.453331 0.229720 0.338924 0.151092
H8    H     H_    0.242323 0.088849 0.349267 0.142595
C18   C     C_R   0.228394 0.835787 0.469189 -0.039207
C19   C     C_R   0.815665 0.080986 0.543398 -0.151236
C20   C     C_R   0.737079 0.964804 0.554922 -0.151636
C21   C     C_R   0.613372 0.929358 0.530038 -0.181094
C22   C     C_R   0.566120 0.010052 0.488567 0.083289
C23   C     C_R   0.648903 0.126871 0.466885 0.081653
C24   C     C_R   0.439537 0.978105 0.466247 0.071413
C25   C     C_R   0.398695 0.058843 0.413357 0.162944
C26   C     C_R   0.482828 0.168812 0.382683 -0.232705
C27   C     C_R   0.606018 0.202058 0.408196 -0.198314
C28   C     C_R   0.352049 0.868505 0.496107 -0.205500
C29   C     C_R   0.189176 0.916349 0.417301 -0.193177
C30   C     C_R   0.772581 0.163814 0.502924 -0.115887
H9    H     H_    0.377895 0.806357 0.540599 0.148079
H10   H     H_    0.910344 0.105717 0.567179 0.206174
H11   H     H_    0.557815 0.837817 0.541257 0.134375
H12   H     H_    0.771847 0.901816 0.585589 0.151656
H13   H     H_    0.666755 0.286054 0.378348 0.176106
C31   C     C_R   0.359111 0.346566 0.649179 -0.346139
H14   H     H_    0.553269 0.306669 0.676077 0.149742
H15   H     H_    0.364018 0.288130 0.708670 0.172151
N1    N     N_R   0.246280 0.438200 0.549540 -0.291750
C32   C     C_R   0.765319 0.650918 0.385839 0.075741
C33   C     C_R   0.678011 0.693308 0.366663 -0.274129
C34   C     C_R   0.576207 0.640470 0.412287 -0.116569
C35   C     C_R   0.556757 0.540573 0.474933 0.025572
C36   C     C_R   0.653891 0.506316 0.496970 0.275135
C37   C     C_R   0.450073 0.479050 0.521248 -0.117873
C38   C     C_R   0.453821 0.398930 0.596682 0.064805
C39   C     C_R   0.551647 0.370038 0.619272 -0.228608
C40   C     C_R   0.647510 0.419678 0.568690 -0.167932
C41   C     C_R   0.338550 0.490555 0.495492 0.402041
C42   C     C_R   0.257590 0.369461 0.626382 0.477613
N2    N     N_R   0.754330 0.561180 0.450980 -0.211724
H16   H     H_    0.845534 0.693363 0.351424 0.132468
H17   H     H_    0.518729 0.684098 0.400828 0.202104
H18   H     H_    0.690896 0.769182 0.318186 0.156051
H19   H     H_    0.716970 0.390317 0.590010 0.203718
N3    N     N_R   0.166369 0.319261 0.685080 0.147210
O9    O     O_R   0.194136 0.348543 0.762360 -0.386223
O10   O     O_R   0.072515 0.223435 0.672394 -0.389111
N4    N     N_R   0.314648 0.540138 0.407809 0.125906
O11   O     O_R   0.309960 0.491236 0.343516 -0.377925
O12   O     O_R   0.310992 0.639830 0.390935 -0.386824
C43   C     C_R   0.743964 0.422978 0.021819 0.105419
C44   C     C_R   0.661866 0.407388 0.945739 -0.161105
C45   C     C_R   0.538246 0.372101 0.950059 -0.120115
C46   C     C_R   0.495337 0.351591 0.030399 -0.092937
C47   C     C_R   0.575975 0.366118 0.106496 -0.130835
C48   C     C_R   0.699747 0.401552 0.102421 -0.142160
H20   H     H_    0.693719 0.422725 0.882965 0.129873
H21   H     H_    0.475731 0.360577 0.891100 0.150831
H22   H     H_    0.399607 0.324213 0.033723 0.137820
H23   H     H_    0.542537 0.349687 0.168791 0.132356
H24   H     H_    0.759310 0.411039 0.162388 0.130309

loop_
_geom_bond_atom_site_label_1
_geom_bond_atom_site_label_2
_geom_bond_distance
_ccdc_geom_bond_type
C5    H2    1.110238 S    
C21   H11   1.077997 S    
C41   N4    1.431204 S    
C44   C45   1.398171 A    
Cu1   Cu2   2.722772 S    
N4    O11   1.301328 A    
Cu1   O7    1.925899 S    
C2    C7    1.421415 S    
C9    H5    1.110242 S    
C28   H9    1.077150 S    
Cu2   N2    2.039913 S    
C43   C48   1.406125 A    
N3    O10   1.298465 A    
C12   C14   1.536293 S    
C20   C21   1.389038 A    
O7    C4    1.304862 A    
C20   H12   1.082872 S    
C42   N3    1.426726 S    
C45   H21   1.082712 S    
C1    C30   1.479517 S    
C18   C29   1.399630 A    
C24   C28   1.400986 A    
C35   C37   1.443947 A    
O5    C3    1.306693 A    
C17   C25   1.404009 A    
C6    H1    1.110394 S    
C10   C13   1.534965 S    
C11   C12   1.538845 S    
C18   C28   1.397339 A    
C7    C15   1.197622 T    
C44   H20   1.083401 S    
C33   H18   1.082672 S    
C22   C24   1.422234 A    
C46   H22   1.082534 S    
C27   H13   1.079469 S    
C33   C34   1.390541 A    
C9    C10   1.534907 S    
C13   H3    1.110405 S    
N1    C41   1.384947 A    
O3    Cu1   1.925314 S    
H14   C39   1.084721 S    
C37   C41   1.430803 A    
N4    O12   1.300851 A    
C6    C14   1.545166 S    
C31   H15   1.085029 S    
N3    O9    1.301172 A    
C36   C40   1.403068 A    
C17   H8    1.083836 S    
C4    C8    1.420869 S    
H7    C26   1.084193 S    
C47   C48   1.398911 A    
C3    C18   1.464941 S    
O3    C2    1.304411 A    
C21   C22   1.416608 A    
C32   H16   1.081528 S    
C8    C16   1.197685 T    
C34   H17   1.070620 S    
C13   C14   1.545355 S    
C40   H19   1.066118 S    
C14   C43   1.509057 S    
C36   N2    1.380402 A    
C34   C35   1.411802 A    
O1    C1    1.315673 A    
C25   C26   1.392284 A    
C11   H4    1.110259 S    
C19   C20   1.386754 A    
C46   C47   1.397087 A    
Cu2   O8    1.925314 S    
C19   C30   1.403123 A    
C5    C12   1.538687 S    
O8    C4    1.303841 A    
C39   C40   1.383207 A    
C10   C15   1.452084 S    
C9    C11   1.547712 S    
H6    C29   1.083101 S    
C17   C29   1.393850 A    
C47   H23   1.082747 S    
N1    C42   1.368408 A    
C26   C27   1.387855 A    
Cu1   O5    1.934030 S    
C22   C23   1.418859 A    
C6    C10   1.534924 S    
O1    Cu1   1.946703 S    
O2    Cu2   1.934030 S    
C12   C16   1.452870 S    
C43   C44   1.405902 A    
O6    C3    1.309842 A    
O4    Cu2   1.925898 S    
C48   H24   1.077324 S    
C32   N2    1.356675 A    
C38   C39   1.390957 A    
O2    C1    1.307288 A    
C32   C33   1.386231 A    
C19   H10   1.079599 S    
O4    C2    1.304364 A    
C31   C38   1.390865 A    
C23   C30   1.423882 A    
C11   C13   1.550869 S    
C35   C36   1.427065 A    
C37   C38   1.413594 A    
C5    C9    1.548329 S    
C31   C42   1.388015 A    
Cu2   O6    1.946703 S    
C45   C46   1.396762 A    
C24   C25   1.418675 A    
C23   C27   1.413945 A    
Cu1   N1    2.052019 S    
C5    C6    1.552509 S    
