data_mof_unit_5214.cif
_audit_creation_date              2012-12-11T20:17:17-0500
_audit_creation_method            fapswitch 2.2
_symmetry_space_group_name_H-M    P1
_symmetry_Int_Tables_number       1
_space_group_crystal_system       triclinic
_cell_length_a                    8.45484
_cell_length_b                    17.51352
_cell_length_c                    18.935322
_cell_angle_alpha                 101.76416
_cell_angle_beta                  93.375486
_cell_angle_gamma                 99.061274
_cell_volume                      2698.64746325

loop_
_atom_site_label
_atom_site_type_symbol
_atom_type_description
_atom_site_fract_x
_atom_site_fract_y
_atom_site_fract_z
_atom_type_partial_charge
Ba1   Ba    Ba6+2 0.852650 0.537180 0.468240 1.837027
Ba2   Ba    Ba6+2 0.337190 0.462880 0.531770 1.865751
C1    C     C_3   0.684398 0.799574 0.273691 -0.217333
C2    C     C_3   0.654830 0.726471 0.306679 0.321495
C3    C     C_3   0.535196 0.220881 0.294248 0.562076
C4    C     C_3   0.433206 0.140482 0.296154 0.245464
C5    C     C_3   0.993342 0.257449 0.705060 0.285776
C6    C     C_3   0.047470 0.257596 0.783068 -0.291014
C7    C     C_3   0.523114 0.250532 0.668941 0.394972
C8    C     C_3   0.478149 0.168112 0.683773 -0.317238
C9    C     C_2   0.306646 0.486807 0.288438 -0.350961
C10   C     C_3   0.443976 0.490540 0.240982 0.155092
C11   C     C_2   0.388897 0.495488 0.164580 -0.112030
C12   C     C_3   0.127505 0.706689 0.283893 0.297374
C13   C     C_2   0.231996 0.475986 0.138486 -0.124982
C14   C     C_2   0.106929 0.455300 0.189822 0.246636
C15   C     C_1   0.153471 0.461446 0.261215 -0.084542
C16   C     C_R   0.088639 0.466523 0.916804 0.461036
C17   C     C_R   0.187999 0.471693 0.058661 0.519766
C18   C     C_R   0.112901 0.505704 0.795526 -0.167507
C19   C     C_R   0.040992 0.518863 0.730885 -0.052441
C20   C     C_R   0.783605 0.445955 0.753349 -0.055835
C21   C     C_R   0.856633 0.432443 0.817596 -0.194641
C22   C     C_R   0.019494 0.467145 0.842014 -0.048662
C23   C     C_3   0.080271 0.721016 0.209638 -0.370755
C24   C     C_R   0.874246 0.495874 0.716091 0.117138
C25   C     C_2   0.440471 0.716667 0.474127 -0.137915
C26   C     C_3   0.352781 0.773164 0.441604 -0.016360
C27   C     C_2   0.401409 0.858163 0.478096 -0.072128
C28   C     C_2   0.550296 0.883283 0.511805 0.048757
C29   C     C_2   0.648099 0.821228 0.524170 -0.181564
C30   C     C_1   0.579385 0.745065 0.516053 0.015671
C31   C     C_R   0.800280 0.138409 0.530485 -0.060911
C32   C     C_R   0.861924 0.218028 0.536245 0.041690
C33   C     C_R   0.613009 0.237219 0.475909 -0.043778
C34   C     C_3   0.166549 0.725772 0.726209 0.714377
C35   C     C_R   0.544592 0.158905 0.479197 -0.123600
C36   C     C_R   0.639222 0.108274 0.504926 0.050220
C37   C     C_2   0.613916 0.970600 0.535883 0.056984
C38   C     C_2   0.575103 0.021710 0.494148 -0.045836
C39   C     C_R   0.768860 0.267374 0.509433 -0.156284
C40   C     C_3   0.151122 0.711130 0.803624 -0.252210
C41   C     C_3   0.084931 0.284750 0.309995 0.641829
C42   C     C_3   0.124175 0.269636 0.231022 -0.231967
C43   C     C_3   0.758202 0.795866 0.680753 0.278899
C44   C     C_3   0.800816 0.825253 0.763343 -0.044028
H1    H     H_    0.771312 0.720916 0.333460 0.100388
H2    H     H_    0.113558 0.763035 0.838446 0.131290
H3    H     H_    0.051447 0.661486 0.801945 0.029982
H4    H     H_    0.194491 0.314962 0.345116 -0.000570
H5    H     H_    0.013538 0.255726 0.193719 0.207747
H6    H     H_    0.188192 0.218962 0.218945 0.151328
H7    H     H_    0.204339 0.320737 0.219572 0.059755
H8    H     H_    0.669744 0.829815 0.663103 0.050134
H9    H     H_    0.869281 0.809460 0.653862 0.048710
H10   H     H_    0.741537 0.851605 0.316561 0.119490
H11   H     H_    0.922480 0.814381 0.777772 0.117129
H12   H     H_    0.568646 0.735268 0.348031 -0.021474
H13   H     H_    0.660146 0.224707 0.316001 0.085798
H14   H     H_    0.316200 0.130908 0.263400 0.084269
H15   H     H_    0.405560 0.139672 0.351168 0.010961
H16   H     H_    0.768426 0.790500 0.231105 0.129292
H17   H     H_    0.141488 0.685000 0.168055 0.085783
H18   H     H_    0.964083 0.316855 0.703275 -0.022489
H19   H     H_    0.884349 0.211258 0.687336 -0.016543
H20   H     H_    0.154874 0.304270 0.802831 0.143443
H21   H     H_    0.949135 0.269596 0.817869 0.090995
H22   H     H_    0.078161 0.199084 0.786806 0.126463
H23   H     H_    0.649062 0.258482 0.654312 -0.156797
H24   H     H_    0.440987 0.255206 0.622712 0.081425
H25   H     H_    0.475423 0.122841 0.633189 0.067831
H26   H     H_    0.356993 0.160899 0.703779 0.156478
H27   H     H_    0.079990 0.643702 0.283692 0.054825
H28   H     H_    0.567478 0.158727 0.725159 0.107107
H29   H     H_    0.480213 0.508193 0.128547 0.127972
H30   H     H_    0.239407 0.527555 0.810976 0.122201
H31   H     H_    0.785111 0.398547 0.849934 0.127583
H32   H     H_    0.345141 0.483431 0.343131 0.055618
H33   H     H_    0.495974 0.997733 0.444693 0.113908
H34   H     H_    0.776126 0.839322 0.539796 0.089662
H35   H     H_    0.879751 0.100345 0.545213 0.071442
H36   H     H_    0.261064 0.716931 0.292382 -0.028342
H37   H     H_    0.321977 0.899306 0.470056 0.073914
H38   H     H_    0.419015 0.136550 0.461730 0.118712
H39   H     H_    0.821464 0.328198 0.510846 0.064243
H40   H     H_    0.948400 0.703027 0.196121 0.127409
H41   H     H_    0.116323 0.784595 0.208819 0.145179
H42   H     H_    0.048239 0.728528 0.701909 0.018364
N1    N     N_R   0.189522 0.530842 0.957808 -0.250616
N2    N     N_R   0.237966 0.533457 0.027090 -0.258198
N3    N     N_R   0.093945 0.406255 0.016333 -0.115604
N4    N     N_R   0.043452 0.403962 0.947628 -0.209105
O1    O     O_2   0.865200 0.455450 0.325860 -0.383671
O2    O     O_3   0.692725 0.714257 0.661744 -0.534947
O3    O     O_3   0.063149 0.758006 0.337728 -0.604248
O4    O     O_2   0.324510 0.544570 0.674190 -0.393532
O5    O     O_3   0.071830 0.543290 0.586690 -0.420563
O6    O     O_3   0.531950 0.400150 0.621890 -0.415775
O7    O     O_3   0.239511 0.670555 0.678850 -0.599340
O8    O     O_3   0.606980 0.404400 0.458100 -0.430169
O9    O     O_3   0.107660 0.359170 0.583950 -0.490380
O10   O     O_2   0.191292 0.220955 0.528231 -0.437176
O11   O     O_3   0.116953 0.239718 0.661428 -0.599095
O12   O     O_3   0.117880 0.456770 0.413320 -0.511853
O13   O     O_3   0.582730 0.595670 0.541910 -0.407690
O14   O     O_2   0.334130 0.306180 0.453490 -0.422838
O15   O     O_3   0.469715 0.284907 0.332659 -0.679240
O16   O     O_2   0.451183 0.450530 0.754778 -0.464155
O17   O     O_3   0.505935 0.306780 0.731072 -0.595338
O18   O     O_3   0.657770 0.599920 0.378120 -0.531344
O19   O     O_2   0.775801 0.556577 0.253416 -0.459429
O20   O     O_3   0.960840 0.329692 0.320701 -0.586800
O21   O     O_3   0.591939 0.659077 0.252348 -0.628483
O22   O     O_2   0.855570 0.693850 0.546560 -0.437556
O23   O     O_3   0.082050 0.640900 0.416060 -0.498840
O24   O     O_2   0.031195 0.784292 0.478547 -0.469270
P1    P     P_3+3 0.032830 0.432130 0.335280 1.059333
P2    P     P_3+3 0.680690 0.682340 0.566920 1.179985
P3    P     P_3+3 0.130643 0.741905 0.421639 0.980015
P4    P     P_3+3 0.156880 0.567940 0.664730 1.100271
P5    P     P_3+3 0.068577 0.257464 0.575893 1.006734
P6    P     P_3+3 0.615352 0.573310 0.283326 0.974321
P7    P     P_3+3 0.509889 0.303130 0.428088 0.980056
P8    P     P_3+3 0.569874 0.401399 0.715591 1.042789
C45   C     C_3   0.304059 0.695325 0.841149 -0.381634
H43   H     H_    0.271612 0.664565 0.885391 0.135951
H44   H     H_    0.369976 0.658035 0.802997 0.131109
H45   H     H_    0.384073 0.751731 0.866777 0.179785
S1    S     S_3+6 0.017703 0.190892 0.332901 -0.053203
O25   O     O_2   0.149383 0.167551 0.375716 -0.349862
O26   O     O_2   0.880240 0.196499 0.378518 -0.316731
O27   O     O_3   0.957585 0.120169 0.257344 -0.467727
H46   H     H_    0.960807 0.069441 0.272386 0.384050
C46   C     C_3   0.686042 0.781406 0.807050 -0.295632
H47   H     H_    0.561587 0.772827 0.781948 0.210690
H48   H     H_    0.718235 0.722559 0.807403 0.095728
H49   H     H_    0.693641 0.814209 0.864262 0.120023
C47   C     C_3   0.805695 0.914990 0.785400 -0.389647
H50   H     H_    0.889372 0.946259 0.753305 0.145030
H51   H     H_    0.684273 0.929727 0.776019 0.150796
H52   H     H_    0.848980 0.937023 0.843656 0.152600
C48   C     C_3   0.529117 0.817307 0.240621 -0.312301
H53   H     H_    0.464797 0.765114 0.199863 0.139462
H54   H     H_    0.449767 0.834292 0.283734 0.148168
H55   H     H_    0.558748 0.867107 0.212961 0.204807
S2    S     S_3+6 0.538269 0.230650 0.201400 0.019437
O28   O     O_2   0.416678 0.167498 0.151882 -0.299844
O29   O     O_2   0.500651 0.310012 0.194843 -0.255474
O30   O     O_3   0.721705 0.222060 0.175118 -0.429268
H56   H     H_    0.705561 0.204644 0.121666 0.394794
S3    S     S_3+6 0.528593 0.056644 0.267896 -0.042216
O31   O     O_2   0.606486 0.059315 0.198949 -0.201384
O32   O     O_2   0.653143 0.052819 0.326361 -0.259402
O33   O     O_3   0.386280 0.975207 0.254622 -0.540454
H57   H     H_    0.313918 0.978594 0.212709 0.344088
S4    S     S_3+6 0.909912 0.409569 0.147860 -0.023062
O34   O     O_2   0.920596 0.330465 0.101331 -0.252370
O35   O     O_2   0.786471 0.395941 0.198972 -0.193293
O36   O     O_3   0.843735 0.466048 0.094375 -0.484136
H58   H     H_    0.876851 0.521310 0.122075 0.315322
S5    S     S_3+6 0.772462 0.546550 0.664594 -0.076476
O37   O     O_2   0.875112 0.620982 0.660173 -0.390371
O38   O     O_2   0.732039 0.496894 0.589871 -0.241569
O39   O     O_3   0.612263 0.571853 0.704237 -0.457520
H59   H     H_    0.649384 0.590238 0.756395 0.281850
C49   C     C_3   0.710937 0.997923 0.608763 -0.396051
H60   H     H_    0.653499 0.965687 0.647927 0.139592
H61   H     H_    0.834813 0.985109 0.604141 0.122410
H62   H     H_    0.715750 0.061687 0.632003 0.102119
C50   C     C_3   0.375856 0.629517 0.445902 -0.239744
H63   H     H_    0.329164 0.620674 0.388473 0.015495
H64   H     H_    0.453439 0.586190 0.439883 0.135705
H65   H     H_    0.287875 0.609305 0.482298 0.140486
S6    S     S_3+6 0.270358 0.824295 0.727801 -0.120346
O40   O     O_2   0.387321 0.820194 0.671207 -0.331464
O41   O     O_2   0.151627 0.874491 0.709856 -0.352704
O42   O     O_3   0.368029 0.868009 0.809477 -0.564583
H66   H     H_    0.398888 0.924500 0.807756 0.366605

loop_
_geom_bond_atom_site_label_1
_geom_bond_atom_site_label_2
_ccdc_geom_bond_type
C19   C24   A    
C34   S6    S    
C8    H28   S    
C34   C40   S    
O15   P7    S    
C46   H49   S    
S5    O37   D    
C5    C6    S    
C43   C44   S    
C34   H42   S    
C13   C17   S    
C10   C11   S    
C32   C39   A    
C35   C36   A    
C16   C22   S    
C4    H15   S    
O39   H59   S    
C33   C35   A    
C7    H23   S    
C27   H37   S    
C19   P4    S    
O36   H58   S    
O20   P1    S    
C5    H19   S    
C50   H63   S    
C13   C14   S    
C23   H41   S    
C18   H30   S    
Ba1   Ba2   S    
C23   H17   S    
S3    O33   S    
C18   C22   A    
S6    O40   D    
S4    O35   D    
C40   C45   S    
O7    P4    S    
C42   H7    S    
C9    C15   D    
O21   P6    S    
C11   H29   S    
Ba2   O5    S    
O27   H46   S    
O14   P7    D    
C14   S4    S    
C45   H45   S    
C21   C22   A    
C35   H38   S    
C6    H20   S    
O10   P5    D    
C7    C8    S    
C15   P1    S    
C44   C47   S    
S1    O27   S    
C8    H25   S    
C42   H6    S    
Ba2   O8    S    
C5    O11   S    
O19   P6    D    
C49   H61   S    
C48   H55   S    
C49   H60   S    
C1    C48   S    
O1    P1    D    
O16   P8    D    
C43   O2    S    
Ba1   O8    S    
S5    O38   D    
S2    O29   D    
C7    O17   S    
C3    H13   S    
C12   H27   S    
C4    H14   S    
C2    O21   S    
C41   S1    S    
C7    H24   S    
C29   H34   S    
Ba1   O5    S    
C37   C38   D    
Ba2   P4    S    
C14   C15   D    
C46   H48   S    
Ba2   O9    S    
O3    P3    S    
Ba2   O14   S    
O9    P5    S    
S4    O34   D    
O6    P8    S    
C41   C42   S    
C27   C28   D    
C9    H32   S    
Ba1   O18   S    
C44   C46   S    
S2    O30   S    
C1    H10   S    
C29   C30   D    
C25   C50   S    
Ba2   O12   S    
C28   C29   S    
S3    O31   D    
C31   C32   A    
C38   H33   S    
O17   P8    S    
C40   H2    S    
C21   H31   S    
Ba1   O12   S    
C43   H9    S    
O33   H57   S    
O22   P2    D    
S6    O42   S    
C6    H21   S    
C4    S3    S    
C42   H5    S    
C43   H8    S    
C6    H22   S    
C32   P5    S    
O23   P3    S    
C11   C13   D    
C44   H11   S    
C45   H43   S    
C48   H54   S    
O13   P2    S    
Ba1   O22   S    
C12   H36   S    
C1    C2    S    
O11   P5    S    
C12   O3    S    
N3    N4    A    
S5    O39   S    
S2    O28   D    
C3    O15   S    
C1    H16   S    
C26   C27   S    
C3    S2    S    
Ba2   O13   S    
C25   C30   D    
C48   H53   S    
C16   N1    A    
O4    P4    D    
S4    O36   S    
C30   P2    S    
C47   H52   S    
C9    C10   S    
C26   P3    S    
C41   H4    S    
C20   P8    S    
C46   H47   S    
C47   H51   S    
C39   H39   S    
O12   P1    S    
C24   S5    S    
C31   C36   A    
O24   P3    D    
O8    P7    S    
C16   N4    A    
O5    P4    S    
C33   P7    S    
S1    O25   D    
C17   N2    A    
O30   H56   S    
O18   P6    S    
C36   C38   S    
O2    P2    S    
C3    C4    S    
C50   H64   S    
C37   C49   S    
Ba2   O4    S    
C23   H40   S    
C41   O20   S    
C28   C37   S    
C34   O7    S    
Ba1   P2    S    
S3    O32   D    
C12   C23   S    
C33   C39   A    
S6    O41   D    
C5    H18   S    
C17   N3    A    
C47   H50   S    
C40   H3    S    
C10   P6    S    
C18   C19   A    
Ba2   O6    S    
C49   H62   S    
Ba1   O1    S    
O42   H66   S    
C20   C24   A    
C2    H12   S    
C25   C26   S    
C45   H44   S    
C20   C21   A    
Ba1   O23   S    
N1    N2    A    
Ba1   P1    S    
C31   H35   S    
C50   H65   S    
Ba1   O13   S    
S1    O26   D    
C2    H1    S    
C8    H26   S    
