data_mof_unit_7037.cif
_audit_creation_date              2012-12-11T16:33:23-0500
_audit_creation_method            fapswitch 2.2
_symmetry_space_group_name_H-M    P1
_symmetry_Int_Tables_number       1
_space_group_crystal_system       triclinic
_cell_length_a                    6.960336
_cell_length_b                    18.272535
_cell_length_c                    20.182718
_cell_angle_alpha                 68.492166
_cell_angle_beta                  89.559163
_cell_angle_gamma                 89.856099
_cell_volume                      2388.08778595

loop_
_atom_site_label
_atom_site_type_symbol
_atom_type_description
_atom_site_fract_x
_atom_site_fract_y
_atom_site_fract_z
_atom_type_partial_charge
O1    O     O_R   0.488960 0.443750 0.941980 -0.523487
O2    O     O_R   0.823890 0.406510 0.087590 -0.522000
O3    O     O_R   0.999680 0.556250 0.058020 -0.519874
C1    C     C_R   0.655391 0.383483 0.115131 0.897564
O4    O     O_R   0.818360 0.434410 0.944340 -0.535232
O5    O     O_R   0.994110 0.584350 0.913750 -0.543798
C2    C     C_R   0.651642 0.422062 0.922363 0.773084
O6    O     O_R   0.494530 0.415650 0.086250 -0.543463
O7    O     O_3   0.662590 0.549160 0.990130 -0.375226
V1    V     V_3+5 0.935320 0.490880 0.001830 1.567833
O8    O     O_R   0.324180 0.593490 0.912410 -0.524914
C3    C     C_R   0.156285 0.615267 0.884247 0.911881
O9    O     O_R   0.329720 0.565590 0.055660 -0.536134
C4    C     C_R   0.160621 0.579024 0.076547 0.782823
V2    V     V_3+5 0.435990 0.509120 0.998170 1.552694
O10   O     O_3   0.158850 0.450840 0.009870 -0.374593
C5    C     C_3   0.023561 0.717291 0.302813 0.375381
C6    C     C_3   0.206500 0.680759 0.283634 -0.234926
H1    H     H_    0.265960 0.621702 0.314458 0.169136
C7    C     C_1   0.151106 0.625677 0.121048 -0.174294
C8    C     C_1   0.114551 0.877697 0.375877 -0.145333
C9    C     C_3   0.951705 0.745797 0.225121 -0.232887
C10   C     C_3   0.137441 0.711009 0.205068 -0.022933
C11   C     C_3   0.058743 0.825242 0.210395 0.089475
C12   C     C_3   0.126902 0.795776 0.288898 -0.050894
C13   C     C_3   0.241445 0.789506 0.190428 0.336068
C14   C     C_3   0.308043 0.760658 0.267960 0.274560
C15   C     C_1   0.144512 0.664435 0.158622 0.075905
C16   C     C_1   0.120853 0.840743 0.336757 0.128860
H2    H     H_    0.803556 0.738676 0.208403 0.198582
C17   C     C_R   0.084458 0.775049 0.877873 0.240192
C18   C     C_R   0.006598 0.847112 0.875862 0.134866
C19   C     C_R   0.966529 0.905769 0.810236 0.188586
C20   C     C_R   0.007217 0.894232 0.747326 -0.248386
C21   C     C_R   0.075301 0.821370 0.747376 -0.036317
C22   C     C_R   0.102490 0.758751 0.813808 0.000549
C23   C     C_R   0.117957 0.811508 0.682198 -0.074757
C24   C     C_R   0.175861 0.735746 0.682812 -0.077804
C25   C     C_R   0.190295 0.670655 0.749454 -0.113577
C26   C     C_R   0.150807 0.682571 0.814750 -0.105905
C27   C     C_R   0.214474 0.722806 0.618210 0.295545
C28   C     C_R   0.273844 0.648355 0.619788 0.215107
C29   C     C_R   0.301276 0.586334 0.685274 0.210270
C30   C     C_R   0.246314 0.595139 0.749167 0.270844
H3    H     H_    0.979795 0.943150 0.698287 0.143369
C31   C     C_R   0.537971 0.098710 0.255353 -0.195409
C32   C     C_R   0.503771 0.083101 0.194212 0.360630
C33   C     C_R   0.519148 0.144296 0.127231 0.065444
C34   C     C_R   0.559492 0.221941 0.122927 0.255503
C35   C     C_R   0.595520 0.238276 0.186034 -0.006087
C36   C     C_R   0.583629 0.174794 0.253153 -0.058401
C37   C     C_R   0.647855 0.315135 0.184001 -0.137344
C38   C     C_R   0.692873 0.326530 0.248740 -0.003337
C39   C     C_R   0.655585 0.264355 0.315196 -0.047340
C40   C     C_R   0.614442 0.187462 0.317507 -0.080333
C41   C     C_R   0.771071 0.398511 0.250321 0.293782
C42   C     C_R   0.820877 0.403569 0.315828 -0.243137
C43   C     C_R   0.763661 0.346062 0.379367 0.216659
C44   C     C_R   0.658583 0.281655 0.378115 0.063082
H4    H     H_    0.527081 0.049207 0.305305 0.144535
H5    H     H_    0.893569 0.455229 0.317452 0.142165
O11   O     O_R   0.770540 0.084530 0.414050 -0.540884
O12   O     O_R   0.445710 0.065660 0.555720 -0.528169
O13   O     O_R   0.270420 0.915650 0.586190 -0.530917
C45   C     C_R   0.612005 0.079661 0.576688 0.733455
O14   O     O_R   0.441140 0.093540 0.412470 -0.534315
O15   O     O_R   0.265820 0.943740 0.441930 -0.535550
C46   C     C_R   0.609769 0.119049 0.386852 0.713916
O16   O     O_R   0.775150 0.056440 0.558310 -0.536349
O17   O     O_3   0.602370 0.950960 0.510050 -0.370226
V3    V     V_3+5 0.329450 0.009140 0.498150 1.528114
O18   O     O_R   0.935790 0.934280 0.444060 -0.530291
C47   C     C_R   0.104887 0.922179 0.422249 0.762454
O19   O     O_R   0.940370 0.906390 0.587310 -0.542667
C48   C     C_R   0.109034 0.882382 0.614399 0.795598
V4    V     V_3+5 0.828810 0.990710 0.501460 1.511613
O20   O     O_3   0.105780 0.049100 0.489960 -0.364121
C49   C     C_3   0.719857 0.326247 0.707655 -0.187373
C50   C     C_3   0.524529 0.303615 0.684521 0.188008
H6    H     H_    0.802815 0.380756 0.679353 0.194466
C51   C     C_1   0.608981 0.128679 0.619640 -0.077041
C52   C     C_1   0.650677 0.378887 0.874677 -0.124519
C53   C     C_3   0.792745 0.241445 0.722897 0.222187
C54   C     C_3   0.598051 0.218904 0.700296 -0.061286
C55   C     C_3   0.720697 0.215220 0.801202 -0.167026
C56   C     C_3   0.645633 0.299496 0.785257 -0.022102
C57   C     C_3   0.524729 0.193165 0.778108 0.172768
C58   C     C_3   0.450629 0.277914 0.762541 0.166289
C59   C     C_1   0.597940 0.169921 0.655238 0.161824
C60   C     C_1   0.653445 0.343334 0.834247 0.124891
H7    H     H_    0.803625 0.179416 0.848881 0.214645
I1    I     I_    0.845552 0.014307 0.801619 -0.289270
O21   O     O_3   0.185517 0.782833 0.553357 -0.646754
H8    H     H_    0.242154 0.769607 0.514057 0.336808
O22   O     O_3   0.298104 0.637195 0.556045 -0.623775
H9    H     H_    0.272276 0.581372 0.563676 0.339956
O23   O     O_3   0.251317 0.530338 0.812138 -0.648930
H10   H     H_    0.269321 0.481153 0.803047 0.348686
I2    I     I_    0.829977 0.362447 0.475313 -0.249628
O24   O     O_3   0.459174 0.006472 0.203048 -0.637098
H11   H     H_    0.402687 0.005012 0.158858 0.328398
I3    I     I_    0.508012 0.118647 0.031684 -0.251814
O25   O     O_3   0.572293 0.281372 0.057039 -0.655149
H12   H     H_    0.477006 0.271728 0.025038 0.308830
O26   O     O_3   0.907796 0.679843 0.362541 -0.585179
H13   H     H_    0.859457 0.631710 0.356493 0.316285
O27   O     O_3   0.802396 0.462849 0.188615 -0.651794
H14   H     H_    0.849205 0.507864 0.200346 0.279486
I4    I     I_    0.419791 0.249104 0.449465 -0.290011
I5    I     I_    0.383487 0.381624 0.591519 -0.222356
I6    I     I_    0.192121 0.312463 0.801969 -0.343077
I7    I     I_    0.365257 0.090176 0.839332 -0.167400
I8    I     I_    0.048244 0.211677 0.678434 -0.270338
O28   O     O_3   0.494805 0.768485 0.289524 -0.604848
H15   H     H_    0.521657 0.825759 0.270412 0.321355
O29   O     O_3   0.358804 0.826490 0.131020 -0.592550
H16   H     H_    0.406656 0.874826 0.136784 0.325982
I9    I     I_    0.943001 0.938953 0.152191 -0.261723
O30   O     O_3   0.383691 0.516161 0.688601 -0.633604
H17   H     H_    0.475302 0.526880 0.648312 0.323742
O31   O     O_3   0.148636 0.721209 0.941586 -0.661038
H18   H     H_    0.194943 0.749356 0.971933 0.315529
I10   I     I_    0.938878 0.864705 0.972748 -0.182966

loop_
_geom_bond_atom_site_label_1
_geom_bond_atom_site_label_2
_ccdc_geom_bond_type
O14   C46   A    
C57   C58   S    
O12   C45   A    
O21   H8    S    
C27   C28   A    
C53   I8    S    
O22   H9    S    
C54   C57   S    
O18   V4    S    
O28   H15   S    
C55   H7    S    
C55   C56   S    
O29   H16   S    
C13   C14   S    
O19   V4    S    
C1    C37   S    
C53   C54   S    
C21   C23   A    
C11   C13   S    
C6    H1    S    
C17   C22   A    
O5    C3    A    
C50   C54   S    
C56   C58   S    
C10   C13   S    
V2    O10   S    
C8    C47   S    
C41   C42   A    
O16   V4    S    
C20   C21   A    
O13   V3    S    
C31   C32   A    
C58   I6    S    
O8    V2    S    
C49   C53   S    
C27   O21   S    
C32   C33   A    
C35   C37   A    
O27   H14   S    
O17   V3    S    
O15   C47   A    
O7    V1    S    
C36   C40   A    
C1    O6    A    
C51   C59   T    
C49   C56   S    
C23   C48   S    
O9    C4    A    
C18   I10   S    
O11   V4    S    
C50   C58   S    
O23   H10   S    
C39   C44   A    
C55   C57   S    
C12   C16   S    
O19   C48   A    
C6    C14   S    
C28   O22   S    
C4    C7    S    
C22   C26   A    
V4    O20   S    
C17   O31   S    
C24   C27   A    
C56   C60   S    
C19   I1    S    
C25   C26   A    
O4    C2    A    
C40   C46   S    
C49   C50   S    
C57   I7    S    
C7    C15   T    
C35   C36   A    
C43   C44   A    
C38   C39   A    
C8    C16   T    
C31   C36   A    
C32   O24   S    
C6    C10   S    
C21   C22   A    
C3    C26   S    
O2    C1    A    
C29   C30   A    
C41   O27   S    
C34   O25   S    
C23   C24   A    
C5    O26   S    
C30   O23   S    
C45   C51   S    
O14   V3    S    
O30   H17   S    
C33   I3    S    
C5    C6    S    
C49   H6    S    
C20   H3    S    
C10   C15   S    
C11   C12   S    
O31   H18   S    
O3    C4    A    
O1    V2    S    
C33   C34   A    
C53   C55   S    
O12   V3    S    
O6    V2    S    
O9    V2    S    
O17   V4    S    
C9    C11   S    
C28   C29   A    
O2    V1    S    
V3    O20   S    
C37   C38   A    
C38   C41   A    
C39   C40   A    
C9    H2    S    
C50   I5    S    
C31   H4    S    
O1    C2    A    
C17   C18   A    
C43   I2    S    
O18   C47   A    
O5    V1    S    
O8    C3    A    
C42   H5    S    
C25   C30   A    
C12   C14   S    
O26   H13   S    
C11   I9    S    
C5    C9    S    
C52   C60   T    
O11   C46   A    
C5    C12   S    
C18   C19   A    
O7    V2    S    
O4    V1    S    
O3    V1    S    
V1    O10   S    
C42   C43   A    
C24   C25   A    
C45   O16   A    
O24   H11   S    
C44   I4    S    
O13   C48   A    
C19   C20   A    
O15   V3    S    
C13   O29   S    
C14   O28   S    
C2    C52   S    
C34   C35   A    
C54   C59   S    
O25   H12   S    
C9    C10   S    
C29   O30   S    
