data_mof_unit_39671.cif
_audit_creation_date              2012-12-10T18:12:42-0500
_audit_creation_method            fapswitch 2.2
_symmetry_space_group_name_H-M    P1
_symmetry_Int_Tables_number       1
_space_group_crystal_system       triclinic
_cell_length_a                    12.802307
_cell_length_b                    13.185161
_cell_length_c                    15.689443
_cell_angle_alpha                 93.631267
_cell_angle_beta                  102.752939
_cell_angle_gamma                 81.716446
_cell_volume                      2554.7394944

loop_
_atom_site_label
_atom_site_type_symbol
_atom_type_description
_atom_site_fract_x
_atom_site_fract_y
_atom_site_fract_z
_atom_type_partial_charge
C1    C     C_R   0.439430 0.690653 0.488305 0.846410
C2    C     C_R   0.597035 0.200200 0.513564 -0.064986
C3    C     C_R   0.311649 0.837128 0.521872 -0.297494
C4    C     C_R   0.501552 0.500685 0.661661 0.879402
C5    C     C_R   0.301670 0.934627 0.560342 -0.110836
C6    C     C_R   0.383690 0.995664 0.567544 0.432328
C7    C     C_R   0.467420 0.966873 0.519722 -0.056095
C8    C     C_R   0.475446 0.868329 0.478978 0.051249
C9    C     C_R   0.543671 0.031347 0.510997 0.075461
C10   C     C_R   0.636056 0.991624 0.477215 0.185974
C11   C     C_R   0.642458 0.894105 0.438236 -0.245332
C12   C     C_3   0.505244 0.500306 0.918031 0.158205
C13   C     C_R   0.558741 0.836749 0.433031 -0.157751
C14   C     C_R   0.523534 0.136705 0.524351 -0.266528
C15   C     C_R   0.696788 0.158210 0.495338 -0.175263
C16   C     C_R   0.560595 0.309432 0.510269 0.880885
C17   C     C_R   0.403542 0.800712 0.488865 -0.102654
C18   C     C_R   0.090443 0.358505 0.362366 0.444396
C19   C     C_R   0.794935 0.638512 0.596913 0.025631
C20   C     C_R   0.891910 0.677553 0.608405 -0.287221
C21   C     C_R   0.972063 0.628289 0.567587 -0.059952
C22   C     C_R   0.958822 0.535532 0.518058 -0.009534
C23   C     C_3   0.459290 0.415137 0.014656 -0.230047
C24   C     C_R   0.855570 0.502009 0.502850 0.130576
C25   C     C_R   0.041178 0.479975 0.477810 -0.164440
C26   C     C_R   0.015065 0.401958 0.413035 -0.139558
C27   C     C_R   0.918298 0.363227 0.404576 0.302596
C28   C     C_R   0.498379 0.499517 0.338337 0.899102
C29   C     C_R   0.836664 0.416524 0.443256 0.298154
C30   C     C_R   0.150446 0.495469 0.501182 0.533413
C31   C     C_R   0.194794 0.380373 0.386834 -0.109513
C32   C     C_3   0.438371 0.585120 0.021039 -0.238360
C33   C     C_3   0.542974 0.583544 0.986131 -0.222841
C34   C     C_3   0.497146 0.498803 0.082419 0.131451
C35   C     C_1   0.505237 0.501131 0.751469 -0.135983
C36   C     C_1   0.495092 0.498619 0.248588 -0.190480
C37   C     C_3   0.403224 0.501414 0.952647 0.500456
C38   C     C_3   0.563793 0.414400 0.979766 -0.215899
C39   C     C_3   0.601728 0.497635 0.049513 -0.132258
C40   C     C_1   0.506409 0.500988 0.827163 0.000380
C41   C     C_1   0.494786 0.498382 0.173034 -0.043041
C42   C     C_R   0.715468 0.053829 0.475216 -0.211447
H1    H     H_    0.445634 0.171359 0.535008 0.220310
H2    H     H_    0.461110 0.079670 0.657652 0.331881
H3    H     H_    0.236148 0.958016 0.593777 0.172579
H4    H     H_    0.254800 0.347480 0.350405 0.180802
H5    H     H_    0.856243 0.234570 0.385976 0.339320
H6    H     H_    0.990689 0.325584 0.256387 0.364625
H7    H     H_    0.245786 0.587127 0.563306 0.363367
H8    H     H_    0.385641 0.653844 0.039071 0.152380
H9    H     H_    0.040528 0.668510 0.571880 0.189125
H10   H     H_    0.725017 0.361729 0.355935 0.328548
H11   H     H_    0.683740 0.496000 0.091942 0.146867
H12   H     H_    0.254281 0.786410 0.527696 0.175052
H13   H     H_    0.615560 0.345321 0.961112 0.159386
H14   H     H_    0.250523 0.503742 0.939329 0.328664
H15   H     H_    0.708617 0.864837 0.406825 0.149172
H16   H     H_    0.561270 0.765789 0.394383 0.161654
H17   H     H_    0.731179 0.678087 0.626606 0.143000
H18   H     H_    0.903726 0.747915 0.646574 0.159382
H19   H     H_    0.423402 0.347383 0.027558 0.156171
H20   H     H_    0.755892 0.206648 0.489480 0.181012
H21   H     H_    0.788341 0.023208 0.452842 0.146490
H22   H     H_    0.577805 0.651700 0.972647 0.156422
N1    N     N_R   0.222180 0.444680 0.455580 -0.186610
N2    N     N_R   0.776980 0.554790 0.543960 -0.099361
O1    O     O_R   0.366730 0.627160 0.478790 -0.644476
O2    O     O_3   0.906373 0.269130 0.361630 -0.744396
O3    O     O_3   0.064585 0.298434 0.287560 -0.713394
O4    O     O_3   0.187303 0.552698 0.574902 -0.764734
O5    O     O_3   0.737444 0.385845 0.418194 -0.730480
O6    O     O_3   0.300149 0.503447 0.898921 -0.736898
O7    O     O_R   0.544830 0.662520 0.507160 -0.625313
O8    O     O_R   0.410960 0.482330 0.609040 -0.578579
O9    O     O_R   0.589060 0.517690 0.637410 -0.623147
O10   O     O_R   0.455170 0.337480 0.492840 -0.617534
O11   O     O_R   0.633270 0.372840 0.521210 -0.539798
O12   O     O_R   0.410940 0.482310 0.362590 -0.619392
O13   O     O_R   0.589040 0.517670 0.390960 -0.562041
O14   O     O_3   0.384671 0.075364 0.628785 -0.772219
Zn1   Zn    Zn3+2 0.381080 0.476390 0.481050 0.962344
Zn2   Zn    Zn3+2 0.618920 0.523610 0.518950 0.981259

loop_
_geom_bond_atom_site_label_1
_geom_bond_atom_site_label_2
_ccdc_geom_bond_type
C8    C13   A    
C27   C29   A    
O7    Zn2   S    
C19   C20   A    
C18   C26   A    
H6    O3    S    
C7    C8    A    
C26   C27   A    
C33   C39   S    
C5    C6    A    
C3    H12   S    
C10   C42   A    
C19   N2    A    
C31   N1    A    
C16   O11   A    
C12   C37   S    
C28   O13   A    
C24   C29   A    
C4    O9    A    
C27   O2    S    
N1    Zn1   S    
C38   H13   S    
H14   O6    S    
C22   C25   A    
C20   H18   S    
C2    C16   S    
C9    C10   A    
C4    O8    A    
C24   N2    A    
C18   O3    S    
C4    C35   S    
C21   C22   A    
C36   C41   T    
C34   C41   S    
C30   O4    S    
C38   C39   S    
C34   C39   S    
H2    O14   S    
C13   H16   S    
C19   H17   S    
C25   C26   A    
C23   C37   S    
C5    H3    S    
C31   H4    S    
C32   C34   S    
C12   C40   S    
C9    C14   A    
N2    Zn2   S    
C6    O14   S    
C23   C34   S    
C32   C37   S    
C2    C15   A    
C32   H8    S    
O1    Zn1   S    
H7    O4    S    
C22   C24   A    
O8    Zn1   S    
H5    O2    S    
C21   H9    S    
C28   O12   A    
C25   C30   A    
C7    C9    A    
C16   O10   A    
C15   C42   A    
C3    C5    A    
O10   Zn1   S    
O13   Zn2   S    
O9    Zn2   S    
C6    C7    A    
C23   C38   S    
C1    C17   S    
C8    C17   A    
C1    O7    A    
C32   C33   S    
C35   C40   T    
H10   O5    S    
C11   C13   A    
O12   Zn1   S    
C39   H11   S    
O11   Zn2   S    
C33   H22   S    
C1    O1    A    
C15   H20   S    
C3    C17   A    
C12   C38   S    
C2    C14   A    
C30   N1    A    
C10   C11   A    
C23   H19   S    
C20   C21   A    
C28   C36   S    
C37   O6    S    
C18   C31   A    
C12   C33   S    
C11   H15   S    
C42   H21   S    
C14   H1    S    
C29   O5    S    
