data_mof_unit_60148.cif
_audit_creation_date              2012-12-10T17:09:42-0500
_audit_creation_method            fapswitch 2.2
_symmetry_space_group_name_H-M    P1
_symmetry_Int_Tables_number       1
_space_group_crystal_system       triclinic
_cell_length_a                    21.676292
_cell_length_b                    21.660671
_cell_length_c                    21.764594
_cell_angle_alpha                 119.20104
_cell_angle_beta                  118.934536
_cell_angle_gamma                 89.062517
_cell_volume                      7477.06335729

loop_
_atom_site_label
_atom_site_type_symbol
_atom_type_description
_atom_site_fract_x
_atom_site_fract_y
_atom_site_fract_z
_atom_type_partial_charge
C1    C     C_R   0.495873 0.116668 0.492702 0.896951
C2    C     C_R   0.504127 0.883332 0.507298 0.896938
C3    C     C_1   0.869188 0.376478 0.249312 -0.072626
C4    C     C_1   0.130813 0.623521 0.750688 -0.072626
C5    C     C_3   0.704583 0.210767 0.917713 -0.118106
C6    C     C_3   0.295419 0.789231 0.082288 -0.118107
C7    C     C_3   0.735389 0.222556 0.052514 -0.477622
C8    C     C_3   0.264453 0.777545 0.947488 -0.477612
C9    C     C_3   0.786539 0.293846 0.082646 -0.058959
C10   C     C_3   0.213463 0.706149 0.917354 -0.058968
C11   C     C_3   0.836252 0.271937 0.046724 0.110294
C12   C     C_3   0.163747 0.727871 0.953283 0.110341
C13   C     C_3   0.787553 0.223630 0.949064 0.438320
C14   C     C_3   0.212447 0.776181 0.050943 0.438265
C15   C     C_1   0.831303 0.339519 0.174273 0.112186
C16   C     C_1   0.168699 0.660479 0.825727 0.112200
C17   C     C_1   0.659194 0.165275 0.826105 0.141893
C18   C     C_1   0.340808 0.834723 0.173895 0.141892
C19   C     C_1   0.622651 0.127575 0.751037 -0.064666
C20   C     C_1   0.377349 0.872423 0.248963 -0.064657
C21   C     C_R   0.352332 0.145844 0.395568 0.202224
C22   C     C_R   0.647669 0.854146 0.604411 0.202242
C23   C     C_R   0.580101 0.082405 0.662047 0.913739
C24   C     C_R   0.419899 0.917594 0.337953 0.913720
C25   C     C_R   0.289574 0.170615 0.376680 -0.217305
C26   C     C_R   0.710424 0.829369 0.623282 -0.217333
C27   C     C_R   0.295549 0.244524 0.404844 0.669883
C28   C     C_R   0.704445 0.755459 0.595113 0.669893
C29   C     C_R   0.363744 0.293149 0.447182 -0.275559
C30   C     C_R   0.636249 0.706839 0.552789 -0.275557
C31   C     C_R   0.427810 0.269313 0.467432 -0.020901
C32   C     C_R   0.572187 0.730681 0.532554 -0.020906
C33   C     C_R   0.423661 0.197089 0.450008 0.024581
C34   C     C_R   0.576338 0.802906 0.549981 0.024591
C35   C     C_R   0.491197 0.180066 0.485564 -0.082430
C36   C     C_R   0.508803 0.819935 0.514437 -0.082429
C37   C     C_R   0.558512 0.229756 0.525211 -0.158650
C38   C     C_R   0.441489 0.770251 0.474803 -0.158645
C39   C     C_R   0.560510 0.296156 0.531975 -0.171898
C40   C     C_R   0.439491 0.703850 0.468038 -0.171903
C41   C     C_R   0.496010 0.315747 0.503287 -0.034872
C42   C     C_R   0.503988 0.684252 0.496712 -0.034870
C43   C     C_R   0.762046 0.522147 0.459485 -0.149432
C44   C     C_R   0.237952 0.477849 0.540512 -0.149434
C45   C     C_R   0.726804 0.441752 0.585101 -0.218458
C46   C     C_R   0.273197 0.558259 0.414910 -0.218462
C47   C     C_R   0.819561 0.507605 0.513193 -0.065536
C48   C     C_R   0.180438 0.492394 0.486807 -0.065548
C49   C     C_R   0.883031 0.503519 0.506438 0.892674
C50   C     C_R   0.116969 0.496481 0.493562 0.892683
C51   C     C_R   0.915649 0.419740 0.338237 0.920916
C52   C     C_R   0.084351 0.580260 0.661763 0.920926
C53   C     C_R   0.619713 0.498075 0.498709 0.844098
C54   C     C_R   0.380287 0.501927 0.501291 0.844100
C55   C     C_R   0.499708 0.380398 0.501161 0.845649
C56   C     C_R   0.500292 0.619602 0.498839 0.845656
C57   C     C_R   0.740169 0.473295 0.547532 0.026960
C58   C     C_R   0.259832 0.526709 0.452472 0.026960
C59   C     C_R   0.869606 0.485796 0.629751 0.223402
C60   C     C_R   0.130395 0.514208 0.370252 0.223393
C61   C     C_R   0.855408 0.453914 0.665662 -0.153135
C62   C     C_R   0.144592 0.546095 0.334347 -0.153125
C63   C     C_R   0.783945 0.429973 0.641744 0.285035
C64   C     C_R   0.216057 0.570042 0.358270 0.285026
C65   C     C_R   0.695573 0.516258 0.452809 -0.168478
C66   C     C_R   0.304425 0.483738 0.547187 -0.168475
C67   C     C_R   0.684860 0.492566 0.496866 -0.056622
C68   C     C_R   0.315139 0.507435 0.503134 -0.056622
C69   C     C_R   0.810906 0.488031 0.562841 0.037191
C70   C     C_R   0.189094 0.511971 0.437161 0.037184
C71   C     C_3   0.685742 0.174129 0.955316 0.193560
C72   C     C_3   0.314103 0.825976 0.044685 0.193578
C73   C     C_3   0.690182 0.287637 0.949892 0.303782
C74   C     C_3   0.309984 0.712439 0.050100 0.303800
C75   C     C_3   0.736842 0.336026 0.047473 -0.037639
C76   C     C_3   0.263325 0.664055 0.952519 -0.037674
H1    H     H_    0.800334 0.253456 0.925109 0.067750
H2    H     H_    0.199785 0.746288 0.074899 0.067754
H3    H     H_    0.768617 0.191217 0.077250 0.264636
H4    H     H_    0.231105 0.808830 0.922760 0.264648
H5    H     H_    0.871656 0.322957 0.066639 0.151412
H6    H     H_    0.128461 0.676776 0.933369 0.151385
H7    H     H_    0.610316 0.217732 0.552141 0.194332
H8    H     H_    0.389685 0.782278 0.447884 0.194345
H9    H     H_    0.235409 0.131621 0.336033 0.218887
H10   H     H_    0.764590 0.868358 0.663921 0.218866
H11   H     H_    0.366150 0.349496 0.464302 0.162462
H12   H     H_    0.633841 0.650491 0.535666 0.162446
H13   H     H_    0.672256 0.426586 0.571054 0.154119
H14   H     H_    0.327746 0.573427 0.428960 0.154108
H15   H     H_    0.612518 0.332189 0.559235 0.172421
H16   H     H_    0.387483 0.667820 0.440785 0.172416
H17   H     H_    0.652615 0.530955 0.413921 0.157427
H18   H     H_    0.347382 0.469038 0.586072 0.157440
H19   H     H_    0.768304 0.537298 0.421700 0.167857
H20   H     H_    0.231694 0.462695 0.578294 0.167878
H21   H     H_    0.900576 0.452248 0.716479 0.211871
H22   H     H_    0.099425 0.547764 0.283531 0.211901
H23   H     H_    0.700014 0.237286 0.078343 0.176697
H24   H     H_    0.299827 0.762950 0.921651 0.176706
H25   H     H_    0.627392 0.169996 0.936181 0.178404
H26   H     H_    0.372462 0.830241 0.063813 0.178400
H27   H     H_    0.704672 0.315033 0.924783 0.151756
H28   H     H_    0.295605 0.684964 0.075206 0.151736
H29   H     H_    0.699130 0.348043 0.070212 0.216802
H30   H     H_    0.301036 0.652177 0.929777 0.216804
O1    O     O_R   0.448260 0.091600 0.499990 -0.597380
O2    O     O_R   0.551740 0.908400 0.500010 -0.597396
O3    O     O_R   0.556960 0.465330 0.430620 -0.619990
O4    O     O_R   0.443040 0.534670 0.569380 -0.619974
O5    O     O_R   0.534700 0.443070 0.569370 -0.614901
O6    O     O_R   0.465300 0.556930 0.430630 -0.614918
O7    O     O_R   0.465330 0.373710 0.430660 -0.600956
O8    O     O_R   0.534670 0.626290 0.569340 -0.600935
O9    O     O_R   0.551730 0.091620 0.499980 -0.624945
O10   O     O_R   0.448270 0.908380 0.500020 -0.624938
O11   O     O_R   0.509690 0.061420 0.622860 -0.610977
O12   O     O_R   0.490310 0.938580 0.377140 -0.610984
O13   O     O_R   0.613170 0.061430 0.622850 -0.575072
O14   O     O_R   0.386830 0.938570 0.377150 -0.575022
O15   O     O_R   0.908550 0.551730 0.500000 -0.605704
O16   O     O_R   0.091450 0.448270 0.500000 -0.605699
O17   O     O_R   0.908530 0.448300 0.500020 -0.612564
O18   O     O_R   0.091470 0.551700 0.499980 -0.612559
O19   O     O_R   0.938770 0.490290 0.377130 -0.581683
O20   O     O_R   0.061230 0.509710 0.622870 -0.581670
O21   O     O_R   0.938740 0.386860 0.377150 -0.602863
O22   O     O_R   0.061260 0.613140 0.622850 -0.602894
O23   O     O_R   0.626330 0.534680 0.569330 -0.599094
O24   O     O_R   0.373670 0.465320 0.430670 -0.599105
Zn1   Zn    Zn3+2 0.430910 0.999990 0.500010 1.067722
Zn2   Zn    Zn3+2 0.569090 0.000010 0.499990 1.067677
Zn3   Zn    Zn3+2 0.000200 0.569060 0.499990 1.069142
Zn4   Zn    Zn3+2 0.999800 0.430940 0.500010 1.069172
Zn5   Zn    Zn3+2 0.546330 0.546310 0.592620 1.045217
Zn6   Zn    Zn3+2 0.453670 0.453690 0.407380 1.045155
Br1   Br    Br    0.766463 0.389956 0.694957 -0.471319
Br2   Br    Br    0.233540 0.610075 0.305071 -0.471347
Br3   Br    Br    0.905729 0.224293 0.093131 -0.255173
Br4   Br    Br    0.094073 0.775388 0.906884 -0.255087
Br5   Br    Br    0.691715 0.072640 0.912601 -0.302915
Br6   Br    Br    0.307916 0.927398 0.087411 -0.302794
Br7   Br    Br    0.333114 0.042437 0.322140 -0.383517
Br8   Br    Br    0.666898 0.957555 0.677850 -0.383468
F1    F     F_    0.234378 0.267954 0.385522 -0.618014
F2    F     F_    0.765611 0.732022 0.614416 -0.618027
Br9   Br    Br    0.966689 0.548771 0.697048 -0.443468
Br10  Br    Br    0.033312 0.451229 0.302952 -0.443468
F3    F     F_    0.616106 0.279947 0.920464 -0.624538
F4    F     F_    0.384075 0.720293 0.079525 -0.624534
Br11  Br    Br    0.792889 0.432209 0.088540 -0.436794
Br12  Br    Br    0.207495 0.567763 0.911445 -0.436943
F5    F     F_    0.803439 0.157035 0.916763 -0.527487
F6    F     F_    0.196425 0.842694 0.083247 -0.527509

loop_
_geom_bond_atom_site_label_1
_geom_bond_atom_site_label_2
_ccdc_geom_bond_type
C66   C68   A    
C27   C29   A    
O14   Zn1   S    
C73   C75   S    
C44   C66   A    
C50   O16   A    
O21   Zn4   S    
C52   O22   A    
C39   C41   A    
C64   Br2   S    
C11   H5    S    
C72   Br6   S    
C45   C57   A    
C53   C67   S    
C7    H23   S    
O18   Zn3   S    
C4    C52   S    
C74   H28   S    
C35   C37   A    
O6    Zn6   S    
C8    H24   S    
C7    C71   S    
C21   C33   A    
C76   Br12  S    
C53   O3    A    
C49   O17   A    
C2    C36   S    
C54   O4    A    
C18   C20   T    
C60   C62   A    
C61   C63   A    
C11   Br3   S    
C41   C55   S    
C62   C64   A    
C42   C56   S    
C62   H22   S    
C2    O10   A    
O16   Zn4   S    
C20   C24   S    
C75   Br11  S    
C65   C67   A    
O7    Zn6   S    
C43   H19   S    
O8    Zn5   S    
C12   Br4   S    
C9    C75   S    
C30   C32   A    
C45   H13   S    
C5    C13   S    
C27   F1    S    
C71   Br5   S    
C73   F3    S    
C48   C50   S    
C71   H25   S    
O23   Zn5   S    
C14   F6    S    
O3    Zn6   S    
C29   C31   A    
C63   Br1   S    
O4    Zn5   S    
C10   C76   S    
C57   C67   A    
C6    C18   S    
C39   H15   S    
C25   H9    S    
C6    C74   S    
O9    Zn2   S    
O15   Zn3   S    
C22   C34   A    
C13   H1    S    
C59   C61   A    
C24   O14   A    
O17   Zn4   S    
C74   F4    S    
C51   O19   A    
C50   O18   A    
C21   Br7   S    
C47   C49   S    
C65   H17   S    
C52   O20   A    
C19   C23   S    
C58   C70   A    
C54   O24   A    
C26   H10   S    
C55   O7    A    
C45   C63   A    
C46   C64   A    
C32   C34   A    
C37   C39   A    
C4    C16   T    
C6    C72   S    
C44   H20   S    
C6    C14   S    
C60   C70   A    
C43   C65   A    
C54   C68   S    
C49   O15   A    
C58   C68   A    
C31   C33   A    
O13   Zn2   S    
C12   H6    S    
C40   H16   S    
C9    C11   S    
C13   F5    S    
C10   C12   S    
C59   C69   A    
O24   Zn6   S    
O1    Zn1   S    
C1    O1    A    
C75   H29   S    
C53   O23   A    
C74   C76   S    
C30   H12   S    
C36   C38   A    
C3    C15   T    
C1    C35   S    
C7    H3    S    
O19   Zn3   S    
C7    C9    S    
C21   C25   A    
O2    Zn2   S    
C76   H30   S    
C31   C41   A    
C55   O5    A    
C9    C15   S    
C8    C72   S    
C28   F2    S    
C61   H21   S    
C48   C70   A    
C40   C42   A    
C23   O11   A    
C46   H14   S    
C25   C27   A    
C1    O9    A    
C26   C28   A    
C47   C69   A    
C66   H18   S    
C51   O21   A    
C28   C30   A    
C12   C14   S    
C38   H8    S    
C5    C71   S    
C10   C16   S    
O22   Zn3   S    
C38   C40   A    
C11   C13   S    
O5    Zn5   S    
O10   Zn1   S    
C72   H26   S    
C2    O2    A    
C24   O12   A    
C33   C35   A    
C3    C51   S    
C34   C36   A    
C14   H2    S    
C5    C73   S    
O11   Zn1   S    
C29   H11   S    
O12   Zn2   S    
C17   C19   T    
C56   O8    A    
C73   H27   S    
C5    C17   S    
O20   Zn4   S    
C8    C10   S    
C22   C26   A    
C22   Br8   S    
C8    H4    S    
C32   C42   A    
C37   H7    S    
C23   O13   A    
C60   Br10  S    
C57   C69   A    
C43   C47   A    
C56   O6    A    
C46   C58   A    
C44   C48   A    
C59   Br9   S    
