data_mof_unit_57795.cif
_audit_creation_date              2012-12-11T15:55:44-0500
_audit_creation_method            fapswitch 2.2
_symmetry_space_group_name_H-M    P1
_symmetry_Int_Tables_number       1
_space_group_crystal_system       triclinic
_cell_length_a                    11.117586
_cell_length_b                    11.151281
_cell_length_c                    18.59093
_cell_angle_alpha                 90.742256
_cell_angle_beta                  90.961293
_cell_angle_gamma                 59.595876
_cell_volume                      1987.54546556

loop_
_atom_site_label
_atom_site_type_symbol
_atom_type_description
_atom_site_fract_x
_atom_site_fract_y
_atom_site_fract_z
_atom_type_partial_charge
C1    C     C_R   0.382304 0.717016 0.388539 0.530744
C2    C     C_R   0.615886 0.193352 0.151449 0.030044
C3    C     C_R   0.356907 0.351583 0.157842 -0.011701
C4    C     C_R   0.504414 0.330735 0.259957 -0.122191
C5    C     C_R   0.491634 0.306729 0.186619 -0.018216
C6    C     C_R   0.088901 0.484840 0.379544 -0.079751
C7    C     C_R   0.001148 0.586410 0.428914 -0.077146
C8    C     C_R   0.679451 0.058854 0.181600 0.247407
C9    C     C_R   0.790734 0.947452 0.146198 -0.041751
C10   C     C_R   0.240086 0.429426 0.201050 -0.112205
C11   C     C_R   0.252135 0.438851 0.274836 -0.032661
C12   C     C_R   0.416649 0.380569 0.383055 0.532239
C13   C     C_R   0.935912 0.728316 0.410650 0.270937
C14   C     C_R   0.941652 0.764157 0.339847 -0.000904
C15   C     C_R   0.029420 0.663470 0.291262 -0.179565
C16   C     C_R   0.119229 0.526560 0.314504 0.011177
C17   C     C_R   0.389129 0.381352 0.305533 -0.012195
C18   C     C_R   0.940241 0.299959 0.194114 0.009114
C19   C     C_R   0.930636 0.194882 0.230198 0.023609
C20   C     C_R   0.893431 0.210591 0.302828 0.012575
C21   C     C_R   0.887412 0.428805 0.304141 -0.179145
C22   C     C_R   0.921562 0.415278 0.232626 -0.178779
C23   C     C_R   0.781899 0.376321 0.404747 0.519087
C24   C     C_3   0.047259 0.049853 0.241302 -0.249731
C25   C     C_3   0.011546 0.068515 0.319975 -0.259782
C26   C     C_R   0.865649 0.331375 0.339533 -0.001802
C27   C     C_R   0.377832 0.790866 0.161369 -0.009098
C28   C     C_R   0.466821 0.808071 0.207505 -0.090511
C29   C     C_R   0.458771 0.798068 0.282207 -0.022861
C30   C     C_R   0.300910 0.715514 0.263598 -0.141459
C31   C     C_R   0.307220 0.725561 0.188588 0.255359
C32   C     C_3   0.621859 0.716175 0.211507 -0.213818
C33   C     C_3   0.611429 0.722704 0.292499 0.154347
C34   C     C_R   0.369278 0.711716 0.611589 0.545839
C35   C     C_R   0.373335 0.754329 0.311700 -0.075577
C36   C     C_R   0.305254 0.315722 0.812632 0.040604
C37   C     C_R   0.278853 0.239503 0.760621 0.022773
C38   C     C_R   0.285577 0.258808 0.688204 0.004435
C39   C     C_R   0.355359 0.426511 0.717927 -0.091854
C40   C     C_R   0.343540 0.412006 0.791205 0.170578
C41   C     C_3   0.344158 0.085483 0.749715 0.102880
C42   C     C_3   0.341167 0.109902 0.669602 -0.200129
C43   C     C_R   0.332507 0.345883 0.666890 0.020376
C44   C     C_R   0.928620 0.280353 0.820195 -0.041902
C45   C     C_R   0.369350 0.350848 0.594583 0.534820
C46   C     C_R   0.959373 0.361785 0.776945 -0.040082
C47   C     C_R   0.926335 0.378049 0.704865 0.045222
C48   C     C_R   0.852244 0.208928 0.712213 0.243261
C49   C     C_R   0.885291 0.195615 0.786559 -0.120546
C50   C     C_3   0.933407 0.505824 0.786186 -0.205287
C51   C     C_3   0.899736 0.524107 0.706386 0.158670
C52   C     C_R   0.858186 0.313992 0.672581 0.024220
C53   C     C_R   0.309128 0.815575 0.833877 -0.038848
C54   C     C_R   0.196169 0.847681 0.788534 0.063598
C55   C     C_R   0.214042 0.824486 0.715339 -0.052007
C56   C     C_R   0.773341 0.371472 0.606950 0.547665
C57   C     C_R   0.464248 0.700329 0.736032 0.226974
C58   C     C_R   0.443950 0.742907 0.807528 -0.066082
C59   C     C_3   0.100910 0.790116 0.792873 0.169320
C60   C     C_3   0.107116 0.780531 0.711877 -0.210703
C61   C     C_R   0.349313 0.751229 0.687478 -0.014139
C62   C     C_R   0.971369 0.289842 0.118035 0.550769
C63   C     C_R   0.329267 0.297174 0.090908 0.503178
C64   C     C_R   0.312058 0.890272 0.101956 0.517529
C65   C     C_R   0.948030 0.280663 0.897679 0.583801
C66   C     C_R   0.295786 0.287438 0.886187 0.522333
C67   C     C_R   0.831950 0.965216 0.078460 0.221403
C68   C     C_R   0.278284 0.887602 0.901341 0.518948
C69   C     C_R   0.761931 0.097598 0.046618 -0.075731
C70   C     C_R   0.657679 0.211762 0.083781 -0.129361
Cr1   Cr    Cr6+3 0.601740 0.606840 0.505840 0.967881
Cr2   Cr    Cr6+3 0.291500 0.601560 0.495070 1.010640
Cr3   Cr    Cr6+3 0.606780 0.291630 0.499130 1.053191
Cr4   Cr    Cr6+3 0.062440 0.063060 0.008240 1.017559
Cr5   Cr    Cr6+3 0.062950 0.375000 0.998920 1.003057
Cr6   Cr    Cr6+3 0.374550 0.061770 0.992470 0.991899
H1    H     H_    0.607574 0.290893 0.283376 0.145427
H2    H     H_    0.879950 0.870965 0.322795 0.171445
H3    H     H_    0.039844 0.696543 0.238492 0.146136
H4    H     H_    0.865429 0.524262 0.329804 0.180806
H5    H     H_    0.927388 0.498752 0.207136 0.142325
H6    H     H_    0.150914 0.037800 0.230684 0.129590
H7    H     H_    0.026615 0.972619 0.214115 0.180793
H8    H     H_    0.975176 0.999646 0.339844 0.162041
H9    H     H_    0.093228 0.070407 0.354599 0.149029
H10   H     H_    0.243723 0.672718 0.285341 0.155341
H11   H     H_    0.841159 0.845171 0.169918 0.135047
H12   H     H_    0.677300 0.766568 0.189336 0.176020
H13   H     H_    0.656175 0.611064 0.188831 0.111694
H14   H     H_    0.645067 0.623413 0.318958 0.144537
H15   H     H_    0.393543 0.492802 0.700799 0.107144
H16   H     H_    0.276423 0.044614 0.766385 0.112570
H17   H     H_    0.445648 0.059731 0.644337 0.168411
H18   H     H_    0.990507 0.553817 0.481518 0.094520
H19   H     H_    0.262618 0.093854 0.640035 0.115938
H20   H     H_    0.865839 0.128886 0.819271 0.198874
H21   H     H_    0.028444 0.509342 0.801340 0.151504
H22   H     H_    0.840617 0.572511 0.819616 0.131770
H23   H     H_    0.789996 0.606529 0.695928 0.195550
H24   H     H_    0.532756 0.712029 0.843281 0.143327
H25   H     H_    0.151479 0.688431 0.820914 0.156621
H26   H     H_    0.148447 0.673570 0.691460 0.140185
H27   H     H_    0.010292 0.859698 0.684312 0.202632
H28   H     H_    0.787284 0.112073 0.992879 0.142528
H29   H     H_    0.605330 0.312825 0.058438 0.111468
H30   H     H_    0.146777 0.376818 0.395801 0.129368
H31   H     H_    0.136289 0.473092 0.178351 0.152654
O1    O     O_R   0.748670 0.497520 0.427970 -0.559768
O2    O     O_R   0.300170 0.471020 0.567120 -0.515737
O3    O     O_R   0.491630 0.259030 0.574940 -0.523853
O4    O     O_R   0.718640 0.304340 0.577850 -0.447510
O5    O     O_3   0.500010 0.500010 0.500020 -0.315414
O6    O     O_R   0.186620 0.923750 0.087000 -0.478209
O7    O     O_R   0.957350 0.194160 0.084660 -0.494085
O8    O     O_R   0.935120 0.407280 0.085350 -0.515736
O9    O     O_R   0.203800 0.365060 0.067090 -0.522813
O10   O     O_R   0.417470 0.174910 0.067830 -0.518277
O11   O     O_R   0.375160 0.946380 0.070880 -0.512814
O12   O     O_R   0.476470 0.723930 0.429450 -0.522136
O13   O     O_R   0.160500 0.919670 0.926690 -0.498764
O14   O     O_R   0.933140 0.190380 0.936050 -0.517048
O15   O     O_R   0.909010 0.403210 0.925030 -0.508483
O16   O     O_R   0.179590 0.361290 0.918480 -0.537669
O17   O     O_R   0.391360 0.170840 0.907510 -0.502194
O18   O     O_R   0.350950 0.942600 0.922260 -0.532603
O19   O     O_3   0.166650 0.166610 0.999880 -0.293514
O20   O     O_R   0.264730 0.744140 0.416740 -0.494728
O21   O     O_R   0.309440 0.472410 0.418220 -0.514071
O22   O     O_R   0.501630 0.260530 0.414310 -0.498037
O23   O     O_R   0.727920 0.305730 0.428950 -0.494794
O24   O     O_R   0.738670 0.496020 0.588600 -0.530747
O25   O     O_R   0.467190 0.722540 0.578350 -0.474392
O26   O     O_R   0.254720 0.742640 0.577370 -0.503877
O27   O     O_3   0.866353 0.834146 0.459702 -0.732729
H32   H     H_    0.856905 0.794305 0.504696 0.289122
O28   O     O_3   0.226187 0.690820 0.145040 -0.544655
C71   C     C_3   0.298141 0.620437 0.081737 -0.061344
H33   H     H_    0.244534 0.569121 0.057195 0.162604
H34   H     H_    0.408733 0.540521 0.092955 0.077330
H35   H     H_    0.293917 0.691789 0.039754 0.146309
O29   O     O_3   0.667619 0.802592 0.321198 -0.564801
C72   C     C_3   0.612268 0.862016 0.388936 -0.042835
H36   H     H_    0.660138 0.782575 0.431812 0.163703
H37   H     H_    0.496697 0.917627 0.390343 0.117830
H38   H     H_    0.637713 0.944497 0.400129 0.201814
O30   O     O_3   0.383211 0.482475 0.838659 -0.735544
H39   H     H_    0.369516 0.463405 0.888759 0.317132
O31   O     O_3   0.482505 0.012318 0.775249 -0.722307
H40   H     H_    0.482208 0.966595 0.820344 0.353011
O32   O     O_3   0.813217 0.122211 0.677958 -0.556410
C73   C     C_3   0.697696 0.128734 0.712055 -0.064502
H41   H     H_    0.648413 0.088089 0.674424 0.173926
H42   H     H_    0.618713 0.236706 0.727118 0.131648
H43   H     H_    0.730279 0.061774 0.760062 0.161620
O33   O     O_3   0.003280 0.533229 0.668164 -0.579214
C74   C     C_3   0.939118 0.648940 0.622545 -0.150499
H44   H     H_    0.881424 0.747189 0.653886 0.109621
H45   H     H_    0.866114 0.639839 0.584404 0.129626
H46   H     H_    0.021035 0.653246 0.591483 0.161824
O34   O     O_3   0.592950 0.593639 0.718353 -0.726254
H47   H     H_    0.576778 0.529034 0.688643 0.314919
O35   O     O_3   0.969357 0.889131 0.819426 -0.579634
C75   C     C_3   0.893438 0.823680 0.836543 -0.152651
H48   H     H_    0.949741 0.739513 0.876742 0.122601
H49   H     H_    0.868240 0.783528 0.787075 0.133084
H50   H     H_    0.793481 0.901787 0.861195 0.148938
O36   O     O_3   0.938126 0.851185 0.044174 -0.689400
H51   H     H_    0.955110 0.881117 0.997299 0.334295
O37   O     O_3   0.632848 0.034090 0.245348 -0.555761
C76   C     C_3   0.496436 0.056331 0.235010 -0.057707
H52   H     H_    0.479954 0.021640 0.181465 0.151260
H53   H     H_    0.413484 0.161851 0.245427 0.105911
H54   H     H_    0.471534 0.009567 0.278560 0.167554

loop_
_geom_bond_atom_site_label_1
_geom_bond_atom_site_label_2
_ccdc_geom_bond_type
C44   C49   A    
C7    C13   A    
C21   C26   A    
Cr2   O5    S    
C48   O32   S    
Cr5   O15   S    
Cr6   O19   S    
C41   C42   S    
C75   H48   S    
C10   H31   S    
Cr3   O3    S    
C53   C54   A    
C71   H34   S    
C51   O33   S    
O35   C75   S    
C76   H53   S    
C30   C35   A    
Cr2   O21   S    
Cr5   O16   S    
C36   C37   A    
C75   H49   S    
C24   H7    S    
C62   O7    A    
C30   C31   A    
C63   O10   A    
C45   O2    A    
C23   C26   S    
C76   H52   S    
C15   C16   A    
C42   H17   S    
C13   O27   S    
C29   C33   S    
C31   O28   S    
C64   O11   A    
C18   C19   A    
C1    O12   A    
C73   H43   S    
C53   C68   S    
C24   H6    S    
Cr1   O25   S    
C54   C55   A    
O29   C72   S    
C15   H3    S    
C19   C20   A    
C8    C9    A    
C12   C17   S    
Cr4   O14   S    
C25   H8    S    
C73   H41   S    
C65   O14   A    
C30   H10   S    
C60   H27   S    
C56   O4    A    
C55   C60   S    
C14   H2    S    
C34   O25   A    
C59   C60   S    
C13   C14   A    
Cr6   O18   S    
C72   H38   S    
C44   C65   S    
C60   H26   S    
C39   H15   S    
Cr4   O7    S    
C44   C46   A    
Cr3   O4    S    
C54   C59   S    
C51   H23   S    
C71   H35   S    
Cr3   O22   S    
C50   H22   S    
C72   H36   S    
C12   O22   A    
Cr2   O20   S    
C27   C31   A    
C42   H19   S    
C59   H25   S    
C22   H5    S    
C28   C32   S    
C75   H50   S    
C58   H24   S    
O31   H40   S    
C10   C11   A    
O36   H51   S    
C45   O3    A    
C4    C5    A    
C47   C51   S    
C34   O26   A    
C33   O29   S    
Cr4   O6    S    
Cr2   O26   S    
C34   C61   S    
Cr6   O11   S    
C23   O23   A    
C67   C69   A    
Cr6   O17   S    
C9    C67   A    
C37   C38   A    
C11   C16   S    
Cr2   O2    S    
C32   H13   S    
C14   C15   A    
C36   C40   A    
Cr3   O23   S    
Cr1   O5    S    
C40   O30   S    
C25   H9    S    
C50   C51   S    
C6    H30   S    
O37   C76   S    
C65   O15   A    
C24   C25   S    
C57   C61   A    
C43   C45   S    
C6    C7    A    
C63   O9    A    
C48   C49   A    
C57   O34   S    
C66   O17   A    
C38   C43   A    
C2    C5    S    
Cr5   O8    S    
C4    C17   A    
C39   C40   A    
C72   H37   S    
C8    O37   S    
C1    C35   S    
Cr3   O5    S    
O30   H39   S    
C69   H28   S    
C67   O36   S    
C7    H18   S    
C46   C50   S    
C46   C47   A    
C28   C29   A    
C50   H21   S    
C64   O6    A    
C18   C22   A    
C74   H46   S    
C2    C8    A    
C1    O20   A    
O28   C71   S    
C3    C5    A    
C70   H29   S    
C11   C17   A    
C39   C43   A    
C53   C58   A    
C38   C42   S    
C47   C52   A    
C12   O21   A    
C3    C63   S    
Cr4   O13   S    
C71   H33   S    
C29   C35   A    
O27   H32   S    
Cr6   O10   S    
O32   C73   S    
Cr1   O12   S    
Cr5   O19   S    
C32   C33   S    
C74   H45   S    
C19   C24   S    
C4    H1    S    
C59   O35   S    
C2    C70   A    
C33   H14   S    
C68   O13   A    
C57   C58   A    
Cr4   O19   S    
C41   O31   S    
C20   C26   A    
C23   O1    A    
C55   C61   A    
C21   H4    S    
C36   C66   S    
C73   H42   S    
C49   H20   S    
C37   C41   S    
C69   C70   A    
O34   H47   S    
C56   O24   A    
C27   C64   S    
C6    C16   A    
C48   C52   A    
C41   H16   S    
C74   H44   S    
Cr1   O24   S    
C20   C25   S    
O33   C74   S    
C3    C10   A    
C62   O8    A    
C66   O16   A    
C18   C62   S    
Cr5   O9    S    
C21   C22   A    
C68   O18   A    
C9    H11   S    
C52   C56   S    
Cr1   O1    S    
C27   C28   A    
C76   H54   S    
C32   H12   S    
