data_mof_unit_33510.cif
_audit_creation_date              2012-12-11T17:02:12-0500
_audit_creation_method            fapswitch 2.2
_symmetry_space_group_name_H-M    P1
_symmetry_Int_Tables_number       1
_space_group_crystal_system       triclinic
_cell_length_a                    21.660187
_cell_length_b                    7.067788
_cell_length_c                    14.846026
_cell_angle_alpha                 90.372784
_cell_angle_beta                  106.02924
_cell_angle_gamma                 90.134294
_cell_volume                      2184.34248742

loop_
_atom_site_label
_atom_site_type_symbol
_atom_type_description
_atom_site_fract_x
_atom_site_fract_y
_atom_site_fract_z
_atom_type_partial_charge
O1    O     O_R   0.585850 0.505770 0.002130 -0.537523
O2    O     O_R   0.414150 0.005770 0.997870 -0.537153
O3    O     O_R   0.467530 0.173560 0.861970 -0.538839
O4    O     O_R   0.532470 0.673560 0.138030 -0.538710
C1    C     C_R   0.455522 0.343579 0.825265 0.684812
C2    C     C_R   0.544396 0.845252 0.174627 0.685292
O5    O     O_R   0.588690 0.175900 0.993250 -0.544557
O6    O     O_R   0.411310 0.675900 0.006750 -0.544975
O7    O     O_R   0.536170 0.007950 0.130090 -0.536464
O8    O     O_R   0.463830 0.507950 0.869910 -0.536994
C3    C     C_R   0.615120 0.344816 0.997967 0.689405
C4    C     C_R   0.384871 0.844531 0.001981 0.688863
O9    O     O_3   0.482630 0.339970 0.044740 -0.373303
O10   O     O_3   0.517370 0.839970 0.955260 -0.373449
V1    V     V_3+5 0.503220 0.064200 0.991700 1.409944
V2    V     V_3+5 0.496780 0.564200 0.008300 1.408722
C5    C     C_R   0.277414 0.007599 0.958768 0.113545
C6    C     C_R   0.722914 0.508630 0.041617 0.109439
C7    C     C_R   0.315576 0.852487 0.997638 -0.111665
C8    C     C_R   0.684393 0.353009 0.002223 -0.108363
C9    C     C_R   0.284686 0.700635 0.028648 -0.187559
C10   C     C_R   0.714948 0.200211 0.970956 -0.185461
H1    H     H_    0.311747 0.577002 0.058419 0.138587
H2    H     H_    0.687608 0.075983 0.940917 0.136390
C11   C     C_R   0.219500 0.712165 0.027569 -0.176205
C12   C     C_R   0.780181 0.211318 0.972191 -0.176644
H3    H     H_    0.198461 0.596158 0.056145 0.131788
H4    H     H_    0.800960 0.094670 0.943334 0.129343
C13   C     C_R   0.183157 0.876295 0.995767 -0.110391
C14   C     C_R   0.816893 0.375894 0.004446 -0.107441
C15   C     C_R   0.213043 0.019416 0.958035 0.104681
C16   C     C_R   0.787325 0.520022 0.042481 0.102426
C17   C     C_3   0.218285 0.226040 0.979446 -0.417826
C18   C     C_3   0.782663 0.726312 0.021705 -0.415091
C19   C     C_3   0.288385 0.213336 0.979774 -0.402479
C20   C     C_3   0.712505 0.714027 0.021218 -0.403790
H5    H     H_    0.211735 0.259134 0.049541 0.164924
H6    H     H_    0.789363 0.758038 0.951745 0.166604
H7    H     H_    0.188761 0.311553 0.920694 0.176557
H8    H     H_    0.812386 0.812766 0.080745 0.175783
H9    H     H_    0.322458 0.239780 0.049920 0.169690
H10   H     H_    0.678541 0.739282 0.951119 0.170824
H11   H     H_    0.299239 0.290971 0.921008 0.167043
H12   H     H_    0.701813 0.792815 0.080186 0.166356
C21   C     C_R   0.927234 0.879717 0.723736 -0.029004
C22   C     C_R   0.072664 0.389710 0.276634 -0.031593
C23   C     C_R   0.572551 0.857091 0.275858 -0.027280
C24   C     C_R   0.427538 0.347028 0.723759 -0.029875
C25   C     C_R   0.938516 0.824726 0.568635 -0.162405
C26   C     C_R   0.063026 0.449573 0.432315 -0.163170
C27   C     C_R   0.966100 0.845100 0.664645 -0.174498
C28   C     C_R   0.035048 0.435748 0.336159 -0.171980
C29   C     C_R   0.860644 0.893664 0.687057 -0.212571
C30   C     C_R   0.138571 0.358475 0.313217 -0.214141
C31   C     C_R   0.831098 0.871574 0.589759 0.084662
C32   C     C_R   0.168761 0.376874 0.410600 0.084309
C33   C     C_R   0.871633 0.836788 0.530872 0.140650
C34   C     C_R   0.129346 0.422377 0.469825 0.140872
C35   C     C_R   0.763021 0.881049 0.549276 0.059119
C36   C     C_R   0.236538 0.355389 0.450772 0.059246
C37   C     C_R   0.736779 0.855387 0.450273 0.058341
C38   C     C_R   0.263556 0.379643 0.549755 0.058520
C39   C     C_R   0.779474 0.821403 0.395111 -0.187961
C40   C     C_R   0.221857 0.423169 0.605279 -0.188685
C41   C     C_R   0.845338 0.812685 0.434788 -0.202970
C42   C     C_R   0.156300 0.443591 0.565939 -0.203068
C43   C     C_R   0.720325 0.914929 0.604444 -0.188396
C44   C     C_R   0.278221 0.311551 0.395268 -0.189046
C45   C     C_R   0.654468 0.923663 0.564785 -0.203460
C46   C     C_R   0.343788 0.291397 0.434580 -0.203461
C47   C     C_R   0.628172 0.899694 0.468704 0.141268
C48   C     C_R   0.370771 0.313169 0.530654 0.141411
C49   C     C_R   0.668701 0.864953 0.409798 0.083635
C50   C     C_R   0.331354 0.358569 0.589893 0.083362
C51   C     C_R   0.561291 0.911844 0.430971 -0.162274
C52   C     C_R   0.437128 0.286661 0.568105 -0.163024
C53   C     C_R   0.533696 0.891629 0.334966 -0.175817
C54   C     C_R   0.465154 0.301131 0.664221 -0.173120
C55   C     C_R   0.639145 0.843033 0.312497 -0.210179
C56   C     C_R   0.361579 0.377488 0.687241 -0.211999
H13   H     H_    0.876084 0.785883 0.389547 0.121473
H14   H     H_    0.126369 0.478143 0.611422 0.122134
H15   H     H_    0.666123 0.817888 0.262602 0.090695
H16   H     H_    0.335350 0.409358 0.737376 0.093162
H17   H     H_    0.482121 0.904053 0.306654 0.102710
H18   H     H_    0.516092 0.274711 0.692357 0.103447
H19   H     H_    0.623724 0.950389 0.610038 0.120436
H20   H     H_    0.373711 0.256734 0.389100 0.121091
H21   H     H_    0.969497 0.797684 0.523807 0.113239
H22   H     H_    0.032943 0.485403 0.477365 0.113249
H23   H     H_    0.017676 0.832740 0.692975 0.103771
H24   H     H_    0.984145 0.462682 0.307989 0.104584
H25   H     H_    0.833660 0.918885 0.736933 0.088888
H26   H     H_    0.164804 0.326507 0.263100 0.091418
H27   H     H_    0.736002 0.935990 0.679145 0.120087
H28   H     H_    0.261908 0.290823 0.320584 0.120104
H29   H     H_    0.530320 0.938836 0.475819 0.113114
H30   H     H_    0.467210 0.250911 0.523042 0.113118
O11   O     O_R   0.036080 0.231270 0.130120 -0.538340
O12   O     O_R   0.963920 0.731270 0.869880 -0.538022
O13   O     O_R   0.911300 0.558970 0.006750 -0.540756
O14   O     O_R   0.088700 0.058970 0.993250 -0.540922
C57   C     C_R   0.884796 0.389734 0.001683 0.689669
C58   C     C_R   0.115220 0.890038 0.998397 0.689119
O15   O     O_R   0.032450 0.561140 0.138040 -0.539895
O16   O     O_R   0.967550 0.061140 0.861960 -0.539623
O17   O     O_R   0.085870 0.728910 0.002130 -0.540930
O18   O     O_R   0.914130 0.228910 0.997870 -0.541178
C59   C     C_R   0.044731 0.393381 0.175104 0.690149
C60   C     C_R   0.955365 0.891682 0.824994 0.690379
O19   O     O_3   0.017320 0.394650 0.955270 -0.372700
O20   O     O_3   0.982680 0.894650 0.044730 -0.372884
V3    V     V_3+5 0.996780 0.670490 0.008300 1.411733
V4    V     V_3+5 0.003220 0.170490 0.991700 1.411145
H31   H     H_    0.763791 0.800214 0.320412 0.122456
H32   H     H_    0.238152 0.443444 0.679996 0.122324

loop_
_geom_bond_atom_site_label_1
_geom_bond_atom_site_label_2
_ccdc_geom_bond_type
C14   C16   A    
C39   C41   A    
O12   C60   A    
C40   H32   S    
C31   C35   A    
O13   V3    S    
C20   H10   S    
O1    C3    A    
C23   C55   A    
C56   H16   S    
C46   H20   S    
O11   V4    S    
O20   V4    S    
O5    C3    A    
C44   H28   S    
O16   V4    S    
C18   H8    S    
O15   V3    S    
C7    C9    A    
C52   C54   A    
C17   C19   S    
C21   C27   A    
O18   V4    S    
O11   C59   A    
C22   C28   A    
C51   H29   S    
C25   C33   A    
C36   C38   A    
C24   C54   A    
C45   C47   A    
O17   V3    S    
C38   C40   A    
C35   C43   A    
C34   C42   A    
C25   C27   A    
C14   C57   S    
C26   C28   A    
C15   C17   S    
C57   O18   A    
C19   H11   S    
C18   C20   S    
C45   H19   S    
C48   C52   A    
C39   H31   S    
C54   H18   S    
O5    V1    S    
O2    C4    A    
O6    V2    S    
C50   C56   A    
C43   H27   S    
C2    O7    A    
O20   V3    S    
C26   H22   S    
C22   C59   S    
C29   C31   A    
C11   C13   A    
C1    C24   S    
C30   C32   A    
C3    C8    S    
C35   C37   A    
C2    C23   S    
C29   H25   S    
C26   C34   A    
C48   C50   A    
C25   H21   S    
C47   C49   A    
C21   C60   S    
C37   C49   A    
C21   C29   A    
C17   H5    S    
C32   C36   A    
C13   C58   S    
C43   C45   A    
C16   C18   S    
O4    V2    S    
O14   V4    S    
C42   H14   S    
C41   H13   S    
O6    C4    A    
C22   C30   A    
C37   C39   A    
C49   C55   A    
O19   V3    S    
O1    V2    S    
C17   H7    S    
O14   C58   A    
O2    V1    S    
C51   C53   A    
O4    C2    A    
C8    C10   A    
C12   C14   A    
C31   C33   A    
C5    C15   A    
C10   H2    S    
C28   H24   S    
C6    C16   A    
C23   C53   A    
O3    V1    S    
O16   C60   A    
C9    C11   A    
C18   H6    S    
O12   V3    S    
C33   C41   A    
O3    C1    A    
C11   H3    S    
C12   H4    S    
C24   C56   A    
C9    H1    S    
O7    V1    S    
C1    O8    A    
C13   C15   A    
O8    V2    S    
C47   C51   A    
C6    C20   S    
O15   C59   A    
C4    C7    S    
C5    C7    A    
C32   C34   A    
O19   V4    S    
C6    C8    A    
C19   H9    S    
C30   H26   S    
C20   H12   S    
C53   H17   S    
C55   H15   S    
C36   C44   A    
O13   C57   A    
C10   C12   A    
O9    V2    S    
C27   H23   S    
C44   C46   A    
O10   V1    S    
C38   C50   A    
C46   C48   A    
C5    C19   S    
C52   H30   S    
C58   O17   A    
C40   C42   A    
