data_mof_unit_44359.cif
_audit_creation_date              2013-03-05T15:55:18-0500
_audit_creation_method            fapswitch 2.2
_symmetry_space_group_name_H-M    P1
_symmetry_Int_Tables_number       1
_space_group_crystal_system       triclinic
_cell_length_a                    14.735332
_cell_length_b                    14.721918
_cell_length_c                    33.104829
_cell_angle_alpha                 95.703875
_cell_angle_beta                  96.19999
_cell_angle_gamma                 61.155896
_cell_volume                      6244.51883843

loop_
_atom_site_label
_atom_site_type_symbol
_atom_site_description
_atom_site_fract_x
_atom_site_fract_y
_atom_site_fract_z
_atom_type_partial_charge
O1    O     O_R   0.679450 0.499830 0.463150 -0.500787
O2    O     O_R   0.480650 0.664000 0.464630 -0.543512
C1    C     C_R   0.390582 0.700326 0.446017 0.886679
O3    O     O_R   0.323930 0.675950 0.455370 -0.462353
O4    O     O_R   0.354700 0.475360 0.451930 -0.496299
C2    C     C_R   0.404462 0.386447 0.434028 0.933100
O5    O     O_R   0.494470 0.320860 0.448390 -0.505109
O6    O     O_R   0.662580 0.357570 0.460050 -0.517057
C3    C     C_R   0.703459 0.408469 0.447959 0.902838
O7    O     O_R   0.680900 0.502040 0.551870 -0.489846
O8    O     O_R   0.481990 0.666040 0.546870 -0.517000
C4    C     C_R   0.392008 0.704699 0.560710 0.892553
O9    O     O_R   0.325370 0.678160 0.544080 -0.491793
O10   O     O_R   0.356040 0.477400 0.534170 -0.498028
C5    C     C_R   0.406148 0.387666 0.548587 0.889010
O11   O     O_R   0.495910 0.323070 0.537100 -0.515690
O12   O     O_R   0.663920 0.359620 0.542290 -0.518119
C6    C     C_R   0.705778 0.410490 0.561882 0.920036
Cr1   Cr    Cr6+3 0.576280 0.580550 0.506370 1.129062
Cr2   Cr    Cr6+3 0.346780 0.572400 0.496520 1.186185
Cr3   Cr    Cr6+3 0.576960 0.347070 0.497150 1.143935
O13   O     O_3   0.500010 0.500010 0.500010 -0.414877
C7    C     C_R   0.364071 0.369641 0.392421 -0.488658
C8    C     C_R   0.285319 0.457079 0.372213 0.542808
C9    C     C_R   0.265968 0.451929 0.330257 0.585215
C10   C     C_R   0.323109 0.359937 0.307729 -0.381204
C11   C     C_R   0.393369 0.269681 0.327403 0.581718
C12   C     C_R   0.412885 0.272906 0.370018 0.195095
C13   C     C_R   0.396369 0.258280 0.167365 0.263758
C14   C     C_R   0.388780 0.233474 0.125460 0.207009
C15   C     C_R   0.227454 0.395691 0.117555 0.594415
C16   C     C_R   0.234764 0.421923 0.159461 0.246939
C17   C     C_R   0.315972 0.348901 0.184515 -0.309143
C18   C     C_1   0.312616 0.358569 0.227969 0.246832
C19   C     C_1   0.314912 0.360118 0.264311 0.317197
C20   C     C_R   0.298841 0.297986 0.100908 -0.424631
N1    N     N_R   0.742114 0.354710 0.222331 -0.160367
N2    N     N_R   0.738329 0.360180 0.262495 -0.220812
C21   C     C_R   0.766014 0.366261 0.411474 -0.415740
C22   C     C_R   0.790247 0.430299 0.390401 0.256817
C23   C     C_R   0.817041 0.403470 0.349634 0.216066
C24   C     C_R   0.820654 0.312016 0.330478 -0.351673
C25   C     C_R   0.813371 0.241064 0.353126 0.608417
C26   C     C_R   0.789384 0.265789 0.393950 0.218384
N3    N     N_R   0.908673 0.223270 0.268306 -0.149003
N4    N     N_R   0.912787 0.218579 0.228100 -0.211625
C27   C     C_R   0.830226 0.285608 0.204576 0.683588
C28   C     C_R   0.821965 0.295725 0.286149 0.704148
C29   C     C_R   0.852051 0.374691 0.149184 0.252513
C30   C     C_R   0.880290 0.371483 0.109588 0.216754
C31   C     C_R   0.889307 0.201875 0.095096 0.593600
C32   C     C_R   0.855437 0.206722 0.133715 0.234031
C33   C     C_R   0.840986 0.291305 0.161415 -0.358791
C34   C     C_R   0.906771 0.281363 0.083206 -0.422131
N5    N     N_R   0.347764 0.736435 0.217282 -0.150725
N6    N     N_R   0.347860 0.733835 0.257262 -0.198246
C35   C     C_R   0.371543 0.754578 0.408260 -0.323042
C36   C     C_R   0.281660 0.778328 0.382479 0.655262
C37   C     C_R   0.277343 0.801331 0.341928 0.220140
C38   C     C_R   0.365379 0.798319 0.326962 -0.317541
C39   C     C_R   0.451321 0.785598 0.354059 0.347361
C40   C     C_R   0.451548 0.767081 0.394699 -0.235562
N7    N     N_R   0.394354 0.865998 0.267331 -0.158472
N8    N     N_R   0.395024 0.868009 0.227290 -0.163520
C41   C     C_R   0.371424 0.803482 0.201618 0.713420
C42   C     C_R   0.369875 0.799396 0.282945 0.639745
C43   C     C_R   0.261212 0.832116 0.137460 0.558194
C44   C     C_R   0.233266 0.870272 0.098746 0.549935
C45   C     C_R   0.399306 0.867297 0.098127 0.563538
C46   C     C_R   0.425675 0.832059 0.137483 0.587453
C47   C     C_R   0.354949 0.818404 0.157892 -0.491421
C48   C     C_R   0.299626 0.894312 0.079609 -0.552336
H1    H     H_    0.519100 0.753188 0.414859 0.253768
N9    N     N_R   0.298043 0.445319 0.772795 -0.169638
N10   N     N_R   0.303093 0.445250 0.732898 -0.169775
C49   C     C_R   0.367402 0.366937 0.584347 -0.426351
C50   C     C_R   0.281274 0.449280 0.602843 0.560823
C51   C     C_R   0.263117 0.444592 0.642689 0.600317
C52   C     C_R   0.329790 0.357920 0.664937 -0.406793
C53   C     C_R   0.410281 0.270323 0.645743 0.238629
C54   C     C_R   0.425759 0.273015 0.604778 0.159798
N11   N     N_R   0.321396 0.277548 0.724697 -0.188804
N12   N     N_R   0.316441 0.277526 0.764504 -0.212590
C55   C     C_R   0.305442 0.360942 0.789166 0.683926
C56   C     C_R   0.315822 0.360965 0.708275 0.698462
C57   C     C_R   0.217207 0.422072 0.854250 0.220704
C58   C     C_R   0.211398 0.398319 0.893542 0.585559
C59   C     C_R   0.387824 0.254238 0.892672 0.153185
C60   C     C_R   0.393669 0.275904 0.852987 0.270437
C61   C     C_R   0.306280 0.356202 0.833076 -0.357104
C62   C     C_R   0.292691 0.309325 0.911603 -0.385774
C63   C     C_R   0.769663 0.368540 0.600560 -0.391883
C64   C     C_R   0.811681 0.425593 0.625254 0.263864
C65   C     C_R   0.828129 0.412957 0.667871 0.226108
C66   C     C_R   0.812741 0.336776 0.684187 -0.304807
C67   C     C_R   0.792706 0.266682 0.658369 0.615960
C68   C     C_R   0.774428 0.279631 0.616283 0.191247
C69   C     C_R   0.835645 0.239976 0.826635 0.639687
C70   C     C_R   0.863295 0.227694 0.868824 0.177897
C71   C     C_R   0.880850 0.385105 0.872395 0.585071
C72   C     C_R   0.848724 0.399332 0.831116 0.191982
C73   C     C_R   0.833769 0.322047 0.807702 -0.344857
C74   C     C_1   0.823841 0.323768 0.763935 0.283299
C75   C     C_1   0.818822 0.328638 0.727583 0.269369
C76   C     C_R   0.897122 0.295065 0.890990 -0.450019
C77   C     C_R   0.372521 0.763430 0.601180 -0.401771
C78   C     C_R   0.277273 0.796079 0.618851 0.230869
C79   C     C_R   0.273237 0.811370 0.661249 0.610824
C80   C     C_R   0.360819 0.799425 0.686040 -0.312094
C81   C     C_R   0.451165 0.782001 0.668735 0.219647
C82   C     C_R   0.455906 0.767140 0.626037 0.232327
C83   C     C_R   0.408424 0.855673 0.834451 0.595877
C84   C     C_R   0.389927 0.885847 0.875720 0.177442
C85   C     C_R   0.227690 0.877239 0.863886 0.562113
C86   C     C_R   0.248309 0.845653 0.823338 0.568295
C87   C     C_R   0.336112 0.839093 0.808281 -0.390485
C88   C     C_1   0.347941 0.822098 0.765417 0.310382
C89   C     C_1   0.354544 0.811232 0.729300 0.262241
C90   C     C_R   0.294907 0.903596 0.890182 -0.492941
O14   O     O_R   0.170070 0.978950 0.027680 -0.480567
O15   O     O_R   0.001760 0.175230 0.026640 -0.490906
C91   C     C_R   0.963524 0.264177 0.046052 0.898964
O16   O     O_R   0.984760 0.333570 0.037150 -0.501526
O17   O     O_R   0.183410 0.309240 0.041890 -0.494707
C92   C     C_R   0.274375 0.260299 0.059815 0.892806
O18   O     O_R   0.340240 0.172500 0.045430 -0.503515
O19   O     O_R   0.309670 0.000990 0.032050 -0.498776
C93   C     C_R   0.259849 0.957971 0.043554 0.953610
O20   O     O_R   0.168330 0.982130 0.939200 -0.486795
O21   O     O_R   0.000140 0.178170 0.944610 -0.514269
C94   C     C_R   0.959512 0.269531 0.931049 0.930352
O22   O     O_R   0.983010 0.336750 0.948660 -0.474983
O23   O     O_R   0.181800 0.312190 0.959860 -0.491740
C95   C     C_R   0.271792 0.265667 0.945871 0.871814
O24   O     O_R   0.338500 0.175680 0.956950 -0.519462
O25   O     O_R   0.308050 0.003930 0.950020 -0.518828
C96   C     C_R   0.257419 0.962620 0.929401 0.919601
Cr4   Cr    Cr6+3 0.087320 0.083240 0.984860 1.178063
Cr5   Cr    Cr6+3 0.087720 0.316210 0.996740 1.182427
Cr6   Cr    Cr6+3 0.317350 0.090340 0.995890 1.146924
O26   O     O_3   0.164130 0.163270 0.992500 -0.422307
N13   N     N_R   0.473835 0.143400 0.108316 0.216663
O27   O     O_R   0.470702 0.056009 0.103811 -0.245165
O28   O     O_R   0.562968 0.141938 0.107726 -0.246769
N14   N     N_R   0.790382 0.188146 0.417408 0.205063
O29   O     O_R   0.838229 0.170805 0.453493 -0.280931
O30   O     O_R   0.754961 0.126313 0.401155 -0.213834
N15   N     N_R   0.881931 0.460990 0.096791 0.217999
O31   O     O_R   0.794614 0.546236 0.091221 -0.244897
O32   O     O_R   0.968853 0.465000 0.100155 -0.244075
N16   N     N_R   0.839967 0.468932 0.327613 0.209235
O33   O     O_R   0.787959 0.569534 0.332495 -0.201862
O34   O     O_R   0.914604 0.427993 0.302970 -0.293710
F1    F     F_    0.827155 0.148732 0.335024 -0.514186
N17   N     N_R   0.848592 0.456529 0.178087 0.205541
O35   O     O_R   0.926147 0.477018 0.182269 -0.244904
O36   O     O_R   0.770025 0.509860 0.200787 -0.256497
F2    F     F_    0.905441 0.118773 0.069115 -0.523262
N18   N     N_R   0.839020 0.123947 0.145045 0.222414
O37   O     O_R   0.897292 0.028398 0.131977 -0.182646
O38   O     O_R   0.762809 0.144250 0.167121 -0.263451
F3    F     F_    0.198827 0.777114 0.396389 -0.503746
F4    F     F_    0.138081 0.890115 0.081507 -0.495215
N19   N     N_R   0.483249 0.187873 0.192926 0.214769
O39   O     O_R   0.531565 0.222883 0.220120 -0.284010
O40   O     O_R   0.512625 0.088758 0.189862 -0.215108
N20   N     N_R   0.184245 0.825686 0.315970 0.218127
O41   O     O_R   0.128735 0.780545 0.319918 -0.169816
O42   O     O_R   0.150612 0.898483 0.290169 -0.286635
N21   N     N_R   0.542530 0.782184 0.340453 0.207971
O43   O     O_R   0.595891 0.817342 0.364628 -0.219706
O44   O     O_R   0.581783 0.729580 0.306946 -0.270398
F5    F     F_    0.191997 0.818165 0.156435 -0.500319
F6    F     F_    0.470080 0.877468 0.078774 -0.496857
F7    F     F_    0.519025 0.813912 0.156122 -0.484313
F8    F     F_    0.217364 0.537605 0.583393 -0.531683
N22   N     N_R   0.506283 0.182027 0.585840 -0.002567
O45   O     O_R   0.485999 0.139682 0.551684 -0.002817
O46   O     O_R   0.486232 0.140153 0.552062 -0.002813
F9    F     F_    0.121876 0.457214 0.912386 -0.526656
F10   F     F_    0.181897 0.526913 0.660136 -0.504313
N23   N     N_R   0.481002 0.181223 0.668316 0.207870
O47   O     O_R   0.503107 0.087756 0.653730 -0.241910
O48   O     O_R   0.531761 0.192823 0.701472 -0.258612
F11   F     F_    0.443297 0.179038 0.304960 -0.522294
N24   N     N_R   0.129470 0.508889 0.835511 0.226911
O49   O     O_R   0.078047 0.594839 0.857048 -0.189668
O50   O     O_R   0.095475 0.500389 0.797979 -0.265784
N25   N     N_R   0.477880 0.172211 0.912238 -0.020961
O51   O     O_R   0.524086 0.191954 0.945414 -0.002043
O52   O     O_R   0.523452 0.192331 0.945224 -0.002038
N26   N     N_R   0.488483 0.215720 0.832711 0.194593
O53   O     O_R   0.524147 0.261192 0.812163 -0.292265
O54   O     O_R   0.540540 0.115539 0.835256 -0.217264
N27   N     N_R   0.851854 0.151873 0.888997 0.213773
O55   O     O_R   0.838126 0.079222 0.867664 -0.183952
O56   O     O_R   0.830123 0.170881 0.927509 -0.312470
F12   F     F_    0.810004 0.172743 0.803746 -0.497969
F13   F     F_    0.791397 0.185441 0.674481 -0.513105
N28   N     N_R   0.766222 0.200065 0.589566 0.200893
O57   O     O_R   0.727006 0.144921 0.601683 -0.234951
O58   O     O_R   0.816088 0.168807 0.556488 -0.268689
N29   N     N_R   0.847381 0.485874 0.606278 0.217925
O59   O     O_R   0.881618 0.456675 0.569987 -0.298722
O60   O     O_R   0.860762 0.559453 0.626576 -0.197914
N30   N     N_R   0.833557 0.491360 0.813030 0.231613
O61   O     O_R   0.889657 0.535880 0.826070 -0.181523
O62   O     O_R   0.756616 0.537011 0.786195 -0.272522
F14   F     F_    0.897032 0.459734 0.894243 -0.507035
N31   N     N_R   0.480569 0.178392 0.390045 0.222457
O63   O     O_R   0.561078 0.105210 0.372621 -0.193632
O64   O     O_R   0.454752 0.159991 0.423512 -0.305280
N32   N     N_R   0.860452 0.476423 0.694608 0.223246
O65   O     O_R   0.948063 0.433653 0.716551 -0.291625
O66   O     O_R   0.795765 0.574387 0.701449 -0.190540
N33   N     N_R   0.467642 0.898143 0.902243 0.210980
O67   O     O_R   0.516460 0.942748 0.889816 -0.233736
O68   O     O_R   0.500480 0.851295 0.936296 -0.287457
F15   F     F_    0.496592 0.843017 0.819691 -0.501790
N34   N     N_R   0.538253 0.778752 0.694431 0.220519
O69   O     O_R   0.581100 0.834196 0.686809 -0.194142
O70   O     O_R   0.575785 0.719282 0.725224 -0.265586
N35   N     N_R   0.546892 0.752193 0.608255 0.203871
O71   O     O_R   0.637785 0.678079 0.619759 -0.279849
O72   O     O_R   0.539369 0.813879 0.581002 -0.274496
N36   N     N_R   0.184160 0.814974 0.594105 0.226702
O73   O     O_R   0.157975 0.869908 0.562264 -0.284502
O74   O     O_R   0.120890 0.785345 0.605014 -0.185944
F16   F     F_    0.179543 0.826383 0.798175 -0.507920
F17   F     F_    0.138668 0.886905 0.876550 -0.517668
F18   F     F_    0.183243 0.838808 0.678500 -0.523181
F19   F     F_    0.230943 0.550370 0.392376 -0.515954
N37   N     N_R   0.159203 0.521093 0.176331 0.228047
O75   O     O_R   0.066977 0.571996 0.157968 -0.169416
O76   O     O_R   0.184595 0.565020 0.208524 -0.265627
F20   F     F_    0.151890 0.466104 0.092755 -0.524231
F21   F     F_    0.195399 0.538714 0.311311 -0.498615
N38   N     N_R   0.793222 0.519338 0.410810 0.212359
O77   O     O_R   0.882872 0.514199 0.422583 -0.252545
O78   O     O_R   0.710087 0.609409 0.410176 -0.300189

loop_
_geom_bond_atom_site_label_1
_geom_bond_atom_site_label_2
_geom_bond_distance
_ccdc_geom_bond_type
C67   F13   1.366238 S    
C4    C77   1.496084 S    
N5    N6    1.327697 A    
C51   C52   1.398835 A    
C72   C73   1.404867 A    
C58   C62   1.412694 A    
N17   O36   1.309609 A    
N31   O63   1.300731 A    
C23   C24   1.409310 A    
O17   Cr5   1.915317 S    
C66   C67   1.395218 A    
C68   N28   1.441044 S    
C52   C56   1.464538 S    
N29   O59   1.304493 A    
N34   O70   1.303855 A    
N14   O29   1.301656 A    
C35   C40   1.401915 A    
C76   C94   1.499181 S    
O4    Cr2   1.921127 S    
C50   C51   1.388710 A    
C66   C75   1.443029 S    
O22   Cr5   2.029920 S    
C4    O9    1.276936 A    
N29   O60   1.302518 A    
O8    Cr1   1.921397 S    
C71   C76   1.420288 A    
C64   C65   1.420776 A    
C48   C93   1.479119 S    
C70   N27   1.440281 S    
N19   O39   1.306261 A    
N15   O32   1.302768 A    
C45   C46   1.395748 A    
C15   C20   1.409604 A    
N18   O37   1.302701 A    
O4    C2    1.271174 A    
C53   C54   1.406758 A    
N6    C42   1.356145 A    
C44   F4    1.357646 S    
C77   C78   1.419033 A    
C2    C7    1.486588 S    
C12   N31   1.439414 S    
C86   C87   1.393162 A    
C69   C70   1.416177 A    
C78   N36   1.437098 S    
O16   Cr5   2.037889 S    
C71   F14   1.358187 S    
C3    C21   1.494411 S    
C79   C80   1.396748 A    
C18   C19   1.198156 T    
C11   F11   1.359304 S    
N25   O52   1.303955 A    
N23   O47   1.304663 A    
C83   C84   1.407502 A    
C22   N38   1.431672 S    
C74   C75   1.204860 T    
C91   O16   1.271462 A    
N5    C41   1.355567 A    
C58   F9    1.359313 S    
C81   C82   1.412758 A    
N10   C56   1.358938 A    
N13   O27   1.302803 A    
O20   Cr4   2.038028 S    
N35   O71   1.300693 A    
C13   C17   1.405496 A    
O6    C3    1.277404 A    
N22   O46   1.298103 A    
O19   Cr6   1.913627 S    
C80   C89   1.432979 S    
N16   O33   1.300382 A    
N18   O38   1.301747 A    
C40   H1    1.079489 S    
C46   C47   1.401516 A    
C53   N23   1.439681 S    
N1    C27   1.355621 A    
C25   F1    1.358700 S    
C81   N34   1.444215 S    
C46   F7    1.356132 S    
N2    C28   1.357695 A    
C85   C90   1.416625 A    
O25   Cr6   1.918916 S    
C16   N37   1.444614 S    
C32   N18   1.441909 S    
C5    C49   1.485416 S    
C34   C91   1.494139 S    
N7    C42   1.356824 A    
C38   C42   1.467793 S    
C37   C38   1.417473 A    
C84   C90   1.422977 A    
Cr3   O13   1.970214 S    
C13   N19   1.445486 S    
C73   C74   1.441964 S    
C55   C61   1.460681 S    
C64   N29   1.446221 S    
C8    C9    1.389445 A    
N34   O69   1.304284 A    
N14   O30   1.300371 A    
C63   C68   1.424067 A    
O6    Cr3   1.919555 S    
C77   C82   1.423805 A    
N32   O66   1.301978 A    
O7    C6    1.283203 A    
O24   Cr6   2.030729 S    
C70   C76   1.422652 A    
N38   O78   1.300808 A    
N17   O35   1.306248 A    
C20   C92   1.491802 S    
O1    Cr1   2.039425 S    
N9    N10   1.330763 A    
C69   F12   1.358878 S    
C21   C22   1.418557 A    
C31   C32   1.404982 A    
C90   C96   1.487754 S    
O10   Cr2   1.911489 S    
Cr1   O13   1.974411 S    
O1    C3    1.277491 A    
C49   C50   1.411041 A    
N20   O42   1.304534 A    
C57   C61   1.410653 A    
N9    C55   1.356097 A    
N20   O41   1.301000 A    
N30   O61   1.299518 A    
N28   O57   1.311983 A    
C24   C28   1.463933 S    
C9    C10   1.390651 A    
N32   O65   1.301839 A    
O12   Cr3   1.915494 S    
C1    O3    1.271661 A    
N27   O55   1.308217 A    
C38   C39   1.415165 A    
N26   O54   1.299955 A    
O15   Cr4   1.921850 S    
C45   C48   1.407741 A    
C43   C44   1.390537 A    
N1    N2    1.329620 A    
C69   C73   1.402859 A    
N12   C55   1.355787 A    
C59   C62   1.416816 A    
C9    F21   1.357796 S    
O7    Cr1   2.026477 S    
C44   C48   1.412457 A    
N33   O67   1.300510 A    
O18   Cr6   2.036242 S    
C67   C68   1.404370 A    
O14   C93   1.268682 A    
O12   C6    1.274632 A    
C10   C11   1.400234 A    
C65   C66   1.411812 A    
N36   O73   1.301731 A    
C82   N35   1.432678 S    
C7    C12   1.418604 A    
Cr6   O26   1.973099 S    
N37   O76   1.305496 A    
O23   Cr5   1.920416 S    
O15   C91   1.282265 A    
C2    O5    1.279389 A    
N22   O45   1.312677 A    
C1    C35   1.478325 S    
C22   C23   1.411370 A    
Cr2   O13   1.973221 S    
C57   N24   1.442179 S    
C50   F8    1.358752 S    
N36   O74   1.298590 A    
C25   C26   1.401835 A    
C83   F15   1.358989 S    
O23   C95   1.278785 A    
C29   C30   1.407190 A    
N13   O28   1.305403 A    
C52   C53   1.413379 A    
O14   Cr4   2.026448 S    
C24   C25   1.394992 A    
N21   O43   1.304260 A    
C78   C79   1.402367 A    
N24   O50   1.305950 A    
C94   O22   1.269407 A    
O21   Cr4   1.909734 S    
C83   C87   1.398238 A    
C37   N20   1.442559 S    
C32   C33   1.412877 A    
N37   O75   1.306687 A    
N3    C28   1.357190 A    
C30   N15   1.435406 S    
N25   O51   1.311576 A    
N4    C27   1.360148 A    
C65   N32   1.434324 S    
O9    Cr2   2.036848 S    
O2    Cr1   1.910723 S    
C57   C58   1.401760 A    
C29   N17   1.446305 S    
C15   C16   1.409512 A    
N33   O68   1.302066 A    
N7    N8    1.330050 A    
C8    F19   1.358438 S    
Cr4   O26   1.974515 S    
C49   C54   1.421925 A    
C85   F17   1.357784 S    
O8    C4    1.281865 A    
N35   O72   1.301936 A    
O11   Cr3   2.035064 S    
C85   C86   1.392150 A    
C21   C26   1.422707 A    
C23   N16   1.442687 S    
N11   C56   1.355052 A    
C15   F20   1.358855 S    
C31   F2    1.359190 S    
N31   O64   1.302200 A    
C14   N13   1.432417 S    
C14   C20   1.423146 A    
C51   F10   1.358447 S    
C6    C63   1.497654 S    
N26   O53   1.301605 A    
C31   C34   1.412280 A    
N19   O40   1.302870 A    
O2    C1    1.277157 A    
C36   C37   1.404257 A    
C54   N22   1.433701 S    
C30   C34   1.420936 A    
C41   C47   1.462321 S    
C88   C89   1.198622 T    
C16   C17   1.413216 A    
O5    Cr3   2.033941 S    
Cr5   O26   1.970352 S    
C35   C36   1.404692 A    
C92   O18   1.267488 A    
C62   C95   1.485341 S    
N21   O44   1.303969 A    
C43   F5    1.357618 S    
C29   C33   1.415514 A    
C27   C33   1.469490 S    
N8    C41   1.356488 A    
N38   O77   1.304210 A    
C63   C64   1.418822 A    
C60   N26   1.441361 S    
C17   C18   1.435270 S    
C87   C88   1.430841 S    
O21   C94   1.286087 A    
C43   C47   1.400876 A    
N15   O31   1.304305 A    
N16   O34   1.301858 A    
C39   C40   1.398355 A    
C95   O24   1.272025 A    
N23   O48   1.304622 A    
N24   O49   1.302259 A    
C86   F16   1.359875 S    
C72   N30   1.443665 S    
C7    C8    1.418939 A    
C13   C14   1.405538 A    
C26   N14   1.437924 S    
O3    Cr2   2.027703 S    
N3    N4    1.332373 A    
C10   C19   1.429517 S    
O20   C96   1.273077 A    
C59   C60   1.403355 A    
N28   O58   1.303147 A    
N11   N12   1.327716 A    
C45   F6    1.354451 S    
C11   C12   1.409780 A    
O19   C93   1.281403 A    
O10   C5    1.275235 A    
O25   C96   1.279709 A    
C71   C72   1.398866 A    
C39   N21   1.439728 S    
C84   N33   1.437482 S    
C60   C61   1.411704 A    
C80   C81   1.404384 A    
N30   O62   1.300863 A    
O17   C92   1.284238 A    
C5    O11   1.273404 A    
C59   N25   1.436123 S    
N27   O56   1.317977 A    
C79   F18   1.359667 S    
C36   F3    1.358783 S    
