data_mof_unit_60255.cif
_audit_creation_date              2012-12-10T17:24:57-0500
_audit_creation_method            fapswitch 2.2
_symmetry_space_group_name_H-M    P1
_symmetry_Int_Tables_number       1
_space_group_crystal_system       triclinic
_cell_length_a                    10.217322
_cell_length_b                    10.389695
_cell_length_c                    19.204365
_cell_angle_alpha                 91.652627
_cell_angle_beta                  81.728509
_cell_angle_gamma                 95.312866
_cell_volume                      2008.51356536

loop_
_atom_site_label
_atom_site_type_symbol
_atom_type_description
_atom_site_fract_x
_atom_site_fract_y
_atom_site_fract_z
_atom_type_partial_charge
Br1   Br    Br    0.364304 0.738735 0.708324 -0.309112
Br2   Br    Br    0.741699 0.687079 0.294534 -0.353703
Br3   Br    Br    0.696800 0.314461 0.849903 -0.290586
Br4   Br    Br    0.243512 0.393105 0.144389 -0.291640
Br5   Br    Br    0.646230 0.272573 0.684728 -0.286394
Br6   Br    Br    0.256833 0.338795 0.311071 -0.347492
Br7   Br    Br    0.302204 0.032487 0.564427 -0.324230
Br8   Br    Br    0.715418 0.971918 0.518429 -0.319035
C1    C     C_R   0.554431 0.734814 0.491314 0.900244
C2    C     C_R   0.500058 0.501656 0.365819 0.954598
C3    C     C_R   0.442622 0.603283 0.750941 0.206495
C4    C     C_R   0.608753 0.583170 0.249932 0.205921
C5    C     C_R   0.443327 0.605764 0.823694 0.145981
C6    C     C_R   0.615930 0.584236 0.176703 0.150618
C7    C     C_R   0.516493 0.518233 0.853364 -0.176114
C8    C     C_R   0.509712 0.523657 0.145044 -0.179502
C9    C     C_R   0.583911 0.425123 0.811159 0.252914
C10   C     C_R   0.398341 0.459946 0.185989 0.259570
C11   C     C_R   0.572838 0.415092 0.739639 0.209245
C12   C     C_R   0.445330 0.264758 0.501309 0.896150
C13   C     C_R   0.397480 0.448177 0.258184 0.213411
C14   C     C_R   0.504240 0.505672 0.709407 -0.282071
C15   C     C_R   0.501998 0.510835 0.290269 -0.261291
C16   C     C_R   0.515807 0.522800 0.069064 0.376085
C17   C     C_R   0.518565 0.520185 0.928804 0.376561
C18   C     C_2   0.579571 0.871733 0.475544 0.081956
C19   C     C_2   0.419498 0.126105 0.491920 0.074230
C20   C     C_2   0.497094 0.926941 0.438300 0.103347
C21   C     C_2   0.493514 0.066060 0.438784 0.103486
C22   C     C_2   0.924894 0.510229 0.509885 0.163103
C23   C     C_2   0.061340 0.470623 0.510350 0.161417
C24   C     C_R   0.500763 0.500793 0.634086 0.985553
H1    H     H_    0.138404 0.646639 0.534652 0.207298
H2    H     H_    0.878386 0.380732 0.435473 0.205315
I1    I     I_    0.323999 0.735521 0.888286 -0.053059
I2    I     I_    0.793132 0.668471 0.114586 -0.052430
I3    I     I_    0.608723 0.160929 0.350280 -0.143521
I4    I     I_    0.361629 0.825612 0.376686 -0.159943
I5    I     I_    0.075638 0.268148 0.494080 -0.063355
I6    I     I_    0.866604 0.660085 0.583083 -0.109037
N1    N     N_R   0.547380 0.632409 0.963345 -0.109623
N2    N     N_R   0.489539 0.410330 0.034294 -0.087013
N3    N     N_R   0.544461 0.633956 0.032655 -0.110346
N4    N     N_R   0.489540 0.409244 0.965296 -0.085534
N5    N     N_2   0.842710 0.448880 0.471430 -0.182948
N6    N     N_2   0.157290 0.551120 0.528570 -0.189906
O1    O     O_R   0.431050 0.692470 0.505750 -0.594312
O2    O     O_R   0.568950 0.307530 0.494250 -0.586310
O3    O     O_R   0.651120 0.659650 0.487410 -0.564740
O4    O     O_R   0.348880 0.340350 0.512590 -0.570692
O5    O     O_R   0.389930 0.516430 0.611030 -0.567472
O6    O     O_R   0.610070 0.483570 0.388970 -0.577995
O7    O     O_R   0.610000 0.483610 0.592700 -0.574700
O8    O     O_R   0.390000 0.516390 0.407300 -0.582210
Zn1   Zn    Zn3+2 0.353060 0.521920 0.512240 1.074388
Zn2   Zn    Zn3+2 0.646940 0.478080 0.487760 1.078430

loop_
_geom_bond_atom_site_label_1
_geom_bond_atom_site_label_2
_ccdc_geom_bond_type
N6    Zn1   S    
N2    N4    A    
C24   O5    A    
Br3   C9    S    
Br5   C11   S    
C12   C19   S    
C2    C15   S    
C19   C21   D    
O3    Zn2   S    
C16   N2    A    
N1    N3    A    
C3    C14   A    
C18   C20   D    
O4    Zn1   S    
Br1   C3    S    
C20   I4    S    
C2    O6    A    
C5    C7    A    
C22   I6    S    
C8    C16   S    
H2    N5    S    
H1    N6    S    
C3    C5    A    
C4    C15   A    
C12   O2    A    
C1    O3    A    
C14   C24   S    
C17   N4    A    
O1    Zn1   S    
C20   C21   S    
C9    C11   A    
C4    C6    A    
C1    C18   S    
C5    I1    S    
O5    Zn1   S    
C13   C15   A    
C6    I2    S    
C22   C23   S    
C2    O8    A    
C6    C8    A    
C7    C17   S    
C1    O1    A    
Br8   C18   S    
C21   I3    S    
C10   C13   A    
C24   O7    A    
C11   C14   A    
Br7   C19   S    
C8    C10   A    
Br2   C4    S    
O7    Zn2   S    
C17   N1    A    
O2    Zn2   S    
C16   N3    A    
O8    Zn1   S    
C12   O4    A    
C22   N5    D    
C7    C9    A    
Br6   C13   S    
Br4   C10   S    
O6    Zn2   S    
N5    Zn2   S    
C23   I5    S    
C23   N6    D    
