data_mof_unit_30746.cif
_audit_creation_date              2013-03-05T15:46:54-0500
_audit_creation_method            fapswitch 2.2
_symmetry_space_group_name_H-M    P1
_symmetry_Int_Tables_number       1
_space_group_crystal_system       triclinic
_cell_length_a                    18.321993
_cell_length_b                    18.245047
_cell_length_c                    18.329645
_cell_angle_alpha                 90.220563
_cell_angle_beta                  119.894574
_cell_angle_gamma                 120.009207
_cell_volume                      4330.5953867

loop_
_atom_site_label
_atom_site_type_symbol
_atom_site_description
_atom_site_fract_x
_atom_site_fract_y
_atom_site_fract_z
_atom_type_partial_charge
Zn1   Zn    Zn3+2 0.086760 0.130530 0.543760 0.995560
Zn2   Zn    Zn3+2 0.086760 0.956230 0.542990 1.005776
Zn3   Zn    Zn3+2 0.913250 0.956230 0.369490 0.988831
Zn4   Zn    Zn3+2 0.913230 0.957020 0.543760 0.964569
O1    O     O_3   0.000000 0.000000 0.500000 -0.494994
O2    O     O_R   0.939250 0.884470 0.616070 -0.628904
O3    O     O_R   0.060740 0.176800 0.445190 -0.644006
O4    O     O_R   0.231610 0.054800 0.615530 -0.643823
O5    O     O_R   0.768390 0.883920 0.323210 -0.641621
O6    O     O_R   0.060730 0.883140 0.443890 -0.629194
O7    O     O_R   0.939260 0.056140 0.616830 -0.648443
O8    O     O_R   0.939300 0.883140 0.322450 -0.636957
O9    O     O_R   0.060710 0.177580 0.616830 -0.640874
O10   O     O_R   0.231620 0.176800 0.616070 -0.610057
O11   O     O_R   0.768380 0.884480 0.445190 -0.640675
O12   O     O_R   0.060710 0.883920 0.615530 -0.620575
O13   O     O_R   0.939300 0.054810 0.323210 -0.625999
C1    C     C_R   0.996246 0.856572 0.636419 0.876201
C2    C     C_R   0.999539 0.140083 0.360171 0.854541
C3    C     C_R   0.279875 0.140234 0.638425 0.821860
C4    C     C_R   0.720126 0.861023 0.360065 0.771147
C5    C     C_R   0.000888 0.860094 0.359276 0.895312
C6    C     C_R   0.000545 0.141613 0.641664 0.754903
C7    C     C_3   0.031553 0.181556 0.789596 -0.395929
H1    H     H_    0.110451 0.197324 0.825813 0.155944
H2    H     H_    0.977547 0.109253 0.777182 0.193207
C8    C     C_3   0.028566 0.239629 0.848367 -0.384899
H3    H     H_    0.970235 0.194912 0.861053 0.197906
H4    H     H_    0.104922 0.280918 0.914306 0.152416
H5    H     H_    0.159151 0.316735 0.753901 0.174672
H6    H     H_    0.161045 0.402476 0.845841 0.175854
C9    C     C_3   0.080425 0.300831 0.720697 -0.361577
C10   C     C_3   0.892622 0.179852 0.652649 -0.358909
C11   C     C_3   0.001359 0.199747 0.699783 0.161417
H7    H     H_    0.866804 0.188879 0.586415 0.211800
H8    H     H_    0.835360 0.108665 0.640528 0.204666
C12   C     C_3   0.001306 0.301543 0.801464 0.157718
C13   C     C_3   0.082367 0.360366 0.782097 -0.369847
C14   C     C_3   0.894061 0.242666 0.710865 -0.368949
H9    H     H_    0.834150 0.201899 0.722573 0.235228
H10   H     H_    0.874913 0.286102 0.674801 0.181688
H11   H     H_    0.059653 0.316523 0.657549 0.222875
H12   H     H_    0.065983 0.406652 0.749440 0.200728
C15   C     C_R   0.944797 0.262942 0.368640 -0.243342
H13   H     H_    0.941752 0.220870 0.409872 0.172213
C16   C     C_R   0.919361 0.322772 0.373918 0.377030
C17   C     C_R   0.919281 0.375541 0.318903 -0.221525
H14   H     H_    0.899634 0.421933 0.321322 0.183365
C18   C     C_R   0.943666 0.368826 0.259586 -0.207425
H15   H     H_    0.939311 0.409631 0.217126 0.152638
C19   C     C_R   0.971856 0.310458 0.255040 0.073966
C20   C     C_R   0.972354 0.256693 0.310273 -0.006298
C21   C     C_R   0.997502 0.196197 0.303978 -0.138342
C22   C     C_R   0.020838 0.188352 0.243203 0.136320
C23   C     C_R   0.023395 0.243461 0.190397 0.137940
C24   C     C_R   0.997667 0.303496 0.195500 -0.138723
H16   H     H_    0.593328 0.704891 0.229740 0.152618
C25   C     C_R   0.609302 0.926076 0.374791 -0.192052
H17   H     H_    0.692669 0.971377 0.415704 0.145219
C26   C     C_R   0.555940 0.956248 0.381906 -0.066737
H18   H     H_    0.598298 0.022366 0.427856 0.185729
C27   C     C_R   0.448519 0.902250 0.329090 -0.090084
H19   H     H_    0.407451 0.926308 0.334444 0.168064
C28   C     C_R   0.393677 0.817946 0.268167 -0.192083
H20   H     H_    0.310351 0.779613 0.226718 0.145668
C29   C     C_R   0.446013 0.785671 0.259788 0.095925
C30   C     C_R   0.555527 0.840462 0.314237 0.095197
C31   C     C_R   0.608047 0.809462 0.304016 -0.060946
C32   C     C_R   0.553081 0.728055 0.238386 -0.208293
H21   H     H_    0.405055 0.611060 0.135407 0.149825
C33   C     C_R   0.446142 0.674743 0.184852 -0.205368
C34   C     C_R   0.392219 0.701696 0.196207 -0.059785
C35   C     C_R   0.795176 0.680689 0.578952 0.233815
C36   C     C_R   0.705023 0.601779 0.559868 -0.182736
H22   H     H_    0.630782 0.577932 0.499121 0.142538
C37   C     C_R   0.709385 0.550754 0.615369 -0.166065
H23   H     H_    0.639304 0.488428 0.598011 0.155973
C38   C     C_R   0.803671 0.578077 0.691814 -0.149973
H24   H     H_    0.802490 0.533069 0.729987 0.149857
C39   C     C_R   0.896294 0.659846 0.716795 0.060498
C40   C     C_R   0.893788 0.713119 0.660090 0.010161
C41   C     C_R   0.989998 0.794632 0.686977 -0.120484
C42   C     C_R   0.084081 0.818734 0.765186 0.198448
H25   H     H_    0.156520 0.784418 0.878425 0.157627
C43   C     C_R   0.083897 0.764399 0.817710 -0.265464
C44   C     C_R   0.991809 0.687720 0.796049 -0.080148
C45   C     C_R   0.878669 0.668896 0.316582 -0.158418
H26   H     H_    0.877512 0.709149 0.358430 0.116202
C46   C     C_R   0.817572 0.575816 0.294802 -0.102364
H27   H     H_    0.771036 0.546007 0.320151 0.146865
C47   C     C_R   0.815904 0.521192 0.240009 -0.143070
H28   H     H_    0.767719 0.448899 0.222464 0.141335
C48   C     C_R   0.876040 0.559537 0.207538 -0.167997
H29   H     H_    0.872674 0.514854 0.165054 0.111634
C49   C     C_R   0.938166 0.653858 0.228935 0.110854
C50   C     C_R   0.939475 0.709265 0.283864 0.047686
C51   C     C_R   0.000393 0.803533 0.303740 -0.198254
C52   C     C_R   0.058488 0.842899 0.268325 0.293950
H30   H     H_    0.100704 0.815433 0.186961 0.179601
C53   C     C_R   0.055930 0.786847 0.214189 -0.277542
C54   C     C_R   0.997934 0.694325 0.195769 -0.105861
C55   C     C_R   0.388313 0.102693 0.588630 -0.187944
H31   H     H_    0.306569 0.068164 0.538531 0.208921
C56   C     C_R   0.437621 0.073714 0.572535 -0.176459
H32   H     H_    0.392182 0.016098 0.514079 0.196058
C57   C     C_R   0.543589 0.116406 0.632718 0.362143
C58   C     C_R   0.601204 0.193849 0.705039 -0.263641
H33   H     H_    0.683817 0.229185 0.744663 0.190547
C59   C     C_R   0.552228 0.223656 0.723917 0.048141
C60   C     C_R   0.443279 0.173744 0.667230 0.035212
C61   C     C_R   0.391988 0.196969 0.689486 -0.099479
C62   C     C_R   0.448418 0.274237 0.762059 0.203684
H34   H     H_    0.598210 0.386640 0.868528 0.164219
C63   C     C_R   0.555375 0.327232 0.812750 -0.279712
C64   C     C_R   0.607703 0.301960 0.796422 -0.078833
Zn5   Zn    Zn3+2 0.913240 0.369500 0.956210 0.965727
Zn6   Zn    Zn3+2 0.086750 0.543800 0.130490 0.970350
Zn7   Zn    Zn3+2 0.913240 0.543800 0.956980 0.965466
Zn8   Zn    Zn3+2 0.086770 0.543010 0.956210 0.963743
O14   O     O_3   1.000000 0.500030 0.999970 -0.487358
O15   O     O_R   0.231620 0.615550 0.054780 -0.636450
O16   O     O_R   0.768380 0.323230 0.883900 -0.643682
O17   O     O_R   0.060700 0.445220 0.176760 -0.636176
O18   O     O_R   0.939290 0.616110 0.884440 -0.643092
O19   O     O_R   0.060700 0.616880 0.177520 -0.639671
O20   O     O_R   0.060740 0.443890 0.883140 -0.645447
O21   O     O_R   0.939270 0.616890 0.056080 -0.633191
O22   O     O_R   0.939290 0.322450 0.883140 -0.642274
O23   O     O_R   0.939260 0.323230 0.054780 -0.644923
O24   O     O_R   0.060750 0.615550 0.883900 -0.634537
O25   O     O_R   0.231610 0.616100 0.176760 -0.637462
O26   O     O_R   0.768390 0.445230 0.884440 -0.643555
C65   C     C_R   0.279947 0.641155 0.139973 0.775351
C66   C     C_R   0.719978 0.359462 0.857069 0.795342
C67   C     C_R   0.999914 0.359884 0.139686 0.807674
C68   C     C_R   0.998281 0.638198 0.858386 0.797478
C69   C     C_R   0.000543 0.641290 0.140554 0.805463
C70   C     C_R   0.000348 0.358672 0.858904 0.748502
N1    N     N_2   0.044912 0.126226 0.237550 -0.283644
H35   H     H_    0.112886 0.154325 0.242899 0.261714
C71   C     C_3   0.960646 0.043126 0.162741 -0.625022
H36   H     H_    0.982223 0.995289 0.169118 0.264787
H37   H     H_    0.943689 0.055658 0.098761 0.224067
H38   H     H_    0.889961 0.011744 0.161459 0.244176
N2    N     N_R   0.892833 0.329368 0.434378 0.207024
O27   O     O_R   0.893108 0.280684 0.486013 -0.463826
O28   O     O_R   0.868524 0.384406 0.438666 -0.400338
N3    N     N_2   0.052792 0.237874 0.132832 -0.309343
H39   H     H_    0.002763 0.229374 0.067490 0.250984
C72   C     C_3   0.160034 0.305377 0.168935 -0.796975
H40   H     H_    0.177697 0.290707 0.123245 0.237584
H41   H     H_    0.211321 0.304885 0.235384 0.251552
H42   H     H_    0.175941 0.373200 0.175564 0.233404
N4    N     N_2   0.180017 0.899442 0.792719 -0.280555
H43   H     H_    0.241125 0.893929 0.823246 0.235287
C73   C     C_3   0.204547 0.978791 0.843834 -0.781370
H44   H     H_    0.277536 0.038799 0.858585 0.236754
H45   H     H_    0.214768 0.972581 0.908068 0.240875
H46   H     H_    0.142459 0.988854 0.805508 0.232015
N5    N     N_2   0.783855 0.723270 0.513339 -0.282566
H47   H     H_    0.720285 0.725112 0.485648 0.242263
C74   C     C_3   0.789104 0.690113 0.445784 -0.831834
H48   H     H_    0.786897 0.731145 0.401184 0.220668
H49   H     H_    0.722315 0.618859 0.405051 0.237027
H50   H     H_    0.862159 0.695350 0.477541 0.242552
N6    N     N_R   0.119604 0.938623 0.285721 0.197806
O29   O     O_R   0.142537 0.969036 0.230711 -0.410207
O30   O     O_R   0.160012 0.996221 0.359449 -0.443368
N7    N     N_2   0.397990 0.298769 0.785084 -0.278176
H51   H     H_    0.437037 0.367263 0.811756 0.227890
C75   C     C_3   0.366624 0.251363 0.838225 -0.782983
H52   H     H_    0.323524 0.271156 0.849015 0.230035
H53   H     H_    0.435536 0.268535 0.904266 0.234355
H54   H     H_    0.315056 0.177556 0.803486 0.232747
N8    N     N_R   0.592418 0.079792 0.622012 0.197548
O31   O     O_R   0.550476 0.028294 0.543944 -0.430375
O32   O     O_R   0.668320 0.084662 0.692283 -0.420634

loop_
_geom_bond_atom_site_label_1
_geom_bond_atom_site_label_2
_geom_bond_distance
_ccdc_geom_bond_type
C75   H52   1.110630 S    
C9    C11   1.554163 S    
C48   H29   1.082489 S    
C8    H4    1.113021 S    
N7    C75   1.447223 S    
C35   C36   1.401763 A    
C49   C50   1.407131 A    
C7    C8    1.547288 S    
C45   H26   1.075034 S    
Zn8   O24   1.936604 S    
C62   C63   1.386086 A    
C51   C52   1.413450 A    
C34   C65   1.455633 S    
C17   C18   1.390939 A    
C42   N4    1.426065 S    
O25   C65   1.280892 A    
C21   C22   1.406769 A    
O6    C5    1.274030 A    
C75   H53   1.111543 S    
C35   N5    1.418697 S    
O4    C3    1.278303 A    
C36   C37   1.381538 A    
Zn1   O1    1.941513 S    
C73   H44   1.110367 S    
C37   C38   1.384376 A    
H34   C63   1.084804 S    
C71   H37   1.110864 S    
N2    O27   1.300374 A    
C10   H7    1.109866 S    
C38   C39   1.415269 A    
C16   N2    1.439871 S    
C57   C58   1.402411 A    
C25   C26   1.393144 A    
C3    C61   1.454714 S    
O8    C5    1.274073 A    
C10   H8    1.113271 S    
O9    C6    1.277445 A    
C26   C27   1.391147 A    
C19   C24   1.415752 A    
N7    H51   1.031931 S    
C32   C33   1.384846 A    
O22   C70   1.282082 A    
C60   C61   1.417121 A    
O16   C66   1.272583 A    
C39   C44   1.414736 A    
Zn3   O8    1.946166 S    
O13   C2    1.275377 A    
O23   C67   1.276275 A    
C10   C14   1.544380 S    
C29   C34   1.416964 A    
Zn5   O23   1.939075 S    
C22   N1    1.426473 S    
C31   C32   1.396363 A    
C18   C19   1.414275 A    
C72   H42   1.110743 S    
C27   C28   1.394565 A    
C58   H33   1.076418 S    
C7    H1    1.113135 S    
H21   C33   1.083966 S    
C9    C13   1.536142 S    
C46   C47   1.390726 A    
Zn2   O12   1.937142 S    
N4    C73   1.447305 S    
C2    C21   1.455513 S    
C29   C30   1.418181 A    
C48   C49   1.414694 A    
C5    C51   1.440346 S    
C45   C50   1.411357 A    
N6    O30   1.300865 A    
C58   C59   1.420187 A    
C35   C40   1.439353 A    
C56   H32   1.083024 S    
N2    O28   1.301746 A    
C15   C16   1.403974 A    
C40   C41   1.438072 A    
C74   H49   1.111517 S    
Zn8   O15   1.935924 S    
O2    C1    1.278134 A    
C75   H54   1.110204 S    
Zn2   O4    1.932740 S    
C36   H22   1.083461 S    
O18   C68   1.280230 A    
C19   C20   1.412334 A    
C17   H14   1.080911 S    
O10   C3    1.275005 A    
Zn7   O26   1.932740 S    
H25   C43   1.084929 S    
N8    O32   1.300348 A    
C71   H38   1.110614 S    
C46   H27   1.082428 S    
C47   H28   1.082365 S    
C54   C69   1.431721 S    
C38   H24   1.079872 S    
C39   C40   1.425480 A    
O19   C69   1.273257 A    
C25   H17   1.081296 S    
C43   C44   1.388710 A    
C7    C11   1.551241 S    
C30   C31   1.415709 A    
O17   C67   1.276416 A    
C26   H18   1.082152 S    
C28   C29   1.414491 A    
C12   C13   1.554913 S    
Zn3   O5    1.936248 S    
C47   C48   1.394106 A    
C74   H50   1.111104 S    
H30   C53   1.084521 S    
C57   N8    1.434233 S    
C6    C11   1.489884 S    
C50   C51   1.416431 A    
C23   C24   1.410789 A    
C10   C11   1.551068 S    
Zn7   O18   1.937140 S    
C37   H23   1.082818 S    
Zn4   O7    1.942600 S    
C55   C56   1.387456 A    
N4    H43   1.032154 S    
C52   N6    1.445468 S    
Zn5   O16   1.938382 S    
O26   C66   1.284203 A    
N3    C72   1.446550 S    
Zn4   O2    1.936750 S    
C42   C43   1.384515 A    
C41   C42   1.411933 A    
C52   C53   1.389466 A    
C12   C70   1.491142 S    
C45   C46   1.394364 A    
C4    C31   1.454176 S    
N6    O29   1.301750 A    
C72   H41   1.110954 S    
Zn6   O14   1.952632 S    
Zn2   O1    1.952329 S    
Zn1   O9    1.948524 S    
Zn7   O21   1.946009 S    
Zn2   O6    1.946006 S    
C14   H9    1.106152 S    
C24   C67   1.454124 S    
C20   C21   1.415842 A    
N1    H35   1.030900 S    
C74   H48   1.110148 S    
C44   C68   1.454647 S    
C22   C23   1.398429 A    
O20   C70   1.273942 A    
C61   C62   1.408029 A    
Zn1   O3    1.939078 S    
C73   H46   1.111124 S    
O24   C68   1.280812 A    
C15   H13   1.080363 S    
C7    H2    1.112952 S    
Zn4   O1    1.953126 S    
Zn3   O1    1.952482 S    
C15   C20   1.416895 A    
Zn8   O14   1.953126 S    
C63   C64   1.395897 A    
C56   C57   1.392440 A    
C64   C66   1.456320 S    
C14   H10   1.113134 S    
O3    C2    1.278023 A    
H6    C13   1.113464 S    
H16   C32   1.084064 S    
N5    H47   1.032157 S    
Zn4   O11   1.935925 S    
C73   H45   1.112035 S    
Zn6   O17   1.933548 S    
C13   H12   1.113532 S    
C12   C14   1.547553 S    
N8    O31   1.300868 A    
C59   C60   1.414384 A    
C28   H20   1.081110 S    
H5    C9    1.113584 S    
N1    C71   1.447380 S    
O5    C4    1.280996 A    
C23   N3    1.426343 S    
C8    C12   1.551900 S    
O7    C6    1.278062 A    
C53   C54   1.391564 A    
C1    C41   1.460623 S    
Zn3   O13   1.933653 S    
N3    H39   1.029941 S    
C55   H31   1.078923 S    
Zn6   O25   1.936293 S    
Zn7   O14   1.952326 S    
C16   C17   1.396861 A    
C55   C60   1.415551 A    
C59   C64   1.423640 A    
Zn8   O20   1.942599 S    
Zn5   O14   1.941514 S    
C25   C30   1.414126 A    
O11   C4    1.280892 A    
C33   C34   1.396943 A    
C62   N7    1.425849 S    
O12   C1    1.285817 A    
C18   H15   1.080877 S    
Zn5   O22   1.948526 S    
C8    H3    1.113066 S    
C9    H11   1.113109 S    
C72   H40   1.110310 S    
Zn1   O10   1.938384 S    
O21   C69   1.272020 A    
O15   C65   1.281818 A    
C27   H19   1.082662 S    
C71   H36   1.109771 S    
Zn6   O19   1.945916 S    
C49   C54   1.404339 A    
N5    C74   1.442085 S    
