data_mof_unit_5052.cif
_audit_creation_date              2012-10-26T18:50:24-0400
_audit_creation_method            fapswitch 2.2
_symmetry_space_group_name_H-M    P1
_symmetry_Int_Tables_number       1
_space_group_crystal_system       triclinic
_cell_length_a                    9.584951
_cell_length_b                    10.843507
_cell_length_c                    15.563284
_cell_angle_alpha                 85.496178
_cell_angle_beta                  73.888398
_cell_angle_gamma                 88.952026
_cell_volume                      1549.21982474

loop_
_atom_site_label
_atom_site_type_symbol
_atom_type_description
_atom_site_fract_x
_atom_site_fract_y
_atom_site_fract_z
_atom_type_partial_charge
C1    C     C_R   0.003110 0.261710 0.498340 0.560861
C2    C     C_R   0.238914 0.424929 0.049298 0.006755
C3    C     C_R   0.333512 0.468062 0.095863 0.032140
C4    C     C_R   0.917407 0.506556 0.671456 0.547637
C5    C     C_R   0.093626 0.397652 0.094436 -0.118145
C6    C     C_R   0.036954 0.415611 0.185657 0.246405
C7    C     C_R   0.275206 0.488055 0.186728 -0.146302
C8    C     C_R   0.270404 0.105321 0.502396 -0.090783
C9    C     C_R   0.374309 0.038421 0.533806 -0.125297
C10   C     C_R   0.341522 0.920711 0.575823 -0.118937
C11   C     C_R   0.210523 0.865247 0.578295 -0.083113
C12   C     C_R   0.675988 0.511112 0.907879 0.044859
C13   C     C_R   0.109329 0.928188 0.539492 0.027004
C14   C     C_R   0.129627 0.055674 0.513708 0.027644
C15   C     C_R   0.008227 0.125913 0.500708 0.003610
C16   C     C_R   0.994486 0.735368 0.510842 0.585182
C17   C     C_R   0.880327 0.064423 0.501365 -0.109565
C18   C     C_R   0.872912 0.936860 0.509983 -0.098823
C19   C     C_R   0.989554 0.867618 0.524344 0.010251
C20   C     C_R   0.694305 0.682032 0.396151 -0.044421
C21   C     C_R   0.646170 0.793192 0.366038 0.179218
C22   C     C_R   0.500335 0.809082 0.377051 -0.120030
C23   C     C_R   0.780135 0.520437 0.955871 0.027850
C24   C     C_R   0.405875 0.707462 0.402563 0.084671
C25   C     C_R   0.446723 0.596524 0.449995 0.148017
C26   C     C_R   0.597419 0.591972 0.449445 0.110673
C27   C     C_R   0.553868 0.412118 0.548092 0.012717
C28   C     C_R   0.081648 0.488347 0.328927 0.609823
C29   C     C_R   0.406370 0.411601 0.547567 -0.009709
C30   C     C_R   0.870454 0.517984 0.768821 0.011709
C31   C     C_R   0.128373 0.465747 0.232204 0.004713
C32   C     C_R   0.928337 0.524270 0.910322 -0.129515
C33   C     C_R   0.973154 0.514582 0.818045 -0.147068
C34   C     C_R   0.529969 0.481971 0.955517 0.052888
C35   C     C_R   0.722079 0.532522 0.813817 0.065130
C36   C     C_R   0.482949 0.489965 0.049857 0.040525
C37   C     C_R   0.588321 0.514773 0.094700 -0.075564
C38   C     C_R   0.734784 0.526115 0.048459 -0.068879
C39   C     C_R   0.434223 0.433361 0.912364 -0.094548
C40   C     C_R   0.291114 0.405563 0.958468 -0.119250
Cu1   Cu    Cu3+1 0.140660 0.499990 0.500010 0.967154
Cu2   Cu    Cu3+1 0.859340 0.500010 0.499990 1.009907
H1    H     H_    0.813256 0.539768 0.085241 0.171985
H2    H     H_    0.808441 0.669885 0.376772 0.234982
H3    H     H_    0.343014 0.523207 0.223582 0.155855
H4    H     H_    0.466833 0.897174 0.351115 0.196069
H5    H     H_    0.334828 0.339471 0.587024 0.111112
H6    H     H_    0.221017 0.368445 0.922727 0.113152
H7    H     H_    0.009375 0.530320 0.946322 0.119735
H8    H     H_    0.088261 0.509002 0.784951 0.141882
H9    H     H_    0.563182 0.518548 0.166251 0.167100
H10   H     H_    0.470965 0.411424 0.843098 0.140981
H11   H     H_    0.992243 0.956921 0.288604 0.393002
H12   H     H_    0.024606 0.360160 0.058231 0.150598
H13   H     H_    0.747265 0.275789 0.367428 0.375024
H14   H     H_    0.785849 0.114802 0.492916 0.158192
H15   H     H_    0.306677 0.192569 0.465886 0.161682
H16   H     H_    0.480068 0.078612 0.526188 0.120862
H17   H     H_    0.419969 0.870340 0.603244 0.140677
H18   H     H_    0.188944 0.773396 0.611536 0.147219
H19   H     H_    0.776497 0.892461 0.503426 0.165166
H20   H     H_    0.592507 0.340160 0.587862 0.113193
I1    I     I_    0.270419 0.750562 0.314322 -0.285717
I2    I     I_    0.583580 0.640887 0.748782 -0.408676
N1    N     N_R   0.648320 0.501210 0.499140 -0.233554
N2    N     N_R   0.352470 0.501290 0.499110 -0.237184
O1    O     O_R   0.118810 0.319640 0.500010 -0.528562
O2    O     O_2   0.718813 0.031427 0.338875 -0.286794
O3    O     O_3   0.937600 0.879021 0.311729 -0.524217
O4    O     O_2   0.761322 0.477173 0.262273 -0.338034
O5    O     O_2   0.798392 0.293763 0.176620 -0.252655
O6    O     O_3   0.850252 0.275087 0.331452 -0.473417
O7    O     O_R   0.881240 0.319660 0.500000 -0.501895
O8    O     O_R   0.055570 0.499980 0.629840 -0.522116
O9    O     O_R   0.818000 0.500010 0.629830 -0.476664
O10   O     O_R   0.118760 0.680340 0.500000 -0.495833
O11   O     O_R   0.881190 0.680360 0.499990 -0.518408
O12   O     O_R   0.182000 0.499990 0.370170 -0.490988
O13   O     O_R   0.944430 0.500020 0.370160 -0.447422
O14   O     O_2   0.768578 0.911075 0.207194 -0.211618
S1    S     S_3+6 0.768594 0.908218 0.303872 0.020815
S2    S     S_3+6 0.855799 0.366006 0.238175 0.017074

loop_
_geom_bond_atom_site_label_1
_geom_bond_atom_site_label_2
_ccdc_geom_bond_type
C6    S2    S    
C27   C29   A    
Cu1   Cu2   S    
H11   O3    S    
Cu1   O1    S    
C12   C23   A    
Cu2   O9    S    
C30   C35   A    
C29   H5    S    
O2    S1    D    
C7    H3    S    
C36   C37   A    
C16   O11   A    
C3    C7    A    
C5    C6    A    
C37   H9    S    
C40   H6    S    
C9    H16   S    
C28   O13   A    
C4    O9    A    
Cu1   O8    S    
C8    C9    A    
Cu2   N1    S    
C35   I2    S    
C1    C15   S    
C28   O12   A    
C9    C10   A    
C4    O8    A    
H13   O6    S    
O5    S2    D    
C6    C31   A    
Cu2   O13   S    
C13   C14   A    
C20   H2    S    
C7    C31   A    
C13   C19   A    
C34   C39   A    
C5    H12   S    
C24   C25   A    
C39   C40   A    
C18   C19   A    
C33   H8    S    
C37   C38   A    
C27   N1    A    
C27   H20   S    
C8    H15   S    
C17   C18   A    
C12   C35   A    
C17   H14   S    
C22   H4    S    
C21   S1    S    
C24   I1    S    
C22   C24   A    
C2    C5    A    
C12   C34   A    
C11   H18   S    
Cu1   O12   S    
C15   C17   A    
Cu2   O7    S    
C8    C14   A    
C30   C33   A    
C16   O10   A    
C26   N1    A    
C28   C31   S    
C25   N2    A    
O14   S1    D    
C18   H19   S    
Cu1   N2    S    
C23   C38   A    
C1    O7    A    
C23   C32   A    
C2    C3    A    
C25   C26   A    
C38   H1    S    
C32   C33   A    
Cu1   O10   S    
C11   C13   A    
C20   C26   A    
C3    C36   A    
C16   C19   S    
C1    O1    A    
C39   H10   S    
C34   C36   A    
O4    S2    D    
O6    S2    S    
C32   H7    S    
O3    S1    S    
C10   C11   A    
C29   N2    A    
C2    C40   A    
C20   C21   A    
Cu2   O11   S    
C14   C15   A    
C21   C22   A    
C10   H17   S    
C4    C30   S    
