data_mof_unit_56208.cif
_audit_creation_date              2012-12-11T16:04:49-0500
_audit_creation_method            fapswitch 2.2
_symmetry_space_group_name_H-M    P1
_symmetry_Int_Tables_number       1
_space_group_crystal_system       triclinic
_cell_length_a                    10.6814
_cell_length_b                    10.692284
_cell_length_c                    16.920608
_cell_angle_alpha                 98.787217
_cell_angle_beta                  98.712855
_cell_angle_gamma                 61.141138
_cell_volume                      1665.85868885

loop_
_atom_site_label
_atom_site_type_symbol
_atom_type_description
_atom_site_fract_x
_atom_site_fract_y
_atom_site_fract_z
_atom_type_partial_charge
C1    C     C_R   0.379726 0.715037 0.386780 0.527250
C2    C     C_3   0.333623 0.691195 0.233127 -0.183379
C3    C     C_3   0.366632 0.767723 0.310924 0.073009
C4    C     C_R   0.404670 0.372193 0.356786 0.544662
C5    C     C_3   0.476383 0.785691 0.271851 0.282779
C6    C     C_3   0.358503 0.932564 0.246763 -0.139664
C7    C     C_3   0.248570 0.913974 0.287122 -0.105245
C8    C     C_3   0.214673 0.836971 0.208811 -0.079920
C9    C     C_3   0.326818 0.851762 0.169436 0.000512
C10   C     C_3   0.474720 0.320640 0.801747 -0.160627
C11   C     C_3   0.389358 0.459041 0.757659 -0.130483
C12   C     C_3   0.701686 0.421236 0.258445 -0.162615
C13   C     C_3   0.380105 0.366200 0.680574 0.006389
C14   C     C_3   0.466147 0.228634 0.723519 -0.112146
C15   C     C_3   0.323165 0.243916 0.743326 -0.139696
C16   C     C_R   0.780163 0.373850 0.403171 0.584170
C17   C     C_3   0.237161 0.381619 0.699708 -0.078174
C18   C     C_3   0.246957 0.472212 0.778067 0.251567
C19   C     C_3   0.332086 0.335936 0.821090 0.057702
C20   C     C_1   0.816855 0.342212 0.709688 -0.026035
C21   C     C_1   0.843411 0.315223 0.778181 -0.029215
C22   C     C_1   0.336601 0.815384 0.709163 -0.039649
C23   C     C_3   0.822016 0.340044 0.322276 0.079118
C24   C     C_1   0.311859 0.842378 0.777995 -0.020691
C25   C     C_R   0.892016 0.310561 0.090756 0.537211
C26   C     C_R   0.321156 0.301138 0.119712 0.537930
C27   C     C_R   0.291336 0.897631 0.090351 0.551509
C28   C     C_R   0.355815 0.772917 0.626797 0.542569
C29   C     C_R   0.884830 0.299584 0.860993 0.534700
C30   C     C_R   0.309825 0.295773 0.893572 0.557712
C31   C     C_R   0.279685 0.885679 0.858789 0.564663
C32   C     C_R   0.408682 0.377372 0.601346 0.557957
C33   C     C_R   0.773622 0.379821 0.629652 0.540431
C34   C     C_3   0.869513 0.201864 0.266253 0.204486
C35   C     C_1   0.372046 0.356133 0.272884 -0.027741
C36   C     C_1   0.346975 0.338151 0.202069 -0.041354
C37   C     C_3   0.751045 0.282596 0.201208 -0.135584
C38   C     C_3   0.666465 0.835771 0.284761 -0.066256
C39   C     C_3   0.975276 0.238153 0.234182 -0.095612
C40   C     C_3   0.923312 0.378149 0.290142 0.220366
C41   C     C_3   0.804529 0.461378 0.226602 -0.073534
C42   C     C_3   0.854034 0.322667 0.170925 -0.026690
C43   C     C_3   0.445892 0.706941 0.193181 -0.146129
Cl1   Cl    Cl    0.101207 0.633053 0.815589 -0.559143
Cl2   Cl    Cl    0.897054 0.036498 0.295312 -0.650054
Cl3   Cl    Cl    0.033613 0.442355 0.351626 -0.553159
Cr1   Cr    Cr6+3 0.608340 0.611040 0.520430 1.084747
Cr2   Cr    Cr6+3 0.287650 0.601120 0.489350 1.111310
Cr3   Cr    Cr6+3 0.604040 0.287870 0.490280 1.065426
Cr4   Cr    Cr6+3 0.054020 0.052700 0.970850 1.076060
Cr5   Cr    Cr6+3 0.059230 0.375120 0.993390 1.077376
Cr6   Cr    Cr6+3 0.374950 0.061200 0.992340 1.034771
H1    H     H_    0.590847 0.486853 0.274995 0.107977
H2    H     H_    0.679432 0.245281 0.162749 0.148419
H3    H     H_    0.087448 0.166483 0.220140 0.122930
H4    H     H_    0.779954 0.564983 0.206167 0.164170
H5    H     H_    0.317057 0.596643 0.227465 0.115036
H6    H     H_    0.523053 0.627063 0.151007 0.110750
H7    H     H_    0.610855 0.948710 0.311249 0.168397
H8    H     H_    0.656924 0.831174 0.218017 0.110628
H9    H     H_    0.782098 0.791871 0.305782 0.206968
H10   H     H_    0.366482 0.032789 0.248769 0.125716
H11   H     H_    0.173854 0.996258 0.329494 0.192902
H12   H     H_    0.106100 0.857147 0.181441 0.198906
H13   H     H_    0.419249 0.545731 0.761888 0.112880
H14   H     H_    0.570939 0.296040 0.845077 0.131501
H15   H     H_    0.556752 0.127711 0.700309 0.162186
H16   H     H_    0.295644 0.155077 0.738647 0.124978
H17   H     H_    0.140329 0.406605 0.656816 0.161798
O1    O     O_R   0.751220 0.499230 0.435170 -0.456264
O2    O     O_R   0.412990 0.180750 0.091610 -0.519512
O3    O     O_R   0.366620 0.943130 0.065760 -0.506697
O4    O     O_R   0.477220 0.727600 0.436870 -0.455612
O5    O     O_R   0.160510 0.906330 0.879210 -0.446222
O6    O     O_R   0.930190 0.179050 0.889450 -0.497263
O7    O     O_R   0.909140 0.398170 0.896710 -0.488914
O8    O     O_R   0.186190 0.363460 0.918830 -0.462970
O9    O     O_R   0.401670 0.173200 0.913310 -0.520073
O10   O     O_R   0.356120 0.936130 0.900470 -0.506325
O11   O     O_3   0.162740 0.163010 0.985530 -0.279286
O12   O     O_R   0.297880 0.469080 0.560050 -0.466201
O13   O     O_R   0.258650 0.745120 0.411470 -0.482431
O14   O     O_R   0.297070 0.467240 0.395960 -0.427524
O15   O     O_R   0.488830 0.252610 0.387790 -0.481789
O16   O     O_R   0.724400 0.302390 0.420980 -0.492022
O17   O     O_R   0.752100 0.501210 0.612190 -0.490555
O18   O     O_R   0.478040 0.729440 0.600970 -0.494517
O19   O     O_R   0.259530 0.747110 0.588490 -0.493978
O20   O     O_3   0.613376 0.753270 0.311433 -0.546404
O21   O     O_R   0.489720 0.254590 0.564810 -0.496879
O22   O     O_R   0.725220 0.304230 0.585080 -0.513853
O23   O     O_3   0.500010 0.500010 0.500020 -0.357538
O24   O     O_R   0.171830 0.913880 0.057510 -0.509029
O25   O     O_R   0.940690 0.186050 0.054730 -0.498247
O26   O     O_R   0.920470 0.405720 0.075010 -0.514075
O27   O     O_R   0.196690 0.370460 0.084120 -0.485552

loop_
_geom_bond_atom_site_label_1
_geom_bond_atom_site_label_2
_ccdc_geom_bond_type
C11   C18   S    
C17   H17   S    
C34   C37   S    
Cr1   O23   S    
C13   C32   S    
C35   C36   T    
Cr3   O21   S    
C6    C9    S    
C2    H5    S    
C7    C8    S    
C41   H4    S    
C29   O7    A    
C15   C19   S    
C32   O12   A    
C12   C23   S    
Cr3   O15   S    
C3    C7    S    
C33   O22   A    
C5    C6    S    
C23   C40   S    
C12   C37   S    
Cr2   O12   S    
C18   C19   S    
C41   C42   S    
C37   C42   S    
Cr5   O11   S    
C43   H6    S    
C30   O8    A    
C32   O21   A    
C8    C9    S    
C4    O15   A    
C28   O19   A    
C14   H15   S    
Cr2   O19   S    
Cr6   O10   S    
C2    C43   S    
C12   H1    S    
Cr5   O27   S    
C38   H9    S    
C5    C43   S    
C4    C35   S    
C25   O25   A    
C22   C28   S    
C13   C14   S    
C26   O2    A    
Cr3   O22   S    
Cr6   O9    S    
C39   C42   S    
C10   H14   S    
C26   O27   A    
C39   H3    S    
C9    C43   S    
C34   C39   S    
Cr1   O17   S    
Cr3   O16   S    
C16   O1    A    
Cr5   O7    S    
Cr1   O4    S    
C10   C14   S    
C39   C40   S    
Cr4   O25   S    
C31   O5    A    
C1    O13   A    
C21   C29   S    
C1    C3    S    
Cr1   O18   S    
C40   Cl3   S    
C33   O17   A    
Cr5   O8    S    
Cr1   O1    S    
C12   C41   S    
Cr6   O3    S    
C18   Cl1   S    
C38   O20   S    
C10   C19   S    
C23   C34   S    
C28   O18   A    
C17   C18   S    
C34   Cl2   S    
C7    H11   S    
C8    H12   S    
C38   H8    S    
C20   C33   S    
C26   C36   S    
C40   C41   S    
C25   O26   A    
C16   C23   S    
C16   O16   A    
C22   C24   T    
C27   O24   A    
C37   H2    S    
Cr3   O23   S    
C9    C27   S    
C15   C17   S    
C2    C8    S    
C3    C5    S    
Cr4   O11   S    
C25   C42   S    
Cr4   O24   S    
C31   O10   A    
C6    C7    S    
C29   O6    A    
Cr2   O14   S    
C13   C17   S    
C1    O4    A    
C6    H10   S    
Cr4   O5    S    
C2    C3    S    
C24   C31   S    
Cr6   O2    S    
Cr4   O6    S    
C11   C13   S    
C4    O14   A    
C15   H16   S    
Cr2   O13   S    
C10   C11   S    
C38   H7    S    
C30   O9    A    
C20   C21   T    
Cr2   O23   S    
C14   C15   S    
Cr6   O11   S    
C19   C30   S    
C5    O20   S    
C27   O3    A    
C11   H13   S    
Cr5   O26   S    
