data_mof_unit_52752.cif
_audit_creation_date              2012-12-10T17:16:42-0500
_audit_creation_method            fapswitch 2.2
_symmetry_space_group_name_H-M    P1
_symmetry_Int_Tables_number       1
_space_group_crystal_system       triclinic
_cell_length_a                    23.545304
_cell_length_b                    12.969877
_cell_length_c                    11.671215
_cell_angle_alpha                 99.752911
_cell_angle_beta                  93.757781
_cell_angle_gamma                 90.839319
_cell_volume                      3503.88716058

loop_
_atom_site_label
_atom_site_type_symbol
_atom_type_description
_atom_site_fract_x
_atom_site_fract_y
_atom_site_fract_z
_atom_type_partial_charge
C1    C     C_R   0.496425 0.299894 0.479026 0.890103
C2    C     C_R   0.502156 0.700663 0.520976 0.856520
C3    C     C_R   0.238275 0.540772 0.589742 0.259551
C4    C     C_R   0.769953 0.501979 0.584691 0.274808
C5    C     C_R   0.298331 0.545032 0.597898 0.170037
C6    C     C_R   0.710725 0.504748 0.597037 0.164898
C7    C     C_R   0.328157 0.500663 0.499971 -0.127971
C8    C     C_R   0.672358 0.495296 0.495817 -0.123178
C9    C     C_R   0.297130 0.454143 0.396707 -0.277212
C10   C     C_R   0.694799 0.479595 0.385394 -0.219231
C11   C     C_R   0.238075 0.449592 0.389962 -0.160089
C12   C     C_R   0.753076 0.474475 0.374294 -0.163816
C13   C     C_R   0.208556 0.492515 0.485621 0.285178
C14   C     C_R   0.790702 0.485916 0.473055 0.276944
C15   C     C_R   0.506851 0.814150 0.531188 -0.230188
C16   C     C_R   0.487569 0.187961 0.469861 -0.229097
C17   C     C_R   0.421898 0.040533 0.465339 0.290840
C18   C     C_R   0.565211 0.974189 0.579686 0.303374
C19   C     C_R   0.431376 0.146991 0.461759 0.164555
C20   C     C_R   0.556787 0.867699 0.585753 0.166494
C21   C     C_R   0.534116 0.125991 0.491503 -0.101928
C22   C     C_R   0.463429 0.867904 0.478730 -0.099281
C23   C     C_R   0.390884 0.501418 0.500673 0.856856
C24   C     C_R   0.609391 0.499455 0.499630 0.857873
C25   C     C_R   0.523436 0.025933 0.518862 -0.032971
C26   C     C_R   0.468980 0.977486 0.486904 -0.055721
C27   C     C_R   0.439238 0.412956 0.024607 -0.105654
C28   C     C_R   0.560868 0.585247 0.975586 -0.109836
C29   C     C_R   0.447378 0.419060 0.146349 0.049507
C30   C     C_R   0.552685 0.580033 0.854192 0.021311
C31   C     C_R   0.526015 0.536376 0.156467 0.065391
C32   C     C_R   0.473983 0.463098 0.843262 0.041760
C33   C     C_R   0.522246 0.530244 0.033475 -0.026952
C34   C     C_R   0.477635 0.468595 0.966361 -0.026657
C35   C     C_R   0.878325 0.567180 0.432975 0.556801
C36   C     C_R   0.119450 0.400082 0.490686 0.569969
C37   C     C_R   0.879256 0.395464 0.480013 0.595785
C38   C     C_R   0.119410 0.574091 0.450311 0.589417
C39   C     C_R   0.938783 0.390912 0.472600 -0.079847
C40   C     C_R   0.059342 0.576036 0.447457 -0.091306
C41   C     C_R   0.968827 0.482271 0.456141 -0.106392
C42   C     C_R   0.029101 0.484004 0.461288 -0.117907
C43   C     C_R   0.938471 0.571767 0.434701 -0.088362
C44   C     C_R   0.059272 0.394088 0.481715 -0.070772
C45   C     C_R   0.968771 0.298787 0.484368 0.202894
C46   C     C_R   0.029055 0.666525 0.430033 0.232119
C47   C     C_R   0.028833 0.301390 0.492717 0.190520
C48   C     C_R   0.969117 0.663449 0.420029 0.186878
Cu1   Cu    Cu3+1 0.504210 0.507730 0.615930 0.941607
Cu2   Cu    Cu3+1 0.495790 0.492270 0.384070 0.973279
H1    H     H_    0.442768 0.412822 0.788229 0.152154
H2    H     H_    0.557443 0.586692 0.211211 0.162910
H3    H     H_    0.581541 0.621611 0.809570 0.138283
H4    H     H_    0.418643 0.376767 0.191625 0.149066
H5    H     H_    0.318656 0.419476 0.320838 0.180135
H6    H     H_    0.667216 0.470942 0.306195 0.204866
H7    H     H_    0.214994 0.412927 0.309750 0.160397
H8    H     H_    0.769197 0.462144 0.288358 0.167339
N1    N     N_R   0.850892 0.482137 0.460040 -0.449200
N2    N     N_R   0.147509 0.488881 0.475680 -0.453928
N3    N     N_R   0.510550 0.519360 0.790130 -0.195282
N4    N     N_R   0.489450 0.480640 0.209870 -0.201776
O1    O     O_R   0.502990 0.354470 0.582000 -0.575873
O2    O     O_R   0.497010 0.645530 0.418000 -0.570954
O3    O     O_R   0.495870 0.341410 0.386200 -0.581434
O4    O     O_R   0.504130 0.658590 0.613800 -0.582301
O5    O     O_R   0.421440 0.506500 0.597920 -0.600729
O6    O     O_R   0.578560 0.493500 0.402080 -0.585484
O7    O     O_R   0.414320 0.493440 0.402120 -0.586198
O8    O     O_R   0.585680 0.506560 0.597880 -0.586541
O9    O     O_2   0.846936 0.647457 0.407821 -0.551030
O10   O     O_2   0.150274 0.318512 0.514565 -0.524029
O11   O     O_2   0.849627 0.315250 0.509671 -0.507827
O12   O     O_2   0.150051 0.655620 0.426437 -0.510624
N5    N     N_2   0.938479 0.202225 0.482946 -0.372414
H9    H     H_    0.956254 0.152621 0.534660 0.242402
C49   C     C_3   0.918328 0.148730 0.367980 -0.602392
H10   H     H_    0.890790 0.200134 0.322561 0.239137
H11   H     H_    0.954682 0.124742 0.314538 0.198982
H12   H     H_    0.892916 0.077790 0.375914 0.225262
N6    N     N_2   0.058759 0.761592 0.421874 -0.366700
H13   H     H_    0.040562 0.804045 0.362543 0.262842
C50   C     C_3   0.076448 0.826127 0.532693 -0.591716
H14   H     H_    0.038991 0.858747 0.577604 0.197739
H15   H     H_    0.104040 0.892060 0.517743 0.223665
H16   H     H_    0.101017 0.780188 0.590153 0.242957
C51   C     C_2   0.389531 0.349878 0.964168 0.797473
O13   O     O_2   0.360480 0.381231 0.887042 -0.632642
O14   O     O_R   0.374200 0.256391 0.000085 -0.764529
H17   H     H_    0.339202 0.220921 0.953884 0.338158
C52   C     C_2   0.611170 0.645770 0.036612 0.804940
O15   O     O_2   0.641350 0.609547 0.108525 -0.611816
O16   O     O_R   0.625438 0.742759 0.007970 -0.778678
H18   H     H_    0.661083 0.775932 0.053740 0.345704
N7    N     N_2   0.058625 0.210700 0.513695 -0.382160
H19   H     H_    0.048220 0.179678 0.585493 0.236645
C53   C     C_3   0.069886 0.134509 0.412411 -0.596932
H20   H     H_    0.114180 0.107673 0.422533 0.252293
H21   H     H_    0.065109 0.168288 0.330934 0.218896
H22   H     H_    0.040506 0.065574 0.405075 0.191423
N8    N     N_2   0.940957 0.754548 0.395140 -0.425157
H23   H     H_    0.914464 0.746373 0.320084 0.285224
C54   C     C_3   0.924979 0.830083 0.493324 -0.609778
H24   H     H_    0.878082 0.838591 0.489369 0.256561
H25   H     H_    0.944943 0.907339 0.489373 0.206843
H26   H     H_    0.938757 0.806436 0.577903 0.214335
N9    N     N_2   0.207233 0.586136 0.685532 -0.431753
H27   H     H_    0.223165 0.658316 0.726894 0.274792
C55   C     C_3   0.196596 0.516677 0.766912 -0.632702
H28   H     H_    0.169910 0.556443 0.835243 0.221887
H29   H     H_    0.237372 0.495311 0.809321 0.254059
H30   H     H_    0.173415 0.444553 0.721845 0.253840
N10   N     N_2   0.809369 0.517683 0.684417 -0.411858
H31   H     H_    0.797974 0.480597 0.751180 0.279070
C56   C     C_3   0.826731 0.625799 0.725203 -0.663892
H32   H     H_    0.789738 0.672136 0.756438 0.234455
H33   H     H_    0.845154 0.660175 0.654593 0.246378
H34   H     H_    0.859762 0.630294 0.798392 0.225218
N11   N     N_2   0.327002 0.592036 0.705738 -0.429069
H35   H     H_    0.354584 0.544639 0.743537 0.296781
C57   C     C_3   0.347878 0.698306 0.711300 -0.615015
H36   H     H_    0.385527 0.699794 0.659306 0.263952
H37   H     H_    0.360771 0.732563 0.803199 0.228676
H38   H     H_    0.314087 0.747080 0.678670 0.223208
N12   N     N_2   0.691739 0.524057 0.711688 -0.439854
H39   H     H_    0.664012 0.584444 0.727503 0.253898
C58   C     C_3   0.678029 0.431887 0.760286 -0.602092
H40   H     H_    0.640097 0.389366 0.712428 0.269932
H41   H     H_    0.668867 0.455583 0.853032 0.219588
H42   H     H_    0.714360 0.378061 0.756061 0.223482
C59   C     C_2   0.416214 0.808018 0.403606 0.930727
O17   O     O_2   0.405413 0.825272 0.304757 -0.566645
O18   O     O_R   0.384531 0.732095 0.445263 -0.802509
H43   H     H_    0.353631 0.697532 0.386026 0.339677
C60   C     C_2   0.593247 0.160817 0.473859 0.900952
O19   O     O_2   0.609909 0.251035 0.508980 -0.628618
O20   O     O_R   0.629919 0.088817 0.416270 -0.734186
H44   H     H_    0.668882 0.120753 0.409675 0.340724
N13   N     N_2   0.601467 0.812790 0.635871 -0.451148
H45   H     H_    0.607189 0.737459 0.593963 0.241040
C61   C     C_3   0.603046 0.821825 0.761171 -0.616604
H46   H     H_    0.561883 0.794599 0.788369 0.247404
H47   H     H_    0.611804 0.903679 0.804186 0.240791
H48   H     H_    0.638075 0.774217 0.790820 0.231598
N14   N     N_2   0.383758 0.212452 0.451933 -0.445692
H49   H     H_    0.388702 0.268089 0.399664 0.249348
C62   C     C_3   0.360761 0.254328 0.561787 -0.640582
H50   H     H_    0.319339 0.290667 0.545238 0.242624
H51   H     H_    0.390528 0.314006 0.613666 0.227195
H52   H     H_    0.353596 0.191996 0.613752 0.247308
N15   N     N_2   0.364673 0.999831 0.456109 -0.401251
H53   H     H_    0.335358 0.033446 0.405118 0.293664
C63   C     C_3   0.342832 0.972736 0.560924 -0.678284
H54   H     H_    0.322912 0.893180 0.540551 0.255918
H55   H     H_    0.309496 0.028027 0.592649 0.222495
H56   H     H_    0.376936 0.974027 0.631790 0.225298
N16   N     N_2   0.614625 0.030137 0.638081 -0.407112
H57   H     H_    0.649884 0.986137 0.650505 0.289350
C64   C     C_3   0.604202 0.107753 0.739050 -0.684082
H58   H     H_    0.645116 0.146459 0.777324 0.233713
H59   H     H_    0.584213 0.070822 0.806030 0.222434
H60   H     H_    0.575723 0.169087 0.714773 0.242069

loop_
_geom_bond_atom_site_label_1
_geom_bond_atom_site_label_2
_ccdc_geom_bond_type
C51   O13   D    
N8    H23   S    
Cu1   O1    S    
C22   C59   S    
C27   C29   A    
Cu2   O2    S    
C41   C42   A    
C23   O7    A    
N7    H19   S    
C31   H2    S    
N14   H49   S    
C24   O8    A    
C60   O19   D    
C39   C41   A    
C13   N2    S    
C49   H10   S    
C40   C46   A    
C14   N1    S    
O16   H18   S    
C5    N11   S    
C50   H14   S    
C17   C26   A    
C20   N13   S    
C62   H51   S    
Cu2   O7    S    
C32   N3    A    
C55   H29   S    
C29   H4    S    
C36   O10   S    
C56   H32   S    
C11   C13   A    
C35   N1    A    
C28   C52   S    
C45   C47   A    
C23   O5    A    
C57   H38   S    
C37   O11   S    
C53   H21   S    
C15   C22   A    
C62   H50   S    
C56   H33   S    
C1    O3    A    
N15   H53   S    
C64   H59   S    
C9    H5    S    
C63   H55   S    
C10   H6    S    
C43   C48   A    
C3    C13   A    
C44   C47   A    
C39   C45   A    
C12   H8    S    
C40   C42   A    
N12   H39   S    
C35   O9    S    
N8    C54   S    
N16   H57   S    
C41   C43   A    
C31   N4    A    
C17   N15   S    
C18   C25   A    
C42   C44   A    
C1    O1    A    
N14   C62   S    
C2    O2    A    
C53   H20   S    
C49   H11   S    
C27   C34   A    
C15   C20   A    
C30   H3    S    
C46   C48   A    
Cu1   N3    S    
Cu1   O4    S    
C4    N10   S    
C62   H52   S    
C4    C6    A    
C61   H48   S    
C52   O15   D    
C5    C7    A    
C6    C8    A    
C59   O18   S    
C25   C26   A    
N6    H13   S    
C32   C34   A    
N5    H9    S    
C58   H41   S    
C32   H1    S    
C52   O16   S    
C46   N6    S    
C9    C11   A    
C64   H58   S    
N9    H27   S    
C56   H34   S    
C31   C33   A    
C33   C34   A    
C64   H60   S    
C54   H25   S    
C1    C16   S    
C19   N14   S    
C63   H56   S    
C27   C51   S    
C2    C15   S    
N5    C49   S    
C57   H36   S    
C37   N1    A    
N11   C57   S    
C10   C12   A    
C38   N2    A    
C8    C10   A    
C50   H15   S    
C12   C14   A    
C28   C33   A    
Cu1   Cu2   S    
Cu1   O8    S    
C51   O14   S    
O18   H43   S    
Cu2   N4    S    
C55   H30   S    
C59   O17   D    
C53   H22   S    
C35   C43   A    
N10   H31   S    
C38   O12   S    
C49   H12   S    
C60   O20   S    
C21   C25   A    
C29   N4    A    
C47   N7    S    
Cu1   O5    S    
C6    N12   S    
C3    C5    A    
N6    C50   S    
N13   H45   S    
N7    C53   S    
C16   C21   A    
C2    O4    A    
O20   H44   S    
C45   N5    S    
C3    N9    S    
C61   H47   S    
O14   H17   S    
C58   H42   S    
C37   C39   A    
C18   N16   S    
C11   H7    S    
C61   H46   S    
C38   C40   A    
N13   C61   S    
N9    C55   S    
C16   C19   A    
C7    C23   S    
C48   N8    S    
C28   C30   A    
C17   C19   A    
C54   H26   S    
C18   C20   A    
N15   C63   S    
C4    C14   A    
Cu2   O3    S    
C57   H37   S    
C36   C44   A    
C24   O6    A    
C7    C9    A    
C50   H16   S    
C8    C24   S    
N16   C64   S    
N11   H35   S    
C22   C26   A    
C30   N3    A    
C54   H24   S    
N12   C58   S    
C36   N2    A    
C63   H54   S    
C55   H28   S    
Cu2   O6    S    
C21   C60   S    
C58   H40   S    
N10   C56   S    
