data_mof_unit_16290.cif
_audit_creation_date              2013-03-05T16:14:13-0500
_audit_creation_method            fapswitch 2.2
_symmetry_space_group_name_H-M    P1
_symmetry_Int_Tables_number       1
_space_group_crystal_system       triclinic
_cell_length_a                    6.926119
_cell_length_b                    23.008605
_cell_length_c                    25.592072
_cell_angle_alpha                 90.387765
_cell_angle_beta                  90.314993
_cell_angle_gamma                 89.59053
_cell_volume                      4078.10309754

loop_
_atom_site_label
_atom_site_type_symbol
_atom_site_description
_atom_site_fract_x
_atom_site_fract_y
_atom_site_fract_z
_atom_type_partial_charge
O1    O     O_R   0.692030 0.303130 0.695360 -0.572518
O2    O     O_R   0.307970 0.696870 0.304640 -0.573256
O3    O     O_R   0.363210 0.310250 0.803560 -0.567350
O4    O     O_R   0.636790 0.689750 0.196440 -0.569766
O5    O     O_R   0.192880 0.197710 0.803930 -0.623716
O6    O     O_R   0.807120 0.802290 0.196070 -0.617316
C1    C     C_R   0.531445 0.324850 0.821461 0.975307
C2    C     C_R   0.468562 0.675169 0.178522 0.991719
O7    O     O_R   0.362320 0.310070 0.695740 -0.561975
O8    O     O_R   0.637680 0.689930 0.304260 -0.562253
O9    O     O_R   0.191980 0.197530 0.695350 -0.603820
O10   O     O_R   0.808020 0.802470 0.304650 -0.605027
C3    C     C_R   0.529933 0.324613 0.677765 0.978511
C4    C     C_R   0.470066 0.675386 0.322234 0.976681
O11   O     O_R   0.692920 0.303310 0.803940 -0.575623
O12   O     O_R   0.307080 0.696690 0.196060 -0.573603
O13   O     O_3   0.525970 0.213500 0.749640 -0.303302
O14   O     O_3   0.474030 0.786500 0.250360 -0.299563
V1    V     V_3+5 0.251120 0.257270 0.749650 1.252723
V2    V     V_3+5 0.748880 0.742730 0.250350 1.253872
O15   O     O_R   0.862270 0.190590 0.695730 -0.609463
O16   O     O_R   0.137730 0.809410 0.304270 -0.611794
C5    C     C_R   0.031053 0.176343 0.677514 0.923066
C6    C     C_R   0.968945 0.823667 0.322477 0.917229
O17   O     O_R   0.863160 0.190770 0.803550 -0.601721
O18   O     O_R   0.136840 0.809230 0.196450 -0.588433
C7    C     C_R   0.032991 0.178419 0.822671 0.950653
C8    C     C_R   0.967218 0.821946 0.177814 0.930921
V3    V     V_3+5 0.751120 0.243570 0.749640 1.208659
V4    V     V_3+5 0.248880 0.756430 0.250360 1.215280
O19   O     O_3   0.026140 0.287350 0.749650 -0.199804
O20   O     O_3   0.973860 0.712650 0.250350 -0.201985
C9    C     C_R   0.045945 0.136485 0.866350 -0.274645
C10   C     C_R   0.952897 0.865505 0.135882 -0.191792
C11   C     C_R   0.909330 0.091988 0.868376 -0.093192
C12   C     C_R   0.060450 0.916435 0.141235 -0.216932
C13   C     C_R   0.912458 0.050514 0.908222 -0.052742
C14   C     C_R   0.035894 0.962597 0.106624 -0.065962
C15   C     C_R   0.052482 0.054792 0.948670 -0.068402
C16   C     C_R   0.910779 0.956280 0.063102 -0.020690
C17   C     C_R   0.194325 0.098601 0.946385 0.442496
C18   C     C_R   0.801814 0.904936 0.057026 0.363521
C19   C     C_R   0.189552 0.140238 0.905990 -0.205325
C20   C     C_R   0.821134 0.859376 0.093681 -0.224279
C21   C     C_2   0.058874 0.012929 0.992713 -0.154427
C22   C     C_2   0.902565 0.000643 0.021380 -0.077553
H1    H     H_    0.802676 0.088478 0.837369 0.162905
H2    H     H_    0.155834 0.921611 0.174692 0.121990
H3    H     H_    0.764092 0.020237 0.011810 0.205704
H4    H     H_    0.197199 0.993736 0.003304 0.205287
C23   C     C_R   0.959636 0.867279 0.365775 -0.124243
C24   C     C_R   0.040356 0.132753 0.634197 -0.126012
C25   C     C_R   0.129325 0.891664 0.386802 -0.175401
C26   C     C_R   0.870662 0.108390 0.613152 -0.170251
C27   C     C_R   0.120689 0.932137 0.427926 -0.135116
C28   C     C_R   0.879295 0.067935 0.572014 -0.133963
C29   C     C_R   0.941045 0.949305 0.449161 0.231853
C30   C     C_R   0.058941 0.050763 0.550783 0.231123
C31   C     C_R   0.772454 0.925078 0.428050 -0.154751
C32   C     C_R   0.227535 0.074976 0.571906 -0.153386
C33   C     C_R   0.781045 0.884623 0.386972 -0.161774
C34   C     C_R   0.218947 0.115413 0.612998 -0.157709
N1    N     N_2   0.922187 0.990222 0.491251 -0.105010
N2    N     N_2   0.077798 0.009851 0.508688 -0.104980
H5    H     H_    0.730512 0.120653 0.628365 0.131491
H6    H     H_    0.269474 0.879403 0.371587 0.130668
H7    H     H_    0.745360 0.050349 0.556994 0.114284
H8    H     H_    0.254621 0.949735 0.442935 0.114101
H9    H     H_    0.633096 0.937573 0.443670 0.109540
H10   H     H_    0.366894 0.062480 0.556286 0.109426
H11   H     H_    0.647343 0.866839 0.371944 0.129888
H12   H     H_    0.352652 0.133184 0.628036 0.130328
C35   C     C_R   0.538311 0.367680 0.865387 -0.297676
C36   C     C_R   0.461702 0.632344 0.134590 -0.306165
C37   C     C_R   0.394356 0.411217 0.872192 0.348607
C38   C     C_R   0.605746 0.588839 0.127752 0.340299
C39   C     C_R   0.403767 0.449542 0.915075 -0.229563
C40   C     C_R   0.596289 0.550509 0.084874 -0.229155
C41   C     C_R   0.554507 0.445317 0.952191 0.189069
C42   C     C_R   0.445429 0.554700 0.047791 0.190671
C43   C     C_R   0.697574 0.402796 0.944745 -0.114667
C44   C     C_R   0.302293 0.597193 0.055264 -0.127972
C45   C     C_R   0.689934 0.364524 0.902044 -0.072324
C46   C     C_R   0.309972 0.635470 0.097962 -0.072566
N3    N     N_2   0.568513 0.482450 0.997136 -0.075004
N4    N     N_2   0.431402 0.517565 0.002846 -0.075434
H13   H     H_    0.708199 0.517710 0.080757 0.163679
H14   H     H_    0.291934 0.482369 0.919166 0.161819
H15   H     H_    0.815270 0.398928 0.972574 0.142119
H16   H     H_    0.184512 0.601037 0.027458 0.137860
H17   H     H_    0.801498 0.331558 0.898238 0.165289
H18   H     H_    0.198350 0.668417 0.101785 0.161603
C47   C     C_R   0.536421 0.367213 0.633739 -0.262174
C48   C     C_R   0.463575 0.632782 0.366256 -0.261179
C49   C     C_R   0.391314 0.410029 0.625656 0.328422
C50   C     C_R   0.608673 0.589963 0.374332 0.328216
C51   C     C_R   0.403522 0.448209 0.583179 -0.259738
C52   C     C_R   0.596477 0.551781 0.416807 -0.259339
C53   C     C_R   0.559095 0.445530 0.547737 0.217236
C54   C     C_R   0.440917 0.554462 0.452255 0.217223
C55   C     C_R   0.707190 0.403815 0.556674 -0.064804
C56   C     C_R   0.292825 0.596179 0.443323 -0.064825
C57   C     C_R   0.692416 0.365055 0.598837 -0.227987
C58   C     C_R   0.307590 0.634941 0.401162 -0.227761
N5    N     N_2   0.571368 0.483632 0.503591 -0.028646
N6    N     N_2   0.428651 0.516359 0.496399 -0.028654
H19   H     H_    0.710475 0.519811 0.421769 0.204641
H20   H     H_    0.289517 0.480175 0.578213 0.204573
H21   H     H_    0.803841 0.332298 0.604243 0.162629
H22   H     H_    0.196166 0.667700 0.395759 0.162814
N7    N     N_R   0.759523 0.581534 0.164711 0.241191
O21   O     O_R   0.912409 0.613732 0.161285 -0.389240
O22   O     O_R   0.767212 0.534601 0.192694 -0.311216
N8    N     N_R   0.240749 0.418563 0.835188 0.240602
O23   O     O_R   0.087630 0.386465 0.838613 -0.384235
O24   O     O_R   0.233486 0.465458 0.807148 -0.315577
N9    N     N_R   0.766171 0.582769 0.338847 0.243256
O25   O     O_R   0.910414 0.618550 0.341097 -0.395614
O26   O     O_R   0.788206 0.533438 0.314413 -0.303201
N10   N     N_R   0.233788 0.417222 0.661133 0.243307
O27   O     O_R   0.089605 0.381418 0.658894 -0.395749
O28   O     O_R   0.211636 0.466570 0.685530 -0.304324
C59   C     C_2   0.881289 0.398809 0.523151 0.591714
H23   H     H_    0.988655 0.365391 0.531234 -0.002496
O29   O     O_2   0.909120 0.431634 0.486732 -0.553707
C60   C     C_2   0.118737 0.601186 0.476850 0.591506
H24   H     H_    0.011373 0.634605 0.468771 -0.002271
O30   O     O_2   0.090913 0.568359 0.513269 -0.554001
C61   C     C_2   0.707583 0.804968 0.087606 0.658304
H25   H     H_    0.765694 0.764030 0.101750 -0.033243
O31   O     O_2   0.546312 0.805406 0.068090 -0.540192
C62   C     C_2   0.327686 0.189394 0.908064 0.625583
H26   H     H_    0.412902 0.200829 0.874383 0.013316
O32   O     O_2   0.349223 0.217389 0.948353 -0.527167
N11   N     N_R   0.346742 0.100308 0.984662 0.242802
O33   O     O_R   0.306952 0.109731 0.033572 -0.304442
O34   O     O_R   0.526124 0.099719 0.969866 -0.403157
N12   N     N_R   0.679627 0.897900 0.011990 0.240835
O35   O     O_R   0.531119 0.931976 0.005171 -0.413048
O36   O     O_R   0.715644 0.856999 0.977990 -0.348145
C63   C     C_2   0.134558 0.017779 0.119451 0.632652
H27   H     H_    0.267018 0.017191 0.142328 0.003137
O37   O     O_2   0.063431 0.064503 0.107366 -0.495664
C64   C     C_2   0.777408 0.000758 0.904508 0.615815
H28   H     H_    0.806177 0.961156 0.925860 0.071406
O38   O     O_2   0.633195 0.003126 0.876895 -0.558272

loop_
_geom_bond_atom_site_label_1
_geom_bond_atom_site_label_2
_geom_bond_distance
_ccdc_geom_bond_type
C40   H13   1.082989 S    
C14   C16   1.414798 A    
C60   H24   1.085932 S    
C13   C64   1.485730 S    
C18   N12   1.435099 S    
O13   V3    1.710521 S    
N7    O21   1.300340 A    
C23   C33   1.407457 A    
C17   N11   1.436749 S    
O4    C2    1.295403 A    
V1    O19   1.700497 S    
C47   C57   1.406029 A    
N8    O23   1.300345 A    
C59   H23   1.085933 S    
C1    C35   1.490707 S    
C26   H5    1.082680 S    
C21   C22   1.343916 D    
C7    C9    1.483510 S    
C16   C22   1.482727 S    
C22   H3    1.084335 S    
O9    V1    1.991024 S    
C55   C59   1.487074 S    
C36   C38   1.418882 A    
C19   C62   1.487088 S    
C11   C13   1.401277 A    
C38   C40   1.404678 A    
O3    C1    1.295420 A    
N9    O26   1.300592 A    
C9    C11   1.400457 A    
C40   C42   1.410896 A    
C29   C31   1.401567 A    
O12   V4    1.988807 S    
C32   C34   1.400636 A    
O7    C3    1.297995 A    
C42   N4    1.431478 S    
C51   C53   1.413026 A    
O5    C7    1.291960 A    
C51   H20   1.082805 S    
O7    V1    2.005064 S    
O6    C8    1.291559 A    
C39   H14   1.082990 S    
O8    V2    2.005065 S    
C62   H26   1.082336 S    
C50   C52   1.405549 A    
O3    V1    1.992770 S    
O14   V4    1.710520 S    
C10   C12   1.398591 A    
C15   C21   1.487884 S    
C43   H15   1.083100 S    
C33   H11   1.082701 S    
C6    C23   1.491210 S    
C25   C27   1.401790 A    
C48   C58   1.406021 A    
C2    O12   1.300830 A    
C30   N2    1.431704 S    
C17   C19   1.414279 A    
C18   C20   1.416564 A    
C2    C36   1.490751 S    
C43   C45   1.399819 A    
C24   C26   1.408571 A    
O11   V3    1.988803 S    
C39   C41   1.410899 A    
O15   C5    1.299928 A    
O17   V3    1.994737 S    
C53   N5    1.437940 S    
C26   C28   1.401792 A    
C31   C33   1.400634 A    
C9    C19   1.419459 A    
C50   N9    1.431213 S    
N11   O33   1.299613 A    
C10   C20   1.417084 A    
C42   C44   1.400365 A    
O8    C4    1.297996 A    
C41   C43   1.400363 A    
C27   H8    1.082282 S    
C64   H28   1.082379 S    
C1    O11   1.300800 A    
C20   C61   1.489959 S    
N3    N4    1.250968 D    
O15   V3    1.989369 S    
C52   H19   1.082806 S    
C3    C47   1.499467 S    
C23   C25   1.408567 A    
C48   C50   1.417610 A    
C32   H10   1.082968 S    
O10   V2    1.991026 S    
O1    V3    1.996666 S    
C34   H12   1.082702 S    
N7    O22   1.300391 A    
C37   N8    1.430313 S    
C56   C58   1.409126 A    
C25   H6    1.082680 S    
C37   C39   1.404689 A    
N12   O36   1.301141 A    
C31   H9    1.082968 S    
C62   O32   1.221049 D    
C4    C48   1.499451 S    
C64   O38   1.221478 D    
C53   C55   1.418432 A    
C54   C56   1.418434 A    
O18   V4    1.994737 S    
C44   C46   1.399832 A    
C27   C29   1.413147 A    
C14   C63   1.480215 S    
O16   C6    1.299923 A    
C58   H22   1.083848 S    
O1    C3    1.302718 A    
C35   C37   1.418856 A    
C12   C14   1.396459 A    
C41   N3    1.431462 S    
O6    V2    2.002555 S    
N10   O27   1.299873 A    
N10   O28   1.300593 A    
C61   H25   1.085270 S    
V2    O20   1.700497 S    
N11   O34   1.300784 A    
C60   O30   1.220598 D    
O16   V4    1.989367 S    
O18   C8    1.297727 A    
C29   N1    1.431705 S    
C36   C46   1.406149 A    
C16   C18   1.413624 A    
C56   C60   1.487075 S    
N8    O24   1.300388 A    
C49   C51   1.405547 A    
O5    V1    2.002555 S    
C49   N10   1.431222 S    
O17   C7    1.301772 A    
C28   H7    1.082282 S    
C45   H17   1.083215 S    
N5    N6    1.251883 D    
O10   C6    1.299036 A    
C54   N6    1.437935 S    
C44   H16   1.083101 S    
O2    V4    1.996668 S    
C57   H21   1.083846 S    
C63   O37   1.220391 D    
V3    O19   2.161123 S    
C24   C34   1.407461 A    
N9    O25   1.299875 A    
V4    O20   2.161121 S    
C5    C24   1.491226 S    
C47   C49   1.417624 A    
C21   H4    1.085848 S    
C38   N7    1.430321 S    
O9    C5    1.299037 A    
O13   V1    2.147251 S    
C28   C30   1.413147 A    
C12   H2    1.085037 S    
O14   V2    2.147250 S    
O2    C4    1.302708 A    
C52   C54   1.413028 A    
C59   O29   1.220596 D    
N12   O35   1.300577 A    
C8    C10   1.475740 S    
N1    N2    1.250464 D    
O4    V2    1.992773 S    
C13   C15   1.417997 A    
C15   C17   1.414274 A    
C55   C57   1.409129 A    
C46   H18   1.083235 S    
C11   H1    1.084183 S    
C63   H27   1.085659 S    
C30   C32   1.401568 A    
C35   C45   1.406122 A    
C61   O31   1.221048 D    
