data_mof_unit_55368.cif
_audit_creation_date              2012-12-11T14:36:22-0500
_audit_creation_method            fapswitch 2.2
_symmetry_space_group_name_H-M    P1
_symmetry_Int_Tables_number       1
_space_group_crystal_system       triclinic
_cell_length_a                    13.50377
_cell_length_b                    13.490038
_cell_length_c                    27.469393
_cell_angle_alpha                 90.564717
_cell_angle_beta                  90.004545
_cell_angle_gamma                 60.014777
_cell_volume                      4333.95755823

loop_
_atom_site_label
_atom_site_type_symbol
_atom_type_description
_atom_site_fract_x
_atom_site_fract_y
_atom_site_fract_z
_atom_type_partial_charge
C1    C     C_R   0.619815 0.101125 0.570285 0.543921
C2    C     C_1   0.650538 0.700821 0.657741 0.066512
C3    C     C_3   0.069286 0.183524 0.739224 -0.128578
C4    C     C_R   0.599786 0.779085 0.568600 0.542390
C5    C     C_3   0.142056 0.084589 0.774352 0.266779
C6    C     C_1   0.102363 0.198810 0.902897 0.039282
C7    C     C_1   0.229260 0.138972 0.617406 0.034438
C8    C     C_3   0.085797 0.266464 0.773979 -0.092589
C9    C     C_3   0.158234 0.165615 0.808659 0.015024
C10   C     C_3   0.197024 0.237289 0.746757 0.210889
C11   C     C_3   0.180677 0.156838 0.712176 0.020835
C12   C     C_1   0.631932 0.729721 0.615888 0.041507
C13   C     C_3   0.270281 0.138610 0.781859 -0.084884
C14   C     C_3   0.251399 0.058521 0.747188 0.245425
C15   C     C_1   0.133873 0.178443 0.861077 0.035965
C16   C     C_R   0.277396 0.122089 0.569554 0.545046
C17   C     C_1   0.201717 0.149058 0.659631 0.026991
C18   C     C_3   0.679003 0.245127 0.738568 -0.106432
C19   C     C_3   0.579063 0.282701 0.774951 0.236147
C20   C     C_1   0.688995 0.207692 0.903733 0.042817
C21   C     C_1   0.632403 0.131687 0.618923 0.043752
C22   C     C_3   0.753332 0.146530 0.773278 0.264775
C23   C     C_3   0.722418 0.555319 0.768663 0.220482
C24   C     C_3   0.654510 0.186072 0.809699 0.083017
C25   C     C_3   0.717999 0.067090 0.748385 0.265970
C26   C     C_3   0.641714 0.165471 0.714071 -0.036307
C27   C     C_3   0.617291 0.106725 0.784863 -0.145740
C28   C     C_R   0.623816 0.101717 0.432020 0.560348
C29   C     C_3   0.539412 0.205776 0.749747 -0.145684
C30   C     C_1   0.669275 0.197066 0.861874 0.065738
C31   C     C_1   0.637481 0.150124 0.661510 0.020446
C32   C     C_R   0.743350 0.686539 0.360763 0.235770
C33   C     C_R   0.753081 0.672609 0.309829 0.010465
C34   C     C_3   0.681929 0.654254 0.806240 -0.041681
C35   C     C_R   0.768756 0.654873 0.207008 -0.007053
C36   C     C_R   0.865535 0.632572 0.235652 0.238961
C37   C     C_R   0.854668 0.647621 0.285983 -0.013591
C38   C     C_R   0.772353 0.647566 0.155444 0.185787
C39   C     C_R   0.681847 0.647219 0.130344 0.052698
C40   C     C_R   0.602673 0.774410 0.430597 0.531054
C41   C     C_R   0.553618 0.707802 0.356295 -0.113037
C42   C     C_R   0.560279 0.698649 0.305912 0.002182
C43   C     C_R   0.659791 0.683512 0.282255 -0.029776
C44   C     C_R   0.466767 0.710983 0.278569 0.231270
C45   C     C_3   0.608425 0.622477 0.740244 -0.136419
C46   C     C_R   0.469912 0.715119 0.228294 -0.047427
C47   C     C_R   0.568786 0.697666 0.204003 -0.034503
C48   C     C_R   0.666017 0.678567 0.231043 -0.054551
C49   C     C_R   0.575005 0.689879 0.153257 0.175745
C50   C     C_R   0.638403 0.714143 0.383334 -0.026931
C51   C     C_R   0.187340 0.068870 0.360985 0.178016
C52   C     C_R   0.275044 0.122206 0.431436 0.579457
C53   C     C_R   0.155862 0.085348 0.311080 -0.039346
C54   C     C_R   0.134149 0.098240 0.208185 -0.033219
C55   C     C_R   0.112638 0.021083 0.234564 0.302276
C56   C     C_3   0.664309 0.678508 0.710014 0.053343
C57   C     C_R   0.121390 0.016043 0.285274 0.329971
C58   C     C_R   0.127842 0.104552 0.156837 0.216158
C59   C     C_R   0.113885 0.203684 0.134003 0.004524
C60   C     C_R   0.181469 0.252650 0.361776 0.189981
C61   C     C_R   0.176353 0.255694 0.311045 -0.026717
C62   C     C_R   0.163551 0.171817 0.285398 -0.074548
C63   C     C_R   0.189765 0.337879 0.285530 -0.001836
C64   C     C_3   0.776223 0.611768 0.738316 0.236568
C65   C     C_R   0.191119 0.338079 0.235047 0.241936
C66   C     C_R   0.165754 0.262566 0.209082 -0.006620
C67   C     C_3   0.570003 0.720594 0.778081 0.229543
C68   C     C_R   0.154727 0.177222 0.234217 -0.046183
C69   C     C_R   0.140171 0.277619 0.159546 -0.170132
C70   C     C_R   0.207675 0.150006 0.385667 0.010278
C71   C     C_R   0.567831 0.246569 0.364837 0.183290
C72   C     C_R   0.571471 0.262416 0.314248 -0.035716
C73   C     C_R   0.579696 0.290145 0.212473 0.005126
C74   C     C_R   0.498604 0.381858 0.242043 0.243136
C75   C     C_R   0.493177 0.365542 0.291849 -0.009318
C76   C     C_3   0.737890 0.710360 0.776173 -0.142975
C77   C     C_R   0.591104 0.302279 0.162280 -0.129155
C78   C     C_3   0.624336 0.775885 0.747928 0.296474
C79   C     C_R   0.677297 0.211985 0.135139 -0.024537
C80   C     C_R   0.742201 0.060338 0.357279 0.190163
C81   C     C_R   0.737131 0.069557 0.306820 -0.001754
C82   C     C_R   0.653499 0.171574 0.285107 -0.050734
C83   C     C_R   0.814057 0.976867 0.277776 -0.015070
C84   C     C_R   0.810450 0.984698 0.227492 0.212550
C85   C     C_R   0.734278 0.089342 0.205497 0.007402
C86   C     C_R   0.654936 0.183566 0.234296 -0.005978
C87   C     C_R   0.741288 0.104038 0.155862 -0.100006
C88   C     C_1   0.696978 0.609682 0.900791 0.043991
C89   C     C_1   0.689050 0.635443 0.858660 0.023801
C90   C     C_R   0.648506 0.140969 0.385746 -0.000244
C91   C     C_R   0.050252 0.235734 0.950055 0.552245
C92   C     C_R   0.711322 0.563718 0.948511 0.555280
C93   C     C_R   0.721863 0.225416 0.951117 0.545790
C94   C     C_R   0.050542 0.243443 0.087916 0.558171
C95   C     C_R   0.706395 0.578248 0.085415 0.587198
C96   C     C_R   0.717885 0.233634 0.089150 0.531968
Cl1   Cl    Cl    0.813678 0.922855 0.730226 -0.545913
Cl2   Cl    Cl    0.449448 0.733921 0.118164 -0.491499
Cl3   Cl    Cl    0.343262 0.720789 0.305212 -0.412842
Cl4   Cl    Cl    0.150375 0.985582 0.120401 -0.442174
Cl5   Cl    Cl    0.210853 0.942990 0.391082 -0.481946
Cl6   Cl    Cl    0.152340 0.378878 0.394591 -0.495023
Cl7   Cl    Cl    0.465308 0.359869 0.402011 -0.512279
Cl8   Cl    Cl    0.906414 0.861579 0.193938 -0.509058
Cl9   Cl    Cl    0.788529 0.408298 0.784327 -0.614782
Cr1   Cr    Cr6+3 0.417550 0.169090 0.500530 1.154006
Cr2   Cr    Cr6+3 0.669180 0.913420 0.499920 1.107173
Cr3   Cr    Cr6+3 0.413260 0.917540 0.499520 1.116343
Cr4   Cr    Cr6+3 0.909170 0.177380 0.020380 1.128286
Cr5   Cr    Cr6+3 0.912710 0.429210 0.018220 1.095313
Cr6   Cr    Cr6+3 0.657170 0.432570 0.019030 1.099651
H1    H     H_    0.790046 0.746392 0.790761 0.175984
H2    H     H_    0.131812 0.352251 0.141409 0.165584
H3    H     H_    0.206729 0.398589 0.304438 0.223451
H4    H     H_    0.538936 0.382724 0.144248 0.153372
H5    H     H_    0.428523 0.436726 0.312899 0.239365
H6    H     H_    0.804676 0.034089 0.133833 0.205147
H7    H     H_    0.875965 0.896552 0.293972 0.239536
H8    H     H_    0.555843 0.586610 0.725938 0.137391
H9    H     H_    0.988001 0.201620 0.721690 0.160724
H10   H     H_    0.227722 0.358574 0.761111 0.325914
H11   H     H_    0.471526 0.438649 0.759857 0.330099
H12   H     H_    0.352271 0.120581 0.798705 0.115513
H13   H     H_    0.909038 0.088956 0.755370 0.341035
H14   H     H_    0.884881 0.692531 0.143682 0.401118
H15   H     H_    0.939563 0.535782 0.742759 0.340861
H16   H     H_    0.830432 0.651721 0.420462 0.350672
H17   H     H_    0.985212 0.529750 0.192318 0.356494
H18   H     H_    0.007063 0.011784 0.190788 0.345616
H19   H     H_    0.535347 0.933789 0.766486 0.348110
H20   H     H_    0.032414 0.999501 0.335682 0.346441
H21   H     H_    0.254777 0.380260 0.181135 0.335155
H22   H     H_    0.461053 0.508548 0.199003 0.326854
H23   H     H_    0.020731 0.353977 0.785865 0.176483
H24   H     H_    0.448763 0.720949 0.814456 0.347334
H25   H     H_    0.854619 0.997802 0.408135 0.352566
H26   H     H_    0.119535 0.957768 0.760412 0.328828
H27   H     H_    0.297547 0.921061 0.709890 0.322072
H28   H     H_    0.703664 0.301189 0.719037 0.164980
H29   H     H_    0.450426 0.231841 0.739367 0.178206
H30   H     H_    0.593172 0.050873 0.804843 0.123664
H31   H     H_    0.928902 0.633819 0.306566 0.231261
H32   H     H_    0.395758 0.726302 0.208557 0.238944
H33   H     H_    0.475917 0.722873 0.374190 0.235186
O1    O     O_R   0.301710 0.195650 0.554160 -0.481450
O2    O     O_R   0.635520 0.542770 0.964420 -0.480662
O3    O     O_R   0.665950 0.325030 0.970100 -0.490411
O4    O     O_R   0.522390 0.158990 0.550460 -0.492963
O5    O     O_R   0.816620 0.158530 0.074540 -0.497667
O6    O     O_R   0.004460 0.188870 0.069750 -0.449702
O7    O     O_R   0.025800 0.341780 0.072300 -0.507365
O8    O     O_R   0.807650 0.528950 0.067500 -0.447092
O9    O     O_R   0.633420 0.550490 0.071810 -0.467945
O10   O     O_R   0.664000 0.332180 0.069640 -0.502034
O11   O     O_3   0.826350 0.346390 0.019210 -0.287425
O12   O     O_R   0.658900 0.818120 0.449760 -0.476670
O13   O     O_R   0.694390 0.003530 0.554040 -0.488320
O14   O     O_R   0.657700 0.819660 0.549320 -0.484828
O15   O     O_R   0.501930 0.803280 0.552920 -0.500698
O16   O     O_R   0.318170 0.023580 0.549580 -0.497580
O17   O     O_R   0.303010 0.193990 0.446760 -0.433807
O18   O     O_R   0.523600 0.157450 0.450900 -0.440731
O19   O     O_R   0.695690 0.001860 0.446640 -0.479928
O20   O     O_3   0.223815 0.319384 0.731070 -0.669925
O21   O     O_3   0.505847 0.395626 0.790100 -0.654649
O22   O     O_3   0.865210 0.114361 0.786282 -0.598559
O23   O     O_R   0.503220 0.801620 0.445520 -0.485556
O24   O     O_3   0.861554 0.640801 0.128359 -0.663333
O25   O     O_3   0.883967 0.552689 0.716160 -0.626905
O26   O     O_3   0.835463 0.675729 0.387014 -0.637224
O27   O     O_3   0.973801 0.589261 0.216644 -0.597832
O28   O     O_3   0.068888 0.959041 0.212794 -0.526678
O29   O     O_3   0.571587 0.891636 0.735930 -0.612391
O30   O     O_3   0.082324 0.951946 0.308450 -0.528729
O31   O     O_3   0.217241 0.413549 0.212800 -0.606707
O32   O     O_3   0.422114 0.488329 0.224162 -0.610925
O33   O     O_3   0.461961 0.780339 0.799911 -0.621106
O34   O     O_R   0.319370 0.022040 0.450020 -0.450112
O35   O     O_3   0.837338 0.969399 0.377684 -0.640199
O36   O     O_3   0.117672 0.000886 0.790151 -0.607157
O37   O     O_3   0.335897 0.949234 0.732261 -0.610434
O38   O     O_3   0.499990 0.000010 0.499990 -0.293576
O39   O     O_R   0.818720 0.150820 0.967160 -0.485903
O40   O     O_R   0.006410 0.181720 0.970200 -0.470746
O41   O     O_R   0.027890 0.334070 0.964920 -0.507930
O42   O     O_R   0.809600 0.521790 0.967960 -0.497159

loop_
_geom_bond_atom_site_label_1
_geom_bond_atom_site_label_2
_ccdc_geom_bond_type
C66   C68   A    
C20   C93   S    
C63   C65   A    
Cr5   O41   S    
C1    C21   S    
C23   C45   S    
C4    O15   A    
C27   C29   S    
C41   C42   A    
C41   C50   A    
H18   O28   S    
C35   C36   A    
C18   C26   S    
C24   C27   S    
C9    C15   S    
C2    C12   T    
Cr2   O14   S    
C79   C87   A    
C81   C82   A    
Cr1   O4    S    
C47   C49   A    
Cr3   O15   S    
C20   C30   T    
C85   C86   A    
H16   O26   S    
C38   O24   S    
C21   C31   T    
H25   O35   S    
C69   H2    S    
H22   O32   S    
Cr1   O1    S    
C83   C84   A    
C27   H30   S    
C83   H7    S    
C36   C37   A    
C76   C78   S    
C87   H6    S    
Cr5   O8    S    
C38   C39   A    
C13   H12   S    
C44   Cl3   S    
C92   O42   A    
C66   C69   A    
C54   C68   A    
C28   O18   A    
C77   H4    S    
C6    C91   S    
C23   Cl9   S    
C49   Cl2   S    
C56   C78   S    
C18   C19   S    
C73   C74   A    
Cr1   O17   S    
C64   O25   S    
C61   C63   A    
H27   O37   S    
C9    C13   S    
Cr1   O38   S    
C40   O23   A    
C32   O26   S    
Cr5   O11   S    
C81   C83   A    
C6    C15   T    
C54   C55   A    
C63   H3    S    
C96   O10   A    
C88   C92   S    
C45   C56   S    
C8    C9    S    
C7    C17   T    
C22   C25   S    
C45   C67   S    
C78   O29   S    
C56   C64   S    
C26   C29   S    
C59   C94   S    
C52   C70   S    
C4    C12   S    
C43   C48   A    
Cr2   O12   S    
C52   O17   A    
Cr4   O39   S    
C85   C87   A    
C91   O41   A    
C26   C31   S    
H11   O21   S    
C91   O40   A    
C65   O31   S    
C18   H28   S    
C67   C78   S    
C42   C44   A    
C72   C75   A    
C60   Cl6   S    
C35   C48   A    
Cr2   O13   S    
C44   C46   A    
C24   C30   S    
C77   C79   A    
H19   O29   S    
C4    O14   A    
C74   C75   A    
Cr2   O38   S    
C92   O2    A    
C33   C43   A    
C80   O35   S    
C35   C38   A    
C58   Cl4   S    
C84   C85   A    
H24   O33   S    
C41   H33   S    
C3    C8    S    
C37   H31   S    
Cr6   O2    S    
C53   C57   A    
C74   O32   S    
C25   C26   S    
C82   C86   A    
H10   O20   S    
C8    H23   S    
C33   C37   A    
C60   C61   A    
C95   O9    A    
H21   O31   S    
Cr4   O5    S    
C5    O36   S    
C5    C9    S    
Cr6   O3    S    
C95   O8    A    
C53   C62   A    
C40   O12   A    
C47   C48   A    
C60   C70   A    
C76   H1    S    
C23   C34   S    
C39   C95   S    
H14   O24   S    
C64   C76   S    
Cr3   O34   S    
C88   C89   T    
Cr6   O9    S    
C32   C50   A    
C5    C14   S    
C59   C69   A    
H13   O22   S    
Cr4   O40   S    
C25   Cl1   S    
C23   C64   S    
C51   C70   A    
Cr3   O23   S    
Cr2   O19   S    
Cr5   O7    S    
C55   C57   A    
C67   O33   S    
C84   Cl8   S    
C22   C24   S    
C58   C59   A    
C94   O6    A    
C42   C43   A    
C19   C29   S    
C55   O28   S    
C14   O37   S    
C54   C58   A    
C3    H9    S    
C29   H29   S    
C71   Cl7   S    
C46   C47   A    
Cr5   O42   S    
C36   O27   S    
C10   O20   S    
C39   C49   A    
C18   C22   S    
C19   C24   S    
C7    C16   S    
C80   C81   A    
C3    C5    S    
C10   C13   S    
C11   C17   S    
C34   C67   S    
C46   H32   S    
Cr3   O16   S    
C62   C68   A    
C25   C27   S    
H20   O30   S    
Cr3   O38   S    
C32   C33   A    
C1    O13   A    
Cr4   O6    S    
C94   O7    A    
C34   C89   S    
C71   C72   A    
H15   O25   S    
C2    C56   S    
C93   O39   A    
C45   H8    S    
H26   O36   S    
C40   C50   S    
C96   O5    A    
C11   C14   S    
C71   C90   A    
C93   O3    A    
Cr1   O18   S    
C80   C90   A    
C61   C62   A    
Cr4   O11   S    
Cr6   O10   S    
C52   O34   A    
C73   C86   A    
C3    C11   S    
C10   C11   S    
C57   O30   S    
C22   O22   S    
C79   C96   S    
C16   O16   A    
H17   O27   S    
C8    C10   S    
C65   C66   A    
C73   C77   A    
C16   O1    A    
C1    O4    A    
C28   C90   S    
C75   H5    S    
C19   O21   S    
C51   C53   A    
C13   C14   S    
Cr6   O11   S    
C72   C82   A    
C51   Cl5   S    
C28   O19   A    
C34   C76   S    
