data_mof_unit_25819.cif
_audit_creation_date              2012-12-11T15:35:26-0500
_audit_creation_method            fapswitch 2.2
_symmetry_space_group_name_H-M    P1
_symmetry_Int_Tables_number       1
_space_group_crystal_system       triclinic
_cell_length_a                    17.343021
_cell_length_b                    24.280847
_cell_length_c                    14.963869
_cell_angle_alpha                 90.000091
_cell_angle_beta                  125.35357
_cell_angle_gamma                 89.999888
_cell_volume                      5139.34856895

loop_
_atom_site_label
_atom_site_type_symbol
_atom_type_description
_atom_site_fract_x
_atom_site_fract_y
_atom_site_fract_z
_atom_type_partial_charge
C1    C     C_R   0.309099 0.125036 0.906780 -0.132256
C2    C     C_R   0.558591 0.151854 0.909481 -0.124363
C3    C     C_R   0.268429 0.546296 0.247925 -0.136182
C4    C     C_R   0.058590 0.348146 0.909480 -0.124363
C5    C     C_R   0.058591 0.651853 0.909481 -0.124364
C6    C     C_R   0.431443 1.000000 0.632514 0.043278
C7    C     C_R   0.931443 0.500000 0.632514 0.043277
C8    C     C_R   0.825093 0.000001 0.274375 -0.004890
C9    C     C_R   0.325092 0.499994 0.274370 -0.004891
C10   C     C_R   0.618606 0.183693 0.000673 0.043782
C11   C     C_R   0.618605 0.816307 0.000674 0.043784
C12   C     C_R   0.118607 0.683692 0.000674 0.043781
C13   C     C_R   0.309100 0.874964 0.906780 -0.132253
C14   C     C_R   0.118604 0.316307 0.000672 0.043785
C15   C     C_3   0.037528 0.999966 0.569461 -0.391323
C16   C     C_3   0.082334 0.051753 0.459003 -0.405536
C17   C     C_3   0.537524 0.500074 0.569458 -0.391325
C18   C     C_3   0.582380 0.551690 0.458887 -0.405483
C19   C     C_3   0.934610 0.000023 0.471373 -0.392727
C20   C     C_3   0.978177 0.051646 0.359273 -0.395479
C21   C     C_3   0.434606 0.500054 0.471367 -0.392731
C22   C     C_3   0.478191 0.551614 0.359225 -0.395485
C23   C     C_3   0.082361 0.948276 0.458936 -0.405498
C24   C     C_R   0.809099 0.625036 0.906780 -0.132251
C25   C     C_3   0.582312 0.448215 0.459059 -0.405548
C26   C     C_3   0.103160 0.999998 0.530881 0.396460
C27   C     C_3   0.603157 0.499994 0.530883 0.396460
C28   C     C_3   0.927052 0.000001 0.362908 0.389294
C29   C     C_3   0.427051 0.499991 0.362905 0.389283
C30   C     C_R   0.404930 0.869067 0.090164 -0.124089
C31   C     C_R   0.404929 0.130933 0.090163 -0.124089
C32   C     C_R   0.904929 0.369067 0.090163 -0.124088
C33   C     C_R   0.904929 0.630933 0.090164 -0.124089
C34   C     C_3   0.978158 0.948335 0.359315 -0.395516
C35   C     C_R   0.809100 0.374964 0.906780 -0.132256
C36   C     C_3   0.478145 0.448305 0.359364 -0.395517
C37   C     C_R   0.159228 0.811499 0.900104 -0.173845
C38   C     C_R   0.159227 0.188501 0.900102 -0.173846
C39   C     C_R   0.659228 0.311498 0.900103 -0.173847
C40   C     C_R   0.659227 0.688501 0.900104 -0.173844
C41   C     C_R   0.609738 0.267182 0.900807 -0.172280
C42   C     C_R   0.609737 0.732817 0.900808 -0.172280
C43   C     C_R   0.109739 0.767182 0.900809 -0.172281
C44   C     C_R   0.109737 0.232817 0.900806 -0.172281
C45   C     C_R   0.641945 0.241249 0.000394 0.144965
C46   C     C_R   0.647965 0.151564 0.091540 -0.137803
C47   C     C_R   0.641944 0.758751 0.000395 0.144964
C48   C     C_R   0.141947 0.741248 0.000395 0.144965
C49   C     C_R   0.141943 0.258751 0.000393 0.144964
C50   C     C_R   0.709193 0.267564 0.099323 -0.175899
C51   C     C_R   0.709192 0.732436 0.099324 -0.175897
C52   C     C_R   0.209195 0.767564 0.099325 -0.175899
C53   C     C_R   0.209190 0.232435 0.099322 -0.175898
C54   C     C_R   0.258059 0.812295 0.098530 -0.170935
C55   C     C_R   0.258056 0.187703 0.098528 -0.170934
C56   C     C_R   0.758058 0.312296 0.098529 -0.170935
C57   C     C_R   0.647964 0.848436 0.091540 -0.137808
C58   C     C_R   0.758057 0.687704 0.098530 -0.170934
C59   C     C_R   0.240528 0.829719 0.999011 0.147161
C60   C     C_R   0.240526 0.170281 0.999009 0.147159
C61   C     C_R   0.740527 0.329719 0.999010 0.147160
C62   C     C_R   0.740527 0.670281 0.999011 0.147160
C63   C     C_R   0.394674 0.950093 0.469506 -0.178699
C64   C     C_R   0.394674 0.049907 0.469506 -0.178698
C65   C     C_R   0.894674 0.450093 0.469506 -0.178694
C66   C     C_R   0.894674 0.549907 0.469506 -0.178701
C67   C     C_R   0.411701 0.950075 0.390260 -0.170519
C68   C     C_R   0.147966 0.651563 0.091540 -0.137803
C69   C     C_R   0.411701 0.049925 0.390261 -0.170518
C70   C     C_R   0.911701 0.450075 0.390261 -0.170520
C71   C     C_R   0.911701 0.549925 0.390261 -0.170518
C72   C     C_R   0.431414 0.000000 0.360518 0.152029
C73   C     C_R   0.931414 0.500000 0.360518 0.152030
C74   C     C_R   0.501173 0.045616 0.271161 -0.133110
C75   C     C_R   0.501173 0.954384 0.271161 -0.133109
C76   C     C_R   0.001173 0.545616 0.271160 -0.133109
C77   C     C_R   0.001173 0.454384 0.271160 -0.133109
C78   C     C_R   0.398757 0.000000 0.518908 0.136770
C79   C     C_R   0.147962 0.348435 0.091539 -0.137811
C80   C     C_R   0.898757 0.500000 0.518908 0.136769
C81   C     C_R   0.245734 0.954103 0.694933 -0.151519
C82   C     C_R   0.245736 0.045895 0.694929 -0.151566
C83   C     C_R   0.745738 0.454102 0.694934 -0.151552
C84   C     C_R   0.745729 0.545894 0.694932 -0.151534
C85   C     C_R   0.313987 0.141509 0.998672 0.043695
C86   C     C_R   0.313988 0.858490 0.998673 0.043696
C87   C     C_R   0.813987 0.641510 0.998672 0.043694
C88   C     C_R   0.813988 0.358490 0.998672 0.043695
C89   C     C_R   0.476656 0.000000 0.304168 0.043315
C90   C     C_R   0.558591 0.848146 0.909481 -0.124365
C91   C     C_R   0.976656 0.500000 0.304168 0.043314
C92   C     C_R   0.199939 0.999998 0.631439 0.000923
C93   C     C_R   0.699936 0.499997 0.631443 0.000922
C94   C     C_R   0.449744 0.045688 0.696674 -0.121251
C95   C     C_R   0.449744 0.954312 0.696673 -0.121248
C96   C     C_R   0.949743 0.545688 0.696673 -0.121247
C97   C     C_R   0.949744 0.454312 0.696673 -0.121252
C98   C     C_R   0.768426 0.953702 0.247926 -0.136196
C99   C     C_R   0.768426 0.046300 0.247933 -0.136152
C100  C     C_R   0.268422 0.453698 0.247924 -0.136165
H1    H     H_    0.250163 0.128502 0.821987 0.090601
H2    H     H_    0.945074 0.090254 0.361526 0.145406
H3    H     H_    0.398863 0.537013 0.475745 0.155790
H4    H     H_    0.445137 0.590230 0.361534 0.145446
H5    H     H_    0.898797 0.963111 0.475797 0.155797
H6    H     H_    0.973904 0.051902 0.282162 0.159985
H7    H     H_    0.398863 0.463126 0.475857 0.155831
H8    H     H_    0.473849 0.551865 0.282071 0.159950
H9    H     H_    0.095252 0.909841 0.505951 0.145166
H10   H     H_    0.129526 0.947681 0.431047 0.158765
H11   H     H_    0.595078 0.409824 0.506147 0.145219
H12   H     H_    0.250164 0.871496 0.821989 0.090599
H13   H     H_    0.629541 0.447504 0.431261 0.158703
H14   H     H_    0.945110 0.909746 0.361759 0.145459
H15   H     H_    0.973774 0.948004 0.282134 0.159927
H16   H     H_    0.445045 0.409727 0.361740 0.145423
H17   H     H_    0.473838 0.447973 0.282232 0.159966
H18   H     H_    0.139196 0.826984 0.821685 0.104232
H19   H     H_    0.139195 0.173016 0.821683 0.104233
H20   H     H_    0.639196 0.326983 0.821684 0.104234
H21   H     H_    0.639194 0.673015 0.821685 0.104231
H22   H     H_    0.553366 0.250307 0.822753 0.104577
H23   H     H_    0.750164 0.628504 0.821988 0.090598
H24   H     H_    0.553364 0.749692 0.822754 0.104577
H25   H     H_    0.053367 0.750307 0.822754 0.104577
H26   H     H_    0.053365 0.249693 0.822752 0.104577
H27   H     H_    0.731334 0.250819 0.177716 0.104514
H28   H     H_    0.731334 0.749181 0.177716 0.104514
H29   H     H_    0.231337 0.750818 0.177717 0.104514
H30   H     H_    0.231331 0.249180 0.177714 0.104514
H31   H     H_    0.315381 0.828993 0.176337 0.103752
H32   H     H_    0.315377 0.171005 0.176335 0.103753
H33   H     H_    0.815379 0.328993 0.176336 0.103753
H34   H     H_    0.750164 0.371497 0.821988 0.090602
H35   H     H_    0.815379 0.671006 0.176336 0.103753
H36   H     H_    0.390102 0.910822 0.500133 0.104498
H37   H     H_    0.390102 0.089179 0.500133 0.104496
H38   H     H_    0.890103 0.410822 0.500133 0.104495
H39   H     H_    0.890101 0.589178 0.500133 0.104499
H40   H     H_    0.435518 0.855092 0.172227 0.082338
H41   H     H_    0.435516 0.144908 0.172226 0.082339
H42   H     H_    0.935518 0.355092 0.172226 0.082338
H43   H     H_    0.935518 0.644908 0.172227 0.082338
H44   H     H_    0.417498 0.910830 0.360491 0.102573
H45   H     H_    0.051259 0.036895 0.620935 0.155854
H46   H     H_    0.417499 0.089170 0.360492 0.102573
H47   H     H_    0.917499 0.410830 0.360491 0.102573
H48   H     H_    0.917498 0.589170 0.360492 0.102573
H49   H     H_    0.506252 0.087343 0.297848 0.082527
H50   H     H_    0.506252 0.912657 0.297848 0.082526
H51   H     H_    0.006252 0.587343 0.297848 0.082526
H52   H     H_    0.006252 0.412657 0.297848 0.082526
H53   H     H_    0.233515 0.911608 0.668910 0.083638
H54   H     H_    0.233520 0.088389 0.668897 0.083664
H55   H     H_    0.733533 0.411607 0.668907 0.083662
H56   H     H_    0.095085 0.090160 0.506045 0.145233
H57   H     H_    0.733497 0.588389 0.668902 0.083640
H58   H     H_    0.433034 0.088139 0.670783 0.081486
H59   H     H_    0.433033 0.911861 0.670782 0.081486
H60   H     H_    0.933033 0.588139 0.670783 0.081487
H61   H     H_    0.933033 0.411861 0.670782 0.081485
H62   H     H_    0.789608 0.911056 0.263242 0.091746
H63   H     H_    0.789606 0.088945 0.263262 0.091719
H64   H     H_    0.289592 0.411051 0.263234 0.091737
H65   H     H_    0.289621 0.588940 0.263257 0.091731
H66   H     H_    0.684911 0.165338 0.175391 0.082852
H67   H     H_    0.551224 0.537077 0.620749 0.155845
H68   H     H_    0.684910 0.834662 0.175391 0.082854
H69   H     H_    0.184913 0.665337 0.175392 0.082854
H70   H     H_    0.184906 0.334660 0.175389 0.082852
H71   H     H_    0.513422 0.835043 0.825038 0.083236
H72   H     H_    0.513422 0.164957 0.825038 0.083235
H73   H     H_    0.013421 0.335043 0.825037 0.083235
H74   H     H_    0.013422 0.664957 0.825038 0.083236
H75   H     H_    0.051187 0.962965 0.620742 0.155870
H76   H     H_    0.129587 0.052440 0.431236 0.158688
H77   H     H_    0.551210 0.463148 0.620923 0.155877
H78   H     H_    0.595251 0.590139 0.505857 0.145183
H79   H     H_    0.629577 0.552264 0.431041 0.158750
H80   H     H_    0.898937 0.037000 0.475824 0.155816
N1    N     N_R   0.392140 0.102630 0.941800 -0.039890
N2    N     N_R   0.525160 0.972040 0.206160 -0.038171
N3    N     N_R   0.025160 0.527960 0.206160 -0.038171
N4    N     N_R   0.025160 0.472040 0.206160 -0.038171
N5    N     N_R   0.317870 0.971120 0.792790 -0.031886
N6    N     N_R   0.317870 0.028880 0.792790 -0.031885
N7    N     N_R   0.817870 0.471120 0.792790 -0.031886
N8    N     N_R   0.817870 0.528880 0.792790 -0.031884
N9    N     N_R   0.473480 0.027920 0.793480 -0.038306
N10   N     N_R   0.473480 0.972080 0.793480 -0.038307
N11   N     N_R   0.973480 0.527920 0.793480 -0.038307
N12   N     N_R   0.392140 0.897370 0.941800 -0.039891
N13   N     N_R   0.973480 0.472080 0.793480 -0.038307
N14   N     N_R   0.681610 0.971120 0.207570 -0.038706
N15   N     N_R   0.681610 0.028880 0.207570 -0.038706
N16   N     N_R   0.181610 0.471120 0.207570 -0.038709
N17   N     N_R   0.181610 0.528880 0.207570 -0.038705
N18   N     N_R   0.605410 0.102620 0.056870 -0.037052
N19   N     N_R   0.605410 0.897380 0.056870 -0.037051
N20   N     N_R   0.105410 0.602620 0.056870 -0.037050
N21   N     N_R   0.105410 0.397380 0.056870 -0.037052
N22   N     N_R   0.549680 0.896430 0.944180 -0.039215
N23   N     N_R   0.892140 0.602630 0.941800 -0.039891
N24   N     N_R   0.549680 0.103570 0.944180 -0.039215
N25   N     N_R   0.049680 0.396430 0.944180 -0.039214
N26   N     N_R   0.049680 0.603570 0.944180 -0.039215
N27   N     N_R   0.892140 0.397370 0.941800 -0.039890
N28   N     N_R   0.450890 0.896450 0.057150 -0.038800
N29   N     N_R   0.450890 0.103550 0.057150 -0.038801
N30   N     N_R   0.950890 0.396450 0.057150 -0.038800
N31   N     N_R   0.950890 0.603550 0.057150 -0.038801
N32   N     N_R   0.525160 0.027960 0.206160 -0.038171
Ni1   Ni    Ni4+2 0.433410 0.064680 0.868830 0.207916
Ni2   Ni    Ni4+2 0.433410 0.935320 0.868830 0.207917
Ni3   Ni    Ni4+2 0.933410 0.564680 0.868830 0.207919
Ni4   Ni    Ni4+2 0.933410 0.435320 0.868830 0.207915
Ni5   Ni    Ni4+2 0.565650 0.934380 0.131170 0.208169
Ni6   Ni    Ni4+2 0.565650 0.065620 0.131170 0.208171
Ni7   Ni    Ni4+2 0.065650 0.434380 0.131170 0.208169
Ni8   Ni    Ni4+2 0.065650 0.565620 0.131170 0.208171

loop_
_geom_bond_atom_site_label_1
_geom_bond_atom_site_label_2
_ccdc_geom_bond_type
C44   C49   A    
C58   C62   A    
C22   H4    S    
C24   N23   A    
C37   C43   A    
N3    Ni8   S    
C31   C85   A    
C22   C29   S    
C5    H74   S    
C53   C55   A    
C11   C47   S    
N19   Ni5   S    
C12   C48   S    
C83   N7    A    
C43   H25   S    
C56   H33   S    
C40   C62   A    
C4    N25   A    
C39   C41   A    
N26   Ni3   S    
C33   H43   S    
C15   C19   S    
C40   H21   S    
C12   C68   A    
C29   C36   S    
C44   H26   S    
C13   N12   A    
C82   N6    A    
C95   H59   S    
C52   H29   S    
C96   N11   A    
N23   Ni3   S    
C8    C99   A    
C13   H12   S    
C74   H49   S    
C22   H8    S    
C46   N18   A    
C14   C49   S    
C20   H2    S    
C75   H50   S    
C26   C92   S    
C39   H20   S    
C83   C93   A    
N6    Ni1   S    
C99   N15   A    
C77   N4    A    
C82   C92   A    
N5    Ni2   S    
C98   N14   A    
C6    C78   S    
N1    N29   A    
C67   C72   A    
C68   H69   S    
C23   C26   S    
N12   Ni2   S    
N21   N25   A    
C81   H53   S    
C8    C98   A    
C95   N10   A    
N11   Ni3   S    
C5    N26   A    
C81   C92   A    
N4    Ni7   S    
C37   H18   S    
N25   Ni4   S    
C79   N21   A    
C90   H71   S    
C16   H56   S    
N19   N22   A    
C76   C91   A    
C3    H65   S    
N29   Ni6   S    
C30   C86   A    
C76   N3    A    
C7    C97   A    
C43   C48   A    
C32   H42   S    
C9    C29   S    
C42   C47   A    
C16   H76   S    
C40   C42   A    
C71   H48   S    
C28   C34   S    
C94   H58   S    
C65   C80   A    
C55   C60   A    
C57   N19   A    
C16   C26   S    
C69   H46   S    
N12   N28   A    
N23   N31   A    
N18   Ni6   S    
C70   C73   A    
C39   C61   A    
C67   H44   S    
C77   H52   S    
C81   N5    A    
C98   H62   S    
N8    Ni3   S    
C52   C54   A    
N14   Ni5   S    
C20   H6    S    
C54   C59   A    
C100  N16   A    
C1    C85   A    
C23   H9    S    
C63   C67   A    
C30   H40   S    
C66   H39   S    
C42   H24   S    
C17   C27   S    
C2    N24   A    
N21   Ni7   S    
C5    C12   A    
C17   H67   S    
C15   H45   S    
C1    N1    A    
C15   C26   S    
C47   C51   A    
C20   C28   S    
C76   H51   S    
C6    C94   A    
C34   H15   S    
C14   C79   A    
C21   C29   S    
N24   Ni1   S    
C24   H23   S    
C17   C21   S    
N30   Ni7   S    
C84   H57   S    
C74   N32   A    
C21   H3    S    
C41   H22   S    
C31   H41   S    
C69   C72   A    
N3    N4    A    
N11   N13   A    
C38   C44   A    
C7    C96   A    
C61   C88   S    
C25   H13   S    
N27   N30   A    
C32   N30   A    
C35   C88   A    
C66   C71   A    
C31   N29   A    
C35   H34   S    
N31   Ni8   S    
C16   C20   S    
C23   C34   S    
C30   N28   A    
C10   C45   S    
N2    N32   A    
C79   H70   S    
C100  H64   S    
C51   C58   A    
C37   C59   A    
C64   C69   A    
N22   Ni2   S    
C36   H17   S    
N10   Ni2   S    
C73   C91   S    
C21   H7    S    
N9    Ni1   S    
N2    Ni5   S    
C38   C60   A    
C65   H38   S    
C19   H5    S    
C35   N27   A    
C3    C9    A    
C18   H79   S    
C55   H32   S    
C9    C100  A    
C97   H61   S    
C4    H73   S    
C19   C28   S    
N20   Ni8   S    
C99   H63   S    
C27   C93   S    
C32   C88   A    
C34   H14   S    
C51   H28   S    
C2    C10   A    
C1    H1    S    
C10   C46   A    
N16   Ni7   S    
C74   C89   A    
N13   Ni4   S    
C71   C73   A    
C17   H77   S    
N28   Ni5   S    
C23   H10   S    
N7    Ni4   S    
C77   C91   A    
N20   N26   A    
C46   H66   S    
C96   H60   S    
C18   C22   S    
C38   H19   S    
C64   C78   A    
C18   C27   S    
C13   C86   A    
C53   H30   S    
N16   N17   A    
C60   C85   S    
C70   H47   S    
C57   H68   S    
C58   H35   S    
C25   C27   S    
C66   C80   A    
C62   C87   S    
C15   H75   S    
C68   N20   A    
C63   H36   S    
C33   C87   A    
C59   C86   S    
N7    N8    A    
N18   N24   A    
C72   C89   S    
C33   N31   A    
C11   C90   A    
N5    N6    A    
N32   Ni6   S    
C45   C50   A    
C49   C53   A    
N27   Ni4   S    
C3    N17   A    
N14   N15   A    
C84   C93   A    
C4    C14   A    
N9    N10   A    
C24   C87   A    
C50   C56   A    
C94   N9    A    
C84   N8    A    
C25   H11   S    
C25   C36   S    
C82   H54   S    
C48   C52   A    
C83   H55   S    
C18   H78   S    
C8    C28   S    
C6    C95   A    
C75   C89   A    
C97   N13   A    
C64   H37   S    
C41   C45   A    
C56   C61   A    
N1    Ni1   S    
C50   H27   S    
C11   C57   A    
C75   N2    A    
C54   H31   S    
C19   H80   S    
C63   C78   A    
N15   Ni6   S    
C65   C70   A    
C2    H72   S    
C7    C80   S    
C90   N22   A    
N17   Ni8   S    
C36   H16   S    
