data_mof_unit_10074.cif
_audit_creation_date              2012-12-10T17:16:37-0500
_audit_creation_method            fapswitch 2.2
_symmetry_space_group_name_H-M    P1
_symmetry_Int_Tables_number       1
_space_group_crystal_system       triclinic
_cell_length_a                    10.137499
_cell_length_b                    10.805668
_cell_length_c                    10.40389
_cell_angle_alpha                 90.773787
_cell_angle_beta                  94.340639
_cell_angle_gamma                 80.915362
_cell_volume                      1122.14249501

loop_
_atom_site_label
_atom_site_type_symbol
_atom_type_description
_atom_site_fract_x
_atom_site_fract_y
_atom_site_fract_z
_atom_type_partial_charge
C1    C     C_R   0.445809 0.497731 0.264926 0.981874
C2    C     C_R   0.554260 0.484697 0.735043 0.842488
C3    C     C_2   0.420147 0.471262 0.128148 -0.137465
C4    C     C_2   0.579891 0.458024 0.872332 -0.133588
C5    C     C_2   0.505999 0.382349 0.068795 0.136705
C6    C     C_2   0.506690 0.382093 0.929155 0.138197
C7    C     C_2   0.063937 0.519161 0.470689 0.153235
C8    C     C_2   0.922960 0.515853 0.510344 0.109441
C9    C     C_R   0.500390 0.258895 0.499575 0.854813
C10   C     C_R   0.500512 0.739141 0.502689 0.959768
C11   C     C_R   0.728724 0.066804 0.402372 0.122709
C12   C     C_R   0.375062 0.906630 0.707018 0.036291
C13   C     C_R   0.787835 0.998294 0.299343 -0.028740
C14   C     C_R   0.268857 0.985660 0.760908 0.101291
C15   C     C_R   0.729021 0.898628 0.244359 0.007802
C16   C     C_R   0.214895 0.099175 0.700898 0.016652
C17   C     C_R   0.623584 0.858932 0.303491 0.545654
C18   C     C_R   0.275836 0.139460 0.595716 0.477872
C19   C     C_R   0.575448 0.921612 0.415668 -0.144565
C20   C     C_R   0.402340 0.073733 0.564090 -0.099464
C21   C     C_R   0.604573 0.040710 0.442221 -0.027595
C22   C     C_R   0.429984 0.947512 0.595537 -0.041921
C23   C     C_R   0.502104 0.870149 0.505626 -0.142126
C24   C     C_R   0.502815 0.124392 0.501906 -0.135086
H1    H     H_    0.877262 0.398040 0.370512 0.120628
H2    H     H_    0.133503 0.568565 0.644743 0.120331
N1    N     N_2   0.157300 0.551390 0.551120 -0.183913
N2    N     N_2   0.842700 0.448610 0.448880 -0.183853
O1    O     O_R   0.568940 0.489660 0.307530 -0.596452
O2    O     O_R   0.431060 0.510340 0.692470 -0.648132
O3    O     O_R   0.348880 0.522640 0.340350 -0.568865
O4    O     O_R   0.651120 0.477360 0.659650 -0.578697
O5    O     O_R   0.610030 0.300280 0.483580 -0.612950
O6    O     O_R   0.389970 0.699720 0.516420 -0.623232
O7    O     O_R   0.389970 0.333270 0.516400 -0.558585
O8    O     O_R   0.610030 0.666730 0.483600 -0.568329
Zn1   Zn    Zn3+2 0.646940 0.477980 0.478080 0.965833
Zn2   Zn    Zn3+2 0.353060 0.522020 0.521920 0.953642
N3    N     N_3   0.096651 0.172190 0.745822 -0.422843
H3    H     H_    0.022311 0.183650 0.669915 0.212493
H4    H     H_    0.118930 0.260989 0.771040 0.184456
N4    N     N_3   0.778438 0.832987 0.132782 -0.420274
H5    H     H_    0.879009 0.794883 0.153519 0.178680
H6    H     H_    0.772069 0.897167 0.057444 0.184345
N5    N     N_3   0.810805 0.134800 0.485783 -0.399640
H7    H     H_    0.849207 0.198322 0.430093 0.206398
H8    H     H_    0.891915 0.070888 0.524477 0.178281
N6    N     N_3   0.435123 0.795980 0.777098 -0.478211
H9    H     H_    0.372392 0.728662 0.761732 0.212371
H10   H     H_    0.530488 0.761818 0.748230 0.172094
N7    N     N_3   0.908340 0.029710 0.253845 -0.495739
H11   H     H_    0.983047 0.951122 0.263405 0.182382
H12   H     H_    0.890655 0.053089 0.156248 0.200441
N8    N     N_3   0.209690 0.948208 0.871996 -0.431751
H13   H     H_    0.176231 0.862850 0.851689 0.174950
H14   H     H_    0.283687 0.934312 0.948021 0.185426
O9    O     O_3   0.562283 0.764970 0.245503 -0.575187
C25   C     C_3   0.446664 0.822449 0.172254 -0.342386
H15   H     H_    0.470927 0.891277 0.102384 0.167011
H16   H     H_    0.369483 0.868248 0.235617 0.153387
H17   H     H_    0.403145 0.749803 0.115484 0.201133
O10   O     O_3   0.195989 0.220944 0.509620 -0.592769
C26   C     C_3   0.168587 0.155041 0.394657 -0.339008
H18   H     H_    0.074609 0.202777 0.344449 0.174624
H19   H     H_    0.152236 0.057145 0.412311 0.158433
H20   H     H_    0.250740 0.154483 0.329633 0.176546
N9    N     N_3   0.426892 0.301835 0.857903 -0.462942
H21   H     H_    0.343471 0.355853 0.810310 0.197768
H22   H     H_    0.484834 0.250661 0.790427 0.176522
N10   N     N_3   0.603161 0.290540 0.137643 -0.446980
H23   H     H_    0.558177 0.252239 0.211629 0.166352
H24   H     H_    0.683773 0.332217 0.175795 0.215828
N11   N     N_3   0.673034 0.521648 0.948056 -0.441820
H25   H     H_    0.766405 0.499535 0.909997 0.189830
H26   H     H_    0.641711 0.618073 0.937130 0.200353
N12   N     N_3   0.305000 0.541734 0.058925 -0.484731
H27   H     H_    0.244170 0.478679 0.020382 0.192459
H28   H     H_    0.336316 0.588726 0.982386 0.184080
N13   N     N_3   0.873328 0.593451 0.614427 -0.385555
H29   H     H_    0.925953 0.559857 0.700361 0.143475
H30   H     H_    0.891022 0.684612 0.598914 0.160586
N14   N     N_3   0.092614 0.496528 0.338984 -0.376387
H31   H     H_    0.084511 0.404238 0.314828 0.177921
H32   H     H_    0.021199 0.555421 0.280906 0.155933

loop_
_geom_bond_atom_site_label_1
_geom_bond_atom_site_label_2
_ccdc_geom_bond_type
N7    H12   S    
C26   H19   S    
N11   H25   S    
C2    C4    S    
C12   N6    S    
C7    C8    S    
N3    H4    S    
N5    H7    S    
H1    N2    S    
H2    N1    S    
O10   C26   S    
O8    Zn1   S    
C19   C21   A    
N12   H28   S    
C5    C6    S    
N1    Zn2   S    
C25   H16   S    
C12   C22   A    
C1    O3    A    
C7    N1    D    
O2    Zn2   S    
C2    O4    A    
C13   N7    S    
C20   C24   A    
C8    N13   S    
N10   H23   S    
C25   H17   S    
N6    H10   S    
C26   H20   S    
C9    O5    A    
N11   H26   S    
N4    H6    S    
N5    H8    S    
N8    H14   S    
N7    H11   S    
O7    Zn2   S    
N12   H27   S    
C4    C6    D    
N3    H3    S    
N13   H30   S    
C18   O10   S    
C25   H15   S    
C11   C21   A    
O5    Zn1   S    
N9    H21   S    
N9    H22   S    
C19   C23   A    
C5    N10   S    
C1    O1    A    
C10   O6    A    
O4    Zn1   S    
C3    N12   S    
C4    N11   S    
C6    N9    S    
C14   N8    S    
C20   C22   A    
N14   H32   S    
C13   C15   A    
C8    N2    D    
C14   C16   A    
C11   N5    S    
N4    H5    S    
C15   C17   A    
N8    H13   S    
N6    H9    S    
O6    Zn2   S    
C15   N4    S    
C12   C14   A    
C26   H18   S    
C3    C5    D    
C10   O8    A    
C9    C24   S    
C10   C23   S    
O3    Zn2   S    
C2    O2    A    
C11   C13   A    
O9    C25   S    
N2    Zn1   S    
C17   C19   A    
C18   C20   A    
C16   N3    S    
N13   H29   S    
C7    N14   S    
C16   C18   A    
N14   H31   S    
C21   C24   A    
O1    Zn1   S    
C9    O7    A    
C22   C23   A    
N10   H24   S    
C1    C3    S    
C17   O9    S    
