data_mof_unit_5114.cif
_audit_creation_date              2013-03-05T16:16:34-0500
_audit_creation_method            fapswitch 2.2
_symmetry_space_group_name_H-M    P1
_symmetry_Int_Tables_number       1
_space_group_crystal_system       triclinic
_cell_length_a                    10.748243
_cell_length_b                    13.044876
_cell_length_c                    13.604181
_cell_angle_alpha                 85.451621
_cell_angle_beta                  90.746942
_cell_angle_gamma                 93.826725
_cell_volume                      1897.13151221

loop_
_atom_site_label
_atom_site_type_symbol
_atom_site_description
_atom_site_fract_x
_atom_site_fract_y
_atom_site_fract_z
_atom_type_partial_charge
O1    O     O_R   0.492620 0.402510 0.634760 -0.577816
O2    O     O_R   0.505570 0.572960 0.644530 -0.623476
C1    C     C_R   0.498816 0.481015 0.685210 0.934717
O3    O     O_R   0.678730 0.414780 0.495130 -0.623217
O4    O     O_R   0.691680 0.585220 0.504900 -0.639512
C2    C     C_R   0.741581 0.498924 0.510081 0.822956
Zn1   Zn    Zn3+2 0.491360 0.386190 0.493470 1.093450
Zn2   Zn    Zn3+2 0.508640 0.613810 0.506530 0.970079
O5    O     O_R   0.494430 0.427040 0.355470 -0.563962
O6    O     O_R   0.507380 0.597490 0.365240 -0.640707
O7    O     O_R   0.308320 0.414780 0.495100 -0.557170
O8    O     O_R   0.321270 0.585220 0.504870 -0.626367
C3    C     C_R   0.501786 0.518875 0.314807 0.845457
C4    C     C_R   0.256981 0.499363 0.499861 0.934050
C5    C     C_3   0.919995 0.391046 0.558456 -0.234227
H1    H     H_    0.872639 0.333421 0.512359 0.219478
C6    C     C_3   0.064102 0.381895 0.541200 0.443544
H2    H     H_    0.896488 0.436885 0.369518 0.220966
H3    H     H_    0.099842 0.476616 0.344641 0.185865
C7    C     C_3   0.921576 0.511935 0.399199 -0.159484
C8    C     C_3   0.941030 0.592663 0.563872 -0.053265
C9    C     C_3   0.877567 0.499476 0.510495 -0.026279
H4    H     H_    0.938147 0.662414 0.511267 0.184603
C10   C     C_3   0.120181 0.496059 0.503692 -0.134615
C11   C     C_3   0.067839 0.530301 0.397025 -0.121260
C12   C     C_3   0.080066 0.573476 0.578260 -0.435174
H5    H     H_    0.099922 0.543650 0.653979 0.212031
H6    H     H_    0.134839 0.648830 0.571155 0.197264
C13   C     C_1   0.507489 0.533641 0.211695 -0.126996
C14   C     C_2   0.519558 0.539181 0.020847 -0.319987
C15   C     C_2   0.532874 0.451131 0.979009 0.338575
C16   C     C_1   0.518070 0.455426 0.875287 -0.058846
C17   C     C_1   0.513232 0.540473 0.124336 0.096136
C18   C     C_1   0.507172 0.465518 0.788178 -0.135939
H7    H     H_    0.502320 0.609955 0.976398 0.153257
N1    N     N_1   0.479840 0.234530 0.484780 -0.051494
C19   C     C_2   0.458995 0.032318 0.476412 0.093134
C20   C     C_2   0.541168 0.967676 0.523404 0.098683
C21   C     C_1   0.528002 0.854874 0.518317 0.214900
C22   C     C_1   0.472086 0.145124 0.481613 0.298299
N2    N     N_1   0.520150 0.765470 0.515220 -0.092107
C23   C     C_3   0.847081 0.584357 0.326077 -0.393367
C24   C     C_3   0.875521 0.571300 0.216987 -0.366565
C25   C     C_3   0.835905 0.662882 0.149819 -0.830898
H8    H     H_    0.735927 0.675047 0.160661 0.270208
H9    H     H_    0.892940 0.733825 0.166027 0.268267
H10   H     H_    0.850032 0.648115 0.071578 0.252795
H11   H     H_    0.975848 0.562011 0.205439 0.243649
H12   H     H_    0.824176 0.499959 0.194391 0.259122
H13   H     H_    0.746288 0.563433 0.332385 0.217577
H14   H     H_    0.858278 0.665692 0.345016 0.217838
C26   C     C_3   0.118100 0.642694 0.356457 -0.371145
C27   C     C_3   0.238031 0.645783 0.294740 -0.338618
C28   C     C_3   0.227157 0.705897 0.194123 -0.822768
H15   H     H_    0.154651 0.667752 0.148106 0.255669
H16   H     H_    0.203159 0.786083 0.203362 0.290718
H17   H     H_    0.317696 0.708763 0.155236 0.255212
H18   H     H_    0.314831 0.685273 0.335368 0.276814
H19   H     H_    0.264079 0.567125 0.282340 0.200010
H20   H     H_    0.049805 0.683694 0.310501 0.239013
H21   H     H_    0.135196 0.694310 0.416427 0.222961
N3    N     N_R   0.557927 0.354742 0.033004 0.234474
O9    O     O_R   0.536618 0.268784 0.991371 -0.335409
O10   O     O_R   0.617380 0.352799 0.117013 -0.374382
N4    N     N_R   0.646386 0.007577 0.579296 0.213249
O11   O     O_R   0.698405 0.947440 0.646452 -0.376899
O12   O     O_R   0.700791 0.098143 0.555547 -0.385973
N5    N     N_R   0.353948 0.992436 0.420308 0.218313
O13   O     O_R   0.302066 0.052610 0.353111 -0.302732
O14   O     O_R   0.299803 0.901680 0.443620 -0.409931
C29   C     C_3   0.861531 0.351093 0.662314 -0.341699
C30   C     C_3   0.925034 0.379929 0.760372 -0.317947
C31   C     C_3   0.831086 0.378635 0.843894 -0.834946
H22   H     H_    0.766628 0.440829 0.828960 0.236158
H23   H     H_    0.776543 0.303113 0.852374 0.304143
H24   H     H_    0.881049 0.391605 0.914262 0.270538
H25   H     H_    0.992333 0.322673 0.785674 0.293830
H26   H     H_    0.976153 0.455734 0.753670 0.233974
H27   H     H_    0.763539 0.372490 0.663596 0.202201
H28   H     H_    0.853252 0.265351 0.666033 0.261162
N6    N     N_R   0.123808 0.340266 0.633817 0.204457
O15   O     O_R   0.102907 0.242955 0.662504 -0.325334
O16   O     O_R   0.206633 0.393819 0.682529 -0.453710
N7    N     N_R   0.084755 0.307605 0.465174 0.196449
O17   O     O_R   0.010017 0.296020 0.390373 -0.418448
O18   O     O_R   0.173361 0.244147 0.477022 -0.266993
C32   C     C_3   0.873719 0.624098 0.657072 -0.411394
C33   C     C_3   0.955445 0.689252 0.725634 -0.362436
C34   C     C_3   0.877494 0.727567 0.806616 -0.784785
H29   H     H_    0.805401 0.777450 0.773959 0.294818
H30   H     H_    0.831254 0.661279 0.851551 0.243401
H31   H     H_    0.938756 0.773211 0.855687 0.260980
H32   H     H_    0.028497 0.643175 0.762112 0.223654
H33   H     H_    0.001303 0.756743 0.682112 0.256263
H34   H     H_    0.796378 0.672375 0.631900 0.245034
H35   H     H_    0.828535 0.556531 0.699153 0.207881

loop_
_geom_bond_atom_site_label_1
_geom_bond_atom_site_label_2
_geom_bond_distance
_ccdc_geom_bond_type
C8    C12   1.539063 S    
C8    C32   1.563689 S    
Zn1   N1    1.986791 S    
C32   C33   1.539056 S    
C29   H27   1.108154 S    
N6    O15   1.303777 A    
C27   H19   1.107561 S    
C21   N2    1.167742 T    
C27   C28   1.529737 S    
C25   H8    1.110080 S    
Zn1   O7    2.027429 S    
C12   H5    1.095358 S    
N3    O9    1.301400 A    
C14   H7    1.087981 S    
O4    C2    1.275494 A    
C3    C13   1.402287 S    
N7    O18   1.303176 A    
C19   C22   1.476085 S    
C26   H21   1.104270 S    
C14   C15   1.338461 D    
O7    C4    1.272661 A    
C7    C11   1.574645 S    
C5    H1    1.110306 S    
C2    C9    1.461086 S    
C19   N5    1.445723 S    
C13   C17   1.186817 T    
Zn1   O5    1.910549 S    
C31   H22   1.106674 S    
C4    C10   1.469600 S    
O5    C3    1.277028 A    
N3    O10   1.301408 A    
C26   H20   1.096891 S    
C30   H25   1.106531 S    
C33   H32   1.108861 S    
N7    O17   1.300210 A    
C5    C9    1.601980 S    
N5    O13   1.301598 A    
N4    O12   1.301638 A    
C32   H34   1.110480 S    
C30   H26   1.096597 S    
C34   H30   1.111373 S    
C24   H11   1.107718 S    
H2    C7    1.104009 S    
C25   H10   1.110740 S    
C23   H14   1.109996 S    
C8    C9    1.576926 S    
C31   H23   1.110949 S    
C15   N3    1.444529 S    
O3    Zn1   2.023682 S    
C29   H28   1.113270 S    
N6    O16   1.301811 A    
C25   H9    1.110849 S    
C33   H33   1.111595 S    
C28   H16   1.110945 S    
C6    C10   1.615317 S    
N1    C22   1.167879 T    
C10   C11   1.590979 S    
O3    C2    1.278834 A    
C24   H12   1.112442 S    
C1    C18   1.401926 S    
O1    C1    1.274929 A    
C16   C18   1.187038 T    
C24   C25   1.525826 S    
C19   C20   1.378049 D    
C15   C16   1.415042 S    
C20   N4    1.445619 S    
Zn2   O8    2.023680 S    
C32   H35   1.100240 S    
Zn2   N2    1.986791 S    
C34   H31   1.110405 S    
C23   H13   1.102161 S    
Zn2   O6    1.950370 S    
C7    C9    1.584936 S    
C8    H4    1.113972 S    
C31   H24   1.110670 S    
C23   C24   1.543964 S    
C26   C27   1.544059 S    
C5    C6    1.583370 S    
C28   H15   1.109843 S    
C14   C17   1.411895 S    
O1    Zn1   1.950370 S    
O2    Zn2   1.910549 S    
C10   C12   1.570627 S    
O8    C4    1.282213 A    
C30   C31   1.528258 S    
O6    C3    1.276062 A    
O4    Zn2   2.027431 S    
C7    C23   1.566641 S    
C27   H18   1.108491 S    
C5    C29   1.589163 S    
C12   H6    1.109665 S    
C6    N7    1.500612 S    
O2    C1    1.278383 A    
C11   C26   1.587374 S    
C29   C30   1.551935 S    
C20   C21   1.475874 S    
C6    N6    1.486997 S    
H3    C11   1.110996 S    
C33   C34   1.527366 S    
N5    O14   1.301604 A    
N4    O11   1.301626 A    
C34   H29   1.110721 S    
C28   H17   1.110719 S    
