data_mof_unit_32339.cif
_audit_creation_date              2012-12-10T17:02:18-0500
_audit_creation_method            fapswitch 2.2
_symmetry_space_group_name_H-M    P1
_symmetry_Int_Tables_number       1
_space_group_crystal_system       triclinic
_cell_length_a                    10.646534
_cell_length_b                    10.787431
_cell_length_c                    10.089223
_cell_angle_alpha                 89.761257
_cell_angle_beta                  88.183735
_cell_angle_gamma                 90.177113
_cell_volume                      1158.13643806

loop_
_atom_site_label
_atom_site_type_symbol
_atom_type_description
_atom_site_fract_x
_atom_site_fract_y
_atom_site_fract_z
_atom_type_partial_charge
C1    C     C_R   0.501006 0.263256 0.499938 0.851712
C2    C     C_2   0.511282 0.131355 0.496774 0.208636
C3    C     C_2   0.486801 0.598080 0.926989 0.664028
C4    C     C_R   0.260593 0.504978 0.502551 0.933765
C5    C     C_2   0.520679 0.596375 0.071435 0.015720
C6    C     C_R   0.494364 0.737001 0.499506 1.061450
C7    C     C_R   0.739133 0.505500 0.497421 0.969380
C8    C     C_R   0.121317 0.734822 0.568743 0.293098
C9    C     C_R   0.056693 0.849292 0.560026 -0.048843
C10   C     C_R   0.936436 0.853162 0.509501 0.485083
C11   C     C_R   0.875913 0.742186 0.474974 0.252338
C12   C     C_R   0.063348 0.623802 0.524594 -0.026599
C13   C     C_R   0.935707 0.625864 0.495050 -0.177748
C14   C     C_R   0.127320 0.509020 0.510115 -0.073156
C15   C     C_R   0.063668 0.396464 0.492269 0.010160
C16   C     C_R   0.934408 0.397160 0.488092 0.074363
C17   C     C_R   0.871957 0.510733 0.489477 -0.070695
C18   C     C_2   0.463458 0.937901 0.390845 0.032414
C19   C     C_2   0.468570 0.866907 0.500273 -0.290519
C20   C     C_2   0.443095 0.069393 0.408276 0.393197
H1    H     H_    0.557342 0.680316 0.113970 0.035380
H2    H     H_    0.127472 0.964741 0.698199 0.189373
H3    H     H_    0.200324 0.973570 0.545109 0.186116
H4    H     H_    0.797144 0.958768 0.456810 0.400240
H5    H     H_    0.773964 0.700475 0.329401 0.346271
H6    H     H_    0.895633 0.235915 0.394784 0.243361
H7    H     H_    0.885801 0.228375 0.562662 0.243790
H8    H     H_    0.570885 0.855378 0.246452 0.233790
H9    H     H_    0.411321 0.828918 0.237068 0.195598
H10   H     H_    0.313722 0.069163 0.276172 0.353046
H11   H     H_    0.448563 0.906967 0.597398 0.174861
H12   H     H_    0.183643 0.268383 0.564169 0.193471
H13   H     H_    0.187980 0.284472 0.396440 0.240139
H14   H     H_    0.645315 0.135221 0.624294 0.352178
H15   H     H_    0.435332 0.769295 0.941800 0.300304
H16   H     H_    0.598208 0.359115 0.824643 0.374637
H17   H     H_    0.399154 0.362154 0.176130 0.399450
H18   H     H_    0.253597 0.803723 0.677540 0.341581
N1    N     N_2   0.501340 0.501330 0.852150 0.063458
N2    N     N_2   0.501380 0.501360 0.147810 0.065191
N3    N     N_3   0.128874 0.280471 0.480903 -0.433354
N4    N     N_3   0.113745 0.964548 0.596092 -0.388911
N5    N     N_3   0.865198 0.282923 0.480289 -0.448393
N6    N     N_3   0.481198 0.893732 0.257523 -0.443109
O1    O     O_R   0.499980 0.319060 0.613040 -0.662749
O2    O     O_3   0.441862 0.705485 0.871490 -0.771841
O3    O     O_3   0.577128 0.413700 0.900414 -0.661504
O4    O     O_3   0.423485 0.415456 0.099682 -0.630843
O5    O     O_3   0.236402 0.727612 0.627171 -0.749055
O6    O     O_3   0.881649 0.968175 0.493584 -0.733747
O7    O     O_3   0.764264 0.750777 0.411044 -0.801250
O8    O     O_3   0.358915 0.130959 0.329566 -0.804911
O9    O     O_R   0.500020 0.319100 0.386900 -0.582977
O10   O     O_R   0.316750 0.499980 0.613090 -0.559127
O11   O     O_R   0.316790 0.500020 0.386950 -0.642652
O12   O     O_R   0.499980 0.680900 0.613100 -0.541026
O13   O     O_R   0.500020 0.680940 0.386960 -0.653150
O14   O     O_R   0.683210 0.499980 0.613050 -0.624718
O15   O     O_R   0.683250 0.500020 0.386910 -0.623382
O16   O     O_3   0.599950 0.072388 0.572397 -0.794195
Zn1   Zn    Zn3+2 0.499970 0.499970 0.650990 1.058576
Zn2   Zn    Zn3+2 0.500030 0.500030 0.349010 1.002300

loop_
_geom_bond_atom_site_label_1
_geom_bond_atom_site_label_2
_ccdc_geom_bond_type
H12   N3    S    
H5    O7    S    
O10   Zn1   S    
C18   N6    S    
C9    C10   A    
C3    O2    S    
C6    O13   A    
C13   C17   A    
C8    C12   A    
C19   H11   S    
C1    O9    A    
O14   Zn1   S    
C3    N1    D    
O13   Zn2   S    
C20   O8    S    
H18   O5    S    
H17   O4    S    
H14   O16   S    
C6    C19   S    
C11   C13   A    
C16   N5    S    
C1    O1    A    
C9    N4    S    
H2    N4    S    
H3    N4    S    
C7    O15   A    
C12   C14   A    
H6    N5    S    
C1    C2    S    
H13   N3    S    
C18   C20   S    
H9    N6    S    
C4    C14   S    
N1    Zn1   S    
C2    O16   S    
C11   O7    S    
C10   C11   A    
C2    C20   D    
C15   C16   A    
C10   O6    S    
O11   Zn2   S    
H7    N5    S    
N2    Zn2   S    
C12   C13   A    
C15   N3    S    
H16   O3    S    
N1    O3    S    
C18   C19   D    
O9    Zn2   S    
C5    N2    D    
O1    Zn1   S    
C4    O11   A    
H4    O6    S    
N2    O4    S    
C14   C15   A    
C8    C9    A    
O15   Zn2   S    
H10   O8    S    
C7    O14   A    
C4    O10   A    
O12   Zn1   S    
H15   O2    S    
C8    O5    S    
H8    N6    S    
C6    O12   A    
C16   C17   A    
C3    C5    S    
C5    H1    S    
C7    C17   S    
