data_mof_unit_15322.cif
_audit_creation_date              2012-12-10T19:50:11-0500
_audit_creation_method            fapswitch 2.2
_symmetry_space_group_name_H-M    P1
_symmetry_Int_Tables_number       1
_space_group_crystal_system       triclinic
_cell_length_a                    14.195326
_cell_length_b                    14.871113
_cell_length_c                    15.205939
_cell_angle_alpha                 90.432673
_cell_angle_beta                  68.027228
_cell_angle_gamma                 89.447398
_cell_volume                      2976.4570735

loop_
_atom_site_label
_atom_site_type_symbol
_atom_type_description
_atom_site_fract_x
_atom_site_fract_y
_atom_site_fract_z
_atom_type_partial_charge
C1    C     C_R   0.499877 0.672619 0.499552 0.884253
C2    C     C_R   0.550301 0.192545 0.564920 -0.265329
C3    C     C_R   0.495742 0.769137 0.509807 -0.266093
C4    C     C_R   0.495173 0.230972 0.514728 -0.178879
C5    C     C_R   0.582310 0.821854 0.464252 0.451581
C6    C     C_R   0.431405 0.178446 0.483981 0.454320
C7    C     C_R   0.577697 0.912457 0.486798 -0.160812
C8    C     C_R   0.424974 0.086898 0.503329 -0.276565
C9    C     C_R   0.487834 0.951446 0.550488 -0.141000
C10   C     C_R   0.481556 0.048490 0.551751 -0.076704
C11   C     C_R   0.864424 0.520903 0.579301 -0.227004
C12   C     C_R   0.499899 0.327205 0.501127 0.943270
C13   C     C_R   0.117596 0.426632 0.468560 -0.225972
C14   C     C_R   0.765346 0.522862 0.579333 -0.031523
C15   C     C_R   0.217162 0.427252 0.467364 -0.041463
C16   C     C_R   0.436786 0.497797 0.677182 0.886720
C17   C     C_R   0.563222 0.497744 0.322769 0.899530
C18   C     C_R   0.827773 0.474409 0.419020 0.447551
C19   C     C_R   0.189925 0.573848 0.534312 0.445030
C20   C     C_R   0.929519 0.482857 0.412325 0.393173
C21   C     C_R   0.094332 0.580478 0.525464 0.382607
C22   C     C_R   0.948772 0.502733 0.495176 -0.015747
C23   C     C_R   0.381912 0.387997 0.103537 0.392648
C24   C     C_R   0.054775 0.503959 0.496070 -0.016693
C25   C     C_R   0.399034 0.477971 0.778897 -0.110697
C26   C     C_R   0.601371 0.478332 0.220476 -0.128715
C27   C     C_R   0.264249 0.437224 0.927412 0.491216
C28   C     C_R   0.737824 0.441208 0.070071 0.483678
C29   C     C_R   0.295837 0.465010 0.832380 -0.288272
C30   C     C_R   0.705116 0.468223 0.165975 -0.261843
C31   C     C_R   0.470578 0.461585 0.819692 -0.235764
C32   C     C_R   0.530317 0.460165 0.179633 -0.221052
C33   C     C_R   0.442859 0.425813 0.910214 0.007614
C34   C     C_R   0.622313 0.390736 0.892653 0.399352
C35   C     C_R   0.559678 0.425860 0.087530 0.002080
C36   C     C_R   0.338157 0.419187 0.966827 0.020388
C37   C     C_R   0.664686 0.421761 0.030348 0.026678
C38   C     C_R   0.517311 0.405700 0.948740 -0.068406
C39   C     C_R   0.486159 0.405005 0.048235 -0.072578
C40   C     C_R   0.309612 0.395335 0.062034 -0.137236
C41   C     C_R   0.694341 0.399213 0.934178 -0.134686
C42   C     C_R   0.401319 0.899031 0.596339 0.489815
C43   C     C_R   0.543853 0.101500 0.584437 0.490130
C44   C     C_R   0.406440 0.807999 0.575065 -0.179092
H1    H     H_    0.230611 0.384136 0.105579 0.252701
H2    H     H_    0.240176 0.476590 0.800527 0.162670
H3    H     H_    0.340996 0.767048 0.611745 0.222972
H4    H     H_    0.597622 0.233661 0.590461 0.204730
H5    H     H_    0.642695 0.953979 0.449824 0.203468
H6    H     H_    0.379521 0.044459 0.476780 0.184264
H7    H     H_    0.750917 0.397265 0.371492 0.360084
H8    H     H_    0.254802 0.613148 0.617073 0.351674
H9    H     H_    0.184260 0.514714 0.232193 0.386169
H10   H     H_    0.911342 0.750389 0.512979 0.394809
H11   H     H_    0.121411 0.443157 0.944327 0.352440
H12   H     H_    0.773907 0.390075 0.889887 0.221539
H13   H     H_    0.880410 0.449955 0.052963 0.368779
H14   H     H_    0.405945 0.326055 0.204742 0.352558
H15   H     H_    0.601243 0.329190 0.789099 0.348321
H16   H     H_    0.321472 0.996012 0.678445 0.347841
H17   H     H_    0.579566 0.004829 0.652774 0.347723
H18   H     H_    0.655944 0.733231 0.367482 0.343303
H19   H     H_    0.338502 0.170403 0.416917 0.345062
H20   H     H_    0.875275 0.535092 0.644754 0.207252
H21   H     H_    0.090182 0.366101 0.446748 0.214041
H22   H     H_    0.702608 0.540956 0.643923 0.171583
H23   H     H_    0.265411 0.368490 0.442043 0.221495
H24   H     H_    0.450987 0.474552 0.220047 0.218186
H25   H     H_    0.549000 0.478087 0.780392 0.202709
H26   H     H_    0.760422 0.481796 0.197538 0.219792
N1    N     N_R   0.747530 0.500020 0.500000 -0.162170
N2    N     N_R   0.252470 0.499980 0.500000 -0.174397
O1    O     O_R   0.420530 0.630930 0.499990 -0.587652
O2    O     O_3   0.217016 0.641650 0.581519 -0.697243
O3    O     O_2   0.061976 0.371685 0.285500 -0.290181
O4    O     O_2   0.994114 0.496523 0.222198 -0.212985
O5    O     O_3   0.129630 0.532521 0.292907 -0.526678
O6    O     O_2   0.961388 0.689641 0.654237 -0.297295
O7    O     O_2   0.101714 0.761416 0.528428 -0.190233
O8    O     O_3   0.955418 0.697250 0.485387 -0.525799
O9    O     O_3   0.162462 0.427513 0.982517 -0.726504
O10   O     O_3   0.840030 0.433892 0.014307 -0.757717
O11   O     O_3   0.348585 0.357722 0.195582 -0.744183
O12   O     O_R   0.579470 0.369070 0.500010 -0.651522
O13   O     O_3   0.656997 0.361612 0.799429 -0.768112
O14   O     O_3   0.311107 0.933686 0.660959 -0.715079
O15   O     O_3   0.600159 0.067372 0.633870 -0.733126
O16   O     O_3   0.670924 0.788741 0.395861 -0.715508
O17   O     O_3   0.379561 0.216927 0.432533 -0.763197
O18   O     O_R   0.579480 0.630940 0.499990 -0.586487
O19   O     O_R   0.420520 0.369060 0.500010 -0.567582
O20   O     O_R   0.375120 0.499990 0.632240 -0.639851
O21   O     O_R   0.624880 0.500010 0.367760 -0.599197
O22   O     O_R   0.534080 0.500000 0.632240 -0.623017
O23   O     O_R   0.465920 0.500000 0.367760 -0.600361
O24   O     O_3   0.810907 0.435947 0.344043 -0.713371
S1    S     S_3+6 0.029765 0.468994 0.299663 0.082488
S2    S     S_3+6 0.027712 0.685351 0.550659 0.088183
Zn1   Zn    Zn3+2 0.393860 0.499990 0.500000 0.986220
Zn2   Zn    Zn3+2 0.606140 0.500010 0.500000 0.976877

loop_
_geom_bond_atom_site_label_1
_geom_bond_atom_site_label_2
_ccdc_geom_bond_type
C25   C31   A    
C26   C32   A    
C1    O18   A    
C27   C29   A    
C18   O24   S    
C14   N1    A    
O7    S2    D    
H9    O5    S    
C13   H21   S    
C15   N2    A    
C9    C42   A    
C23   O11   S    
C17   C26   S    
C19   C21   A    
H8    O2    S    
C38   C39   A    
C11   C14   A    
O23   Zn1   S    
C23   C40   A    
O3    S1    D    
C33   C36   A    
C12   O12   A    
O1    Zn1   S    
C12   O19   A    
C5    O16   S    
C20   S1    S    
O6    S2    D    
C31   C33   A    
O5    S1    S    
C42   O14   S    
H11   O9    S    
H17   O15   S    
C9    C10   S    
C44   H3    S    
H7    O24   S    
C32   H24   S    
C19   N2    A    
C34   C41   A    
C42   C44   A    
O18   Zn2   S    
C30   H26   S    
H10   O8    S    
C25   C29   A    
C40   H1    S    
C3    C44   A    
C28   O10   S    
O12   Zn2   S    
C32   C35   A    
C36   C40   A    
C7    H5    S    
C4    C6    A    
C11   H20   S    
C5    C7    A    
H16   O14   S    
C27   O9    S    
C6    C8    A    
C2    H4    S    
O4    S1    D    
H18   O16   S    
C13   C24   A    
C1    C3    S    
C34   O13   S    
C2    C4    A    
H15   O13   S    
C41   H12   S    
C18   N1    A    
O22   Zn2   S    
C2    C43   A    
C15   H23   S    
H19   O17   S    
C14   H22   S    
O21   Zn2   S    
C17   O23   A    
C20   C22   A    
C26   C30   A    
C13   C15   A    
C22   C24   S    
C4    C12   S    
C8    H6    S    
C35   C37   A    
C16   C25   S    
C7    C9    A    
O8    S2    S    
C10   C43   A    
C34   C38   A    
C19   O2    S    
C3    C5    A    
C16   O20   A    
C27   C36   A    
C6    O17   S    
N1    Zn2   S    
C11   C22   A    
C16   O22   A    
C33   C38   A    
C29   H2    S    
C1    O1    A    
C28   C30   A    
C43   O15   S    
H14   O11   S    
C21   S2    S    
C28   C37   A    
C23   C39   A    
C35   C39   A    
C18   C20   A    
C37   C41   A    
C31   H25   S    
C17   O21   A    
C8    C10   A    
C21   C24   A    
H13   O10   S    
O19   Zn1   S    
O20   Zn1   S    
N2    Zn1   S    
