data_mof_unit_64527.cif
_audit_creation_date              2012-12-10T21:38:50-0500
_audit_creation_method            fapswitch 2.2
_symmetry_space_group_name_H-M    P1
_symmetry_Int_Tables_number       1
_space_group_crystal_system       triclinic
_cell_length_a                    16.082981
_cell_length_b                    16.909951
_cell_length_c                    19.21468
_cell_angle_alpha                 90.156405
_cell_angle_beta                  92.808733
_cell_angle_gamma                 86.457361
_cell_volume                      5209.41915996

loop_
_atom_site_label
_atom_site_type_symbol
_atom_type_description
_atom_site_fract_x
_atom_site_fract_y
_atom_site_fract_z
_atom_type_partial_charge
C1    C     C_R   0.487791 0.652876 0.499465 0.908839
C2    C     C_R   0.512202 0.347132 0.500478 0.908036
C3    C     C_R   0.477898 0.738710 0.501655 -0.058979
C4    C     C_R   0.522062 0.261326 0.498131 -0.081439
C5    C     C_R   0.541952 0.779225 0.534531 -0.263044
C6    C     C_R   0.457978 0.220805 0.465280 -0.266629
C7    C     C_R   0.536927 0.860769 0.536089 -0.200984
C8    C     C_R   0.463045 0.139234 0.463671 -0.159889
C9    C     C_R   0.467911 0.903430 0.503734 0.317685
C10   C     C_R   0.532094 0.096566 0.496009 0.254328
C11   C     C_R   0.401261 0.863819 0.473682 0.048137
C12   C     C_R   0.598832 0.136539 0.526061 0.044859
C13   C     C_R   0.406135 0.780511 0.471927 0.028554
C14   C     C_R   0.593831 0.219473 0.527693 0.081898
C15   C     C_R   0.763515 0.463196 0.465323 -0.018754
C16   C     C_R   0.236486 0.536812 0.534671 -0.018666
C17   C     C_R   0.850665 0.465406 0.467558 -0.291442
C18   C     C_R   0.149335 0.534609 0.532432 -0.292708
C19   C     C_R   0.890904 0.516210 0.515079 0.284758
C20   C     C_R   0.109095 0.483805 0.484912 0.284656
C21   C     C_R   0.840865 0.563345 0.559095 0.068053
C22   C     C_R   0.159133 0.436666 0.440899 0.068372
C23   C     C_R   0.500122 0.500554 0.634621 0.882417
C24   C     C_R   0.499877 0.499456 0.365379 0.882668
C25   C     C_R   0.753851 0.559132 0.554898 -0.033575
C26   C     C_R   0.246148 0.440871 0.445101 -0.033424
C27   C     C_R   0.426905 0.497576 0.744747 -0.183229
C28   C     C_R   0.573090 0.502516 0.255257 -0.183540
C29   C     C_R   0.428434 0.499784 0.816863 -0.174110
C30   C     C_R   0.571558 0.500381 0.183140 -0.174382
C31   C     C_R   0.503957 0.507000 0.855132 0.028654
C32   C     C_R   0.496031 0.493217 0.144863 0.028827
C33   C     C_R   0.578411 0.514116 0.820806 0.181973
C34   C     C_R   0.421574 0.486084 0.179182 0.181812
C35   C     C_R   0.576388 0.511766 0.748568 -0.207725
C36   C     C_R   0.423602 0.488359 0.251423 -0.208133
C37   C     C_R   0.501015 0.502910 0.710302 -0.079176
C38   C     C_R   0.498980 0.497158 0.289697 -0.079075
C39   C     C_R   0.496786 0.495328 0.069621 0.306107
C40   C     C_R   0.503213 0.504916 0.930375 0.306147
H1    H     H_    0.367978 0.491186 0.716135 0.169286
H2    H     H_    0.632021 0.508866 0.283875 0.169109
H3    H     H_    0.114230 0.572360 0.567531 0.190890
H4    H     H_    0.885770 0.427660 0.432455 0.191056
H5    H     H_    0.715521 0.595353 0.588814 0.151591
H6    H     H_    0.284477 0.404646 0.411186 0.151716
H7    H     H_    0.370808 0.494263 0.842911 0.169674
H8    H     H_    0.629186 0.505912 0.157099 0.169542
H9    H     H_    0.633900 0.517556 0.722482 0.182757
H10   H     H_    0.366088 0.482559 0.277504 0.182615
H11   H     H_    0.403522 0.252314 0.440833 0.181641
H12   H     H_    0.596369 0.747722 0.559048 0.181242
H13   H     H_    0.412272 0.109407 0.438071 0.178982
H14   H     H_    0.587697 0.890605 0.561689 0.168195
H15   H     H_    0.267078 0.575893 0.571015 0.145993
H16   H     H_    0.732923 0.424117 0.428977 0.146119
N1    N     N_R   0.560799 0.458586 0.967659 -0.126193
N2    N     N_R   0.439201 0.541660 0.032337 -0.126593
N3    N     N_R   0.558041 0.454326 0.036410 -0.151158
N4    N     N_R   0.441958 0.545920 0.963585 -0.151389
N5    N     N_2   0.464808 0.986537 0.499098 -0.161896
N6    N     N_2   0.535165 0.013449 0.500577 -0.203879
N7    N     N_R   0.716910 0.509720 0.508510 -0.102839
N8    N     N_R   0.283090 0.490280 0.491490 -0.102822
N9    N     N_2   0.979763 0.521734 0.520409 -0.143907
N10   N     N_2   0.020235 0.478283 0.479581 -0.143833
O1    O     O_R   0.422540 0.612660 0.496960 -0.593319
O2    O     O_R   0.577460 0.387340 0.503040 -0.595743
O3    O     O_R   0.561840 0.618900 0.502420 -0.627464
O4    O     O_R   0.438160 0.381100 0.497580 -0.625065
O5    O     O_R   0.430320 0.496890 0.599130 -0.624638
O6    O     O_R   0.569680 0.503110 0.400870 -0.624638
O7    O     O_R   0.569630 0.503130 0.604590 -0.622227
O8    O     O_R   0.430370 0.496870 0.395410 -0.622280
Zn1   Zn    Zn3+2 0.406980 0.495830 0.496350 0.965939
Zn2   Zn    Zn3+2 0.593020 0.504170 0.503650 0.964916
I1    I     I_    0.894135 0.641398 0.632574 -0.329116
I2    I     I_    0.105860 0.358619 0.367415 -0.325613
I3    I     I_    0.694899 0.534226 0.872912 -0.285940
I4    I     I_    0.305076 0.466049 0.127062 -0.286681
N11   N     N_3   0.330564 0.909229 0.443036 -0.446503
H17   H     H_    0.324371 0.895121 0.390128 0.192202
H18   H     H_    0.277095 0.893690 0.467215 0.192895
N12   N     N_3   0.670599 0.093459 0.557440 -0.464040
H19   H     H_    0.650896 0.057746 0.597021 0.202314
H20   H     H_    0.696910 0.056528 0.519584 0.204339
N13   N     N_3   0.340551 0.738500 0.438177 -0.428730
H21   H     H_    0.333670 0.756017 0.385995 0.189420
H22   H     H_    0.284943 0.753316 0.462422 0.191579
N14   N     N_3   0.659718 0.260946 0.561516 -0.422102
H23   H     H_    0.666867 0.242191 0.613389 0.207347
H24   H     H_    0.715051 0.245442 0.537047 0.209374

loop_
_geom_bond_atom_site_label_1
_geom_bond_atom_site_label_2
_ccdc_geom_bond_type
C30   C32   A    
N13   H21   S    
C40   N4    A    
C27   C29   A    
O6    Zn2   S    
N11   H17   S    
C11   N11   S    
C29   H7    S    
C9    N5    S    
C30   H8    S    
C35   C37   A    
N12   H20   S    
C2    O2    A    
N1    N3    A    
N7    Zn2   S    
N2    N4    A    
C31   C40   S    
C12   N12   S    
O3    Zn2   S    
C7    C9    A    
C25   N7    A    
C32   C39   S    
C28   H2    S    
C26   N8    A    
C14   N14   S    
C34   I4    S    
C35   H9    S    
C24   C38   S    
C31   C33   A    
C5    H12   S    
C6    H11   S    
C18   C20   A    
C3    C13   A    
C10   N6    S    
C23   O7    A    
N11   H18   S    
O8    Zn1   S    
C23   O5    A    
N12   H19   S    
C22   I2    S    
C4    C6    A    
C5    C7    A    
C33   I3    S    
C6    C8    A    
C23   C37   S    
C39   N2    A    
C1    O3    A    
C1    C3    S    
C32   C34   A    
C2    C4    S    
C27   H1    S    
N14   H24   S    
C28   C38   A    
C39   N3    A    
C13   N13   S    
C9    C11   A    
C10   C12   A    
C16   C18   A    
C20   C22   A    
N13   H22   S    
O7    Zn2   S    
O1    Zn1   S    
C17   C19   A    
C25   H5    S    
C36   H10   S    
C24   O6    A    
C20   N10   S    
C15   C17   A    
C21   C25   A    
C40   N1    A    
C19   C21   A    
C12   C14   A    
C3    C5    A    
C8    H13   S    
C1    O1    A    
O2    Zn2   S    
C15   H16   S    
C36   C38   A    
C17   H4    S    
C29   C31   A    
C18   H3    S    
O5    Zn1   S    
C11   C13   A    
C24   O8    A    
N14   H23   S    
C27   C37   A    
C28   C30   A    
C33   C35   A    
N8    Zn1   S    
C19   N9    S    
C34   C36   A    
C4    C14   A    
N5    N6    D    
C16   H15   S    
C26   H6    S    
C8    C10   A    
N9    N10   D    
C22   C26   A    
C21   I1    S    
O4    Zn1   S    
C15   N7    A    
C16   N8    A    
C7    H14   S    
C2    O4    A    
