data_mof_unit_67929.cif
_audit_creation_date              2012-12-10T19:00:01-0500
_audit_creation_method            fapswitch 2.2
_symmetry_space_group_name_H-M    P1
_symmetry_Int_Tables_number       1
_space_group_crystal_system       triclinic
_cell_length_a                    10.749243
_cell_length_b                    10.794258
_cell_length_c                    10.051934
_cell_angle_alpha                 89.386987
_cell_angle_beta                  91.152535
_cell_angle_gamma                 91.69863
_cell_volume                      1165.51899377

loop_
_atom_site_label
_atom_site_type_symbol
_atom_type_description
_atom_site_fract_x
_atom_site_fract_y
_atom_site_fract_z
_atom_type_partial_charge
Br1   Br    Br    0.282589 0.859089 0.116759 -0.563640
Br2   Br    Br    0.709601 0.189342 0.014757 -0.579613
Br3   Br    Br    0.870114 0.299761 0.296631 -0.537879
Br4   Br    Br    0.148332 0.308403 0.717320 -0.612969
C1    C     C_R   0.503974 0.260661 0.500583 0.980700
C2    C     C_R   0.527567 0.062617 0.619220 -0.329554
C3    C     C_R   0.505359 0.873149 0.499470 -0.254934
C4    C     C_R   0.511150 0.127939 0.500062 -0.210978
C5    C     C_R   0.536929 0.603400 0.070298 0.564790
C6    C     C_R   0.458114 0.396656 0.928711 0.589221
C7    C     C_R   0.536703 0.602524 0.927918 -0.255292
C8    C     C_R   0.458539 0.399114 0.073025 -0.277205
C9    C     C_R   0.259595 0.494527 0.497801 0.939697
C10   C     C_R   0.739352 0.491593 0.501621 0.889040
C11   C     C_R   0.209208 0.698290 0.127897 0.282891
C12   C     C_R   0.500350 0.739762 0.499552 0.916224
C13   C     C_R   0.783196 0.333535 0.933717 0.204459
C14   C     C_R   0.143516 0.658363 0.240320 0.489607
C15   C     C_R   0.825528 0.333095 0.802024 0.503958
C16   C     C_R   0.100089 0.533373 0.247915 -0.006143
C17   C     C_R   0.889770 0.439149 0.753141 0.074045
C18   C     C_R   0.107828 0.457981 0.135958 -0.198766
C19   C     C_R   0.912744 0.542035 0.834291 -0.218600
C20   C     C_R   0.168426 0.501813 0.023284 -0.209827
C21   C     C_R   0.867627 0.542488 0.962372 -0.213080
C22   C     C_R   0.222735 0.619513 0.021034 -0.256520
C23   C     C_R   0.870950 0.466851 0.503150 -0.172368
C24   C     C_R   0.800164 0.440126 0.010612 -0.192420
C25   C     C_R   0.926717 0.449714 0.381545 0.180559
C26   C     C_R   0.067914 0.427669 0.607193 0.187682
C27   C     C_3   0.002482 0.763979 0.362234 0.046242
C28   C     C_3   0.981457 0.901628 0.342469 -0.819110
C29   C     C_3   0.859791 0.129988 0.746506 0.137249
C30   C     C_3   0.900332 0.072234 0.618003 -0.805711
C31   C     C_3   0.270687 0.099405 0.359920 0.070157
C32   C     C_3   0.181639 0.195718 0.308554 -0.818690
C33   C     C_3   0.295328 0.910712 0.678489 0.119407
C34   C     C_R   0.125539 0.472201 0.492599 -0.172484
C35   C     C_3   0.206316 0.817787 0.742890 -0.807382
C36   C     C_3   0.683329 0.738431 0.161514 0.121585
C37   C     C_3   0.738852 0.827314 0.058121 -0.866343
C38   C     C_3   0.391731 0.183330 0.928728 0.146566
C39   C     C_3   0.261520 0.168545 0.983760 -0.801682
C40   C     C_R   0.941243 0.442785 0.619427 -0.002404
C41   C     C_R   0.052492 0.481171 0.374075 -0.049199
C42   C     C_R   0.476285 0.063993 0.383609 0.541195
C43   C     C_R   0.497503 0.936928 0.620154 0.465460
C44   C     C_R   0.496851 0.938534 0.379381 -0.309039
H1    H     H_    0.276449 0.648659 0.936344 0.198413
H2    H     H_    0.542060 0.110929 0.711679 0.226808
H3    H     H_    0.977356 0.737600 0.465656 0.155098
H4    H     H_    0.936594 0.712582 0.293861 0.108122
H5    H     H_    0.011484 0.931853 0.241873 0.278353
H6    H     H_    0.881154 0.920581 0.352559 0.227403
H7    H     H_    0.035328 0.954982 0.418737 0.251209
H8    H     H_    0.797244 0.061311 0.796672 0.188029
H9    H     H_    0.943761 0.146563 0.811729 0.166469
H10   H     H_    0.962981 0.137753 0.563578 0.291741
H11   H     H_    0.950477 0.985938 0.640937 0.192931
H12   H     H_    0.761650 0.443702 0.108513 0.215503
H13   H     H_    0.817592 0.049362 0.553919 0.270530
H14   H     H_    0.275688 0.111724 0.470077 0.120234
H15   H     H_    0.230587 0.005431 0.341202 0.218384
H16   H     H_    0.127724 0.160889 0.220914 0.256744
H17   H     H_    0.114086 0.215597 0.386931 0.257504
H18   H     H_    0.233917 0.282518 0.283445 0.281851
H19   H     H_    0.278252 0.900790 0.569205 0.138518
H20   H     H_    0.269253 0.005683 0.706272 0.159360
H21   H     H_    0.111224 0.828191 0.699837 0.192213
H22   H     H_    0.202507 0.835325 0.850623 0.277534
H23   H     H_    0.561894 0.686412 0.874132 0.213561
H24   H     H_    0.235950 0.722136 0.723719 0.270150
H25   H     H_    0.738039 0.653162 0.172619 0.105770
H26   H     H_    0.692028 0.784896 0.259325 0.168980
H27   H     H_    0.682031 0.911285 0.049702 0.315621
H28   H     H_    0.835379 0.855228 0.088389 0.228372
H29   H     H_    0.741582 0.782828 0.959445 0.234754
H30   H     H_    0.462208 0.168588 0.008088 0.195213
H31   H     H_    0.402598 0.105002 0.861200 0.197325
H32   H     H_    0.228611 0.257123 0.020548 0.247357
H33   H     H_    0.195113 0.129389 0.908492 0.268273
H34   H     H_    0.421816 0.322733 0.131299 0.215890
H35   H     H_    0.264041 0.103054 0.067875 0.292207
H36   H     H_    0.070047 0.364413 0.135861 0.210959
H37   H     H_    0.965707 0.622018 0.798023 0.156031
H38   H     H_    0.176397 0.443929 0.938319 0.232626
H39   H     H_    0.888585 0.621173 0.025052 0.165109
H40   H     H_    0.483764 0.890920 0.286510 0.274867
N1    N     N_R   0.499970 0.499970 0.857200 -0.149209
N2    N     N_R   0.500030 0.500030 0.142800 -0.150200
O1    O     O_R   0.499990 0.316750 0.614620 -0.556048
O2    O     O_3   0.792924 0.237792 0.715576 -0.608007
O3    O     O_3   0.388228 0.112906 0.297328 -0.594236
O4    O     O_3   0.421074 0.889470 0.719148 -0.582904
O5    O     O_3   0.555486 0.715262 0.133859 -0.573109
O6    O     O_3   0.408925 0.296098 0.855952 -0.566442
O7    O     O_R   0.500010 0.683250 0.385380 -0.585702
O8    O     O_R   0.499990 0.316780 0.385290 -0.578909
O9    O     O_R   0.500010 0.683220 0.614710 -0.594092
O10   O     O_R   0.316760 0.500000 0.614660 -0.574400
O11   O     O_R   0.683240 0.500000 0.385340 -0.622027
O12   O     O_R   0.316760 0.500020 0.385330 -0.625995
O13   O     O_R   0.683240 0.499980 0.614670 -0.624285
O14   O     O_3   0.130083 0.739492 0.344701 -0.622687
Zn1   Zn    Zn3+2 0.500000 0.499980 0.653120 1.027124
Zn2   Zn    Zn3+2 0.500000 0.500020 0.346880 1.006208

loop_
_geom_bond_atom_site_label_1
_geom_bond_atom_site_label_2
_ccdc_geom_bond_type
C11   C14   A    
C23   C25   A    
C39   H35   S    
O1    Zn1   S    
C31   C32   S    
C27   H4    S    
C21   C24   A    
O10   Zn1   S    
C38   O6    S    
C8    N2    A    
C15   C17   A    
C20   C22   A    
C37   H29   S    
C7    H23   S    
C12   O7    A    
C33   H20   S    
C21   H39   S    
C36   H25   S    
C26   C34   A    
Br3   C25   S    
C34   C41   A    
C15   O2    S    
C23   C40   A    
C43   O4    S    
C6    N1    A    
C35   H24   S    
C44   H40   S    
Br1   C11   S    
C10   C23   S    
C5    O5    S    
C28   H7    S    
C16   C41   S    
C29   H8    S    
C24   H12   S    
C38   H31   S    
Br2   C13   S    
C26   C40   A    
C28   H6    S    
C31   O3    S    
O9    Zn1   S    
C42   C44   A    
C2    C43   A    
N2    Zn2   S    
C22   H1    S    
C32   H17   S    
C10   O11   A    
C2    C4    A    
C39   H32   S    
C30   H13   S    
C25   C41   A    
C3    C43   A    
C37   H27   S    
C17   C40   S    
C7    N1    A    
C32   H18   S    
C27   C28   S    
C6    O6    S    
C29   C30   S    
C35   H21   S    
C8    H34   S    
O13   Zn1   S    
C14   O14   S    
C2    H2    S    
C5    C7    A    
C9    C34   S    
C1    O1    A    
C6    C8    A    
O7    Zn2   S    
C36   C37   S    
C16   C18   A    
C38   H30   S    
C17   C19   A    
C30   H11   S    
C39   H33   S    
C18   C20   A    
C29   O2    S    
C38   C39   S    
C36   O5    S    
C28   H5    S    
O11   Zn2   S    
C3    C12   S    
C29   H9    S    
C13   C24   A    
C27   H3    S    
C11   C22   A    
C5    N2    A    
C1    C4    S    
C12   O9    A    
O8    Zn2   S    
C3    C44   A    
C9    O10   A    
C33   C35   S    
C27   O14   S    
C37   H28   S    
C10   O13   A    
C42   O3    S    
C33   H19   S    
C13   C15   A    
C35   H22   S    
C36   H26   S    
C33   O4    S    
O12   Zn2   S    
C31   H14   S    
C14   C16   A    
C19   C21   A    
C4    C42   A    
C1    O8    A    
C19   H37   S    
N1    Zn1   S    
C30   H10   S    
C31   H15   S    
C9    O12   A    
C32   H16   S    
C20   H38   S    
Br4   C26   S    
C18   H36   S    
