data_mof_unit_11128.cif
_audit_creation_date              2012-12-11T15:33:34-0500
_audit_creation_method            fapswitch 2.2
_symmetry_space_group_name_H-M    P1
_symmetry_Int_Tables_number       1
_space_group_crystal_system       triclinic
_cell_length_a                    27.080898
_cell_length_b                    7.198007
_cell_length_c                    22.764903
_cell_angle_alpha                 90.034899
_cell_angle_beta                  101.26128
_cell_angle_gamma                 89.977722
_cell_volume                      4352.09088939

loop_
_atom_site_label
_atom_site_type_symbol
_atom_type_description
_atom_site_fract_x
_atom_site_fract_y
_atom_site_fract_z
_atom_type_partial_charge
O1    O     O_R   0.207310 0.594030 0.676830 -0.532764
O2    O     O_R   0.792690 0.405970 0.323170 -0.530715
O3    O     O_R   0.292690 0.094030 0.823170 -0.533136
O4    O     O_R   0.707310 0.905970 0.176830 -0.531453
O5    O     O_R   0.197320 0.262370 0.795700 -0.541907
O6    O     O_R   0.802680 0.737630 0.204300 -0.539240
O7    O     O_R   0.302680 0.762370 0.704300 -0.540518
O8    O     O_R   0.697320 0.237630 0.295700 -0.537428
C1    C     C_R   0.184999 0.432633 0.812308 0.693813
C2    C     C_R   0.815149 0.567332 0.187914 0.702844
C3    C     C_R   0.314995 0.932491 0.687612 0.694912
C4    C     C_R   0.684975 0.067555 0.312077 0.702815
O9    O     O_R   0.201410 0.264250 0.675590 -0.534312
O10   O     O_R   0.798590 0.735750 0.324410 -0.537979
O11   O     O_R   0.298590 0.764250 0.824410 -0.534221
O12   O     O_R   0.701410 0.235750 0.175590 -0.538266
O13   O     O_R   0.296810 0.094940 0.702210 -0.535785
O14   O     O_R   0.703190 0.905060 0.297790 -0.535140
O15   O     O_R   0.203190 0.594940 0.797790 -0.536105
O16   O     O_R   0.796810 0.405060 0.202210 -0.536232
C5    C     C_R   0.189937 0.432111 0.653208 0.685319
C6    C     C_R   0.810199 0.567542 0.346598 0.687592
C7    C     C_R   0.310061 0.932169 0.846795 0.683488
C8    C     C_R   0.689778 0.067469 0.153424 0.684782
O17   O     O_3   0.281300 0.427390 0.758870 -0.370770
O18   O     O_3   0.718700 0.572610 0.241130 -0.373975
O19   O     O_3   0.218700 0.927390 0.741130 -0.371391
O20   O     O_3   0.781300 0.072610 0.258870 -0.374886
V1    V     V_3+5 0.244190 0.152150 0.748350 1.405860
V2    V     V_3+5 0.755810 0.847850 0.251650 1.393234
V3    V     V_3+5 0.255810 0.652150 0.751650 1.407887
V4    V     V_3+5 0.744190 0.347850 0.248350 1.393547
C9    C     C_R   0.655228 0.061091 0.094755 -0.071590
C10   C     C_R   0.345017 0.932264 0.905396 -0.071423
C11   C     C_R   0.844738 0.561528 0.405287 -0.075896
C12   C     C_R   0.154960 0.431917 0.594623 -0.071924
C13   C     C_R   0.640763 0.112494 0.987981 -0.145224
C14   C     C_R   0.363980 0.814443 0.006660 -0.141489
C15   C     C_R   0.859387 0.616681 0.511896 -0.140054
C16   C     C_R   0.135796 0.311793 0.493614 -0.141372
C17   C     C_R   0.673084 0.111399 0.043563 -0.156676
C18   C     C_R   0.329666 0.846237 0.953731 -0.154720
C19   C     C_R   0.827044 0.614726 0.456336 -0.152450
C20   C     C_R   0.170184 0.344395 0.546421 -0.153017
C21   C     C_R   0.604322 0.012207 0.089908 -0.191436
C22   C     C_R   0.395543 0.987725 0.910828 -0.180379
C23   C     C_R   0.895555 0.511132 0.410234 -0.191065
C24   C     C_R   0.104485 0.488196 0.589159 -0.180810
C25   C     C_R   0.570959 0.002647 0.033152 0.090327
C26   C     C_R   0.432580 0.940850 0.962524 0.089753
C27   C     C_R   0.928973 0.502905 0.466982 0.090617
C28   C     C_R   0.067355 0.440622 0.537611 0.089946
C29   C     C_R   0.590090 0.060338 0.982440 0.064924
C30   C     C_R   0.415074 0.858388 0.011222 0.067680
C31   C     C_R   0.909965 0.563021 0.517550 0.062337
C32   C     C_R   0.084743 0.356456 0.489059 0.066864
C33   C     C_R   0.519188 0.943987 0.025029 -0.111016
C34   C     C_R   0.485964 0.971750 0.967950 -0.108710
C35   C     C_R   0.980696 0.443437 0.475208 -0.111314
C36   C     C_R   0.013996 0.472412 0.532181 -0.108485
C37   C     C_R   0.508272 0.015973 0.917916 0.411777
C38   C     C_R   0.499962 0.847311 0.070317 0.412677
C39   C     C_R   0.991775 0.518884 0.582123 0.412146
C40   C     C_R   0.999811 0.345044 0.430129 0.414272
C41   C     C_R   0.559021 0.063079 0.926063 -0.274319
C42   C     C_R   0.448676 0.811761 0.063512 -0.267359
C43   C     C_R   0.941079 0.566956 0.573892 -0.273941
C44   C     C_R   0.051063 0.308852 0.436934 -0.265329
H1    H     H_    0.574416 0.099573 0.887047 0.145500
H2    H     H_    0.435292 0.740788 0.099417 0.144128
H3    H     H_    0.925766 0.605326 0.612819 0.144640
H4    H     H_    0.064358 0.236612 0.401166 0.145847
H5    H     H_    0.404388 0.065350 0.873890 0.173770
H6    H     H_    0.591544 0.992676 0.131386 0.165191
H7    H     H_    0.095762 0.566903 0.625974 0.173970
H8    H     H_    0.908245 0.489761 0.368783 0.166954
H9    H     H_    0.291028 0.800825 0.950085 0.097692
H10   H     H_    0.712072 0.151743 0.046762 0.099459
H11   H     H_    0.208777 0.298310 0.550099 0.099290
H12   H     H_    0.788188 0.656881 0.453018 0.102571
H13   H     H_    0.655495 0.154376 0.949028 0.112911
H14   H     H_    0.350808 0.748338 0.043518 0.112053
H15   H     H_    0.844763 0.660677 0.550730 0.118000
H16   H     H_    0.148871 0.244441 0.456869 0.112427
C45   C     C_R   0.650006 0.911377 0.393325 -0.240346
C46   C     C_R   0.360191 0.113970 0.619792 -0.238033
C47   C     C_R   0.860967 0.384953 0.121030 -0.237055
C48   C     C_R   0.138865 0.615928 0.878717 -0.255366
H17   H     H_    0.681237 0.814777 0.398815 0.129789
H18   H     H_    0.338416 0.235598 0.626592 0.136891
H19   H     H_    0.839070 0.263410 0.127504 0.138635
H20   H     H_    0.159784 0.738056 0.870450 0.127997
C49   C     C_R   0.613946 0.892824 0.430099 0.445617
C50   C     C_R   0.394832 0.129674 0.581387 0.432473
C51   C     C_R   0.895967 0.368951 0.083187 0.433769
C52   C     C_R   0.104144 0.632080 0.917238 0.446361
C53   C     C_R   0.574358 0.023687 0.425579 -0.061396
C54   C     C_R   0.425450 0.976119 0.572799 -0.085793
C55   C     C_R   0.926311 0.522874 0.074536 -0.083726
C56   C     C_R   0.074383 0.477081 0.926443 -0.069449
C57   C     C_R   0.571687 0.168061 0.383213 -0.232968
C58   C     C_R   0.418175 0.807262 0.601437 -0.202285
C59   C     C_R   0.918845 0.692052 0.102896 -0.196851
C60   C     C_R   0.082536 0.307014 0.899012 -0.214159
H21   H     H_    0.541598 0.269405 0.378169 0.151024
H22   H     H_    0.440359 0.685889 0.595627 0.198216
H23   H     H_    0.941048 0.813335 0.097110 0.196333
H24   H     H_    0.060709 0.185190 0.905268 0.194047
C61   C     C_R   0.607589 0.184114 0.346651 -0.173213
C62   C     C_R   0.381992 0.791125 0.637676 -0.168390
C63   C     C_R   0.882721 0.708035 0.139165 -0.156767
C64   C     C_R   0.118781 0.290749 0.862980 -0.172495
H25   H     H_    0.604225 0.296381 0.314451 0.129685
H26   H     H_    0.377479 0.658506 0.658433 0.152727
H27   H     H_    0.878141 0.840642 0.159963 0.148590
H28   H     H_    0.123927 0.157266 0.843038 0.147752
C65   C     C_R   0.646976 0.055258 0.351093 -0.090884
C66   C     C_R   0.352953 0.945049 0.648059 -0.104453
C67   C     C_R   0.853497 0.554250 0.149053 -0.107011
C68   C     C_R   0.146999 0.445615 0.851676 -0.094721
N1    N     N_R   0.507029 0.160789 0.472004 -0.307295
N2    N     N_R   0.492848 0.838735 0.526088 -0.288721
N3    N     N_R   0.987157 0.666173 0.019455 -0.295712
N4    N     N_R   0.013545 0.333396 0.981652 -0.300628
N5    N     N_R   0.472399 0.149870 0.506258 -0.230643
N6    N     N_R   0.527577 0.849646 0.491934 -0.239725
N7    N     N_R   0.021555 0.655738 0.984910 -0.214969
N8    N     N_R   0.979159 0.343797 0.016237 -0.223436
C69   C     C_R   0.464376 0.988772 0.534168 0.527142
C70   C     C_R   0.535607 0.011006 0.464177 0.534576
C71   C     C_R   0.035662 0.489266 0.965174 0.517764
C72   C     C_R   0.965045 0.510345 0.035915 0.513499
O21   O     O_3   0.482290 0.002902 0.859545 -0.564126
C73   C     C_3   0.484835 0.817426 0.840024 0.076526
H29   H     H_    0.470953 0.717901 0.870650 0.125856
H30   H     H_    0.524209 0.780667 0.836954 0.130199
C74   C     C_3   0.451786 0.796993 0.778229 -0.678207
H31   H     H_    0.464709 0.893303 0.746238 0.235836
H32   H     H_    0.453857 0.652223 0.761998 0.182468
H33   H     H_    0.412063 0.829497 0.780304 0.204220
O22   O     O_3   0.530813 0.774149 0.120509 -0.563458
C75   C     C_3   0.547831 0.597489 0.105983 0.072739
H34   H     H_    0.567565 0.605559 0.067418 0.127733
H35   H     H_    0.515728 0.498510 0.094982 0.127751
C76   C     C_3   0.584889 0.522168 0.159624 -0.659548
H36   H     H_    0.566357 0.509846 0.198878 0.209097
H37   H     H_    0.598339 0.382895 0.148893 0.174713
H38   H     H_    0.617719 0.616978 0.171022 0.228086
O23   O     O_3   0.017804 0.507508 0.640511 -0.564448
C77   C     C_3   0.015068 0.322935 0.660695 0.075207
H39   H     H_    0.028704 0.221720 0.630330 0.126411
H40   H     H_    0.975682 0.287532 0.664064 0.129183
C78   C     C_3   0.048265 0.304031 0.722459 -0.680283
H41   H     H_    0.035618 0.402104 0.754207 0.233977
H42   H     H_    0.046029 0.160031 0.739218 0.182059
H43   H     H_    0.087998 0.335115 0.720082 0.204791
O24   O     O_3   0.968887 0.271018 0.380133 -0.562241
C79   C     C_3   0.951717 0.095180 0.395092 0.069870
H44   H     H_    0.932179 0.104626 0.433803 0.127495
H45   H     H_    0.983711 0.995677 0.406072 0.128652
C80   C     C_3   0.914364 0.019595 0.341754 -0.649400
H46   H     H_    0.932665 0.006157 0.302341 0.215163
H47   H     H_    0.900856 0.880824 0.352778 0.174188
H48   H     H_    0.881608 0.114834 0.330455 0.226799
O25   O     O_3   0.620618 0.760784 0.475277 -0.545937
C81   C     C_3   0.619275 0.578357 0.451591 0.124607
H49   H     H_    0.614015 0.570298 0.401769 0.090191
H50   H     H_    0.586926 0.504236 0.464216 0.175102
C82   C     C_3   0.667362 0.475862 0.479388 -0.699335
H51   H     H_    0.700438 0.544517 0.466715 0.198361
H52   H     H_    0.672044 0.475532 0.528950 0.236178
H53   H     H_    0.665531 0.329975 0.463294 0.195936
O26   O     O_3   0.400071 0.299245 0.554776 -0.545483
C83   C     C_3   0.360908 0.318072 0.504105 0.104101
H54   H     H_    0.323541 0.325107 0.517538 0.098048
H55   H     H_    0.361082 0.200018 0.472388 0.116777
C84   C     C_3   0.368437 0.496825 0.471348 -0.665839
H56   H     H_    0.406305 0.497854 0.459429 0.250771
H57   H     H_    0.339385 0.507640 0.429692 0.163161
H58   H     H_    0.364841 0.618556 0.500121 0.214443
O27   O     O_3   0.901388 0.199314 0.056663 -0.545620
C85   C     C_3   0.863980 0.184379 0.004134 0.096781
H59   H     H_    0.866896 0.300846 0.972710 0.118318
H60   H     H_    0.825615 0.183930 0.015026 0.098616
C86   C     C_3   0.871115 0.003011 0.972485 -0.656225
H61   H     H_    0.865125 0.883358 0.000991 0.213563
H62   H     H_    0.843436 0.994358 0.929603 0.163389
H63   H     H_    0.909754 0.995872 0.962907 0.256898
O28   O     O_3   0.097307 0.801284 0.943762 -0.544708
C87   C     C_3   0.142938 0.862166 0.980043 0.074371
H64   H     H_    0.164815 0.944415 0.952627 0.116968
H65   H     H_    0.166667 0.744831 0.001842 0.102564
C88   C     C_3   0.131086 0.986219 0.029631 -0.635245
H66   H     H_    0.109541 0.906762 0.058036 0.236036
H67   H     H_    0.166647 0.036675 0.057977 0.158078
H68   H     H_    0.108452 0.107764 0.010272 0.233830

loop_
_geom_bond_atom_site_label_1
_geom_bond_atom_site_label_2
_ccdc_geom_bond_type
O17   V3    S    
C55   C59   A    
C48   C52   A    
O1    C5    A    
C87   H64   S    
C47   H19   S    
N3    C72   A    
O19   V1    S    
C9    C21   A    
C82   H51   S    
C16   H16   S    
O3    C7    A    
C10   C18   A    
C56   C60   A    
N1    C70   A    
C11   C23   A    
C62   C66   A    
C73   C74   S    
C76   H36   S    
C33   C34   A    
C56   C71   S    
C37   O21   S    
C33   C38   A    
C5    C12   S    
C42   H2    S    
O26   C83   S    
O7    C3    A    
C6    C11   S    
C74   H32   S    
C35   C40   A    
O24   C79   S    
C55   C72   S    
C36   C39   A    
C40   C44   A    
O2    V4    S    
O9    V1    S    
C23   H8    S    
C14   C18   A    
O4    C8    A    
C51   C55   A    
C86   H62   S    
C50   C54   A    
C57   C61   A    
C60   H24   S    
O1    V3    S    
O13   V1    S    
C31   C43   A    
C59   C63   A    
C32   C44   A    
O3    V1    S    
C18   H9    S    
C85   H59   S    
C39   O23   S    
C2    C67   S    
C46   C50   A    
C87   C88   S    
C76   H37   S    
N1    N5    A    
C83   H54   S    
C45   C49   A    
C1    O15   A    
C15   C31   A    
C48   H20   S    
C2    O16   A    
C16   C32   A    
C77   C78   S    
C47   C51   A    
C40   O24   S    
O2    C6    A    
C58   H22   S    
C10   C22   A    
C48   C68   A    
C11   C19   A    
C62   H26   S    
N2    C69   A    
C43   H3    S    
C79   C80   S    
C44   H4    S    
N4    N8    A    
C13   C29   A    
C7    C10   S    
C34   C37   A    
O11   C7    A    
O15   V3    S    
C35   C36   A    
O12   C8    A    
C14   H14   S    
C81   H50   S    
C82   H52   S    
C24   H7    S    
C13   H13   S    
C47   C67   A    
O10   V2    S    
N8    C72   A    
C80   H47   S    
C80   H46   S    
O5    V1    S    
C57   H21   S    
C74   H33   S    
C39   C43   A    
O7    V3    S    
C38   C42   A    
C61   C65   A    
C26   C34   A    
C46   H18   S    
C17   H10   S    
C60   C64   A    
C45   H17   S    
O18   V4    S    
C51   O27   S    
C86   H63   S    
C15   C19   A    
C88   H67   S    
C19   H12   S    
O27   C85   S    
N4    C71   A    
C21   H6    S    
C85   C86   S    
O8    V4    S    
C52   O28   S    
N2    N6    A    
O5    C1    A    
C37   C41   A    
C63   H27   S    
N3    N7    A    
C14   C30   A    
C21   C25   A    
O8    C4    A    
C84   H58   S    
C53   C57   A    
C75   C76   S    
O9    C5    A    
C46   C66   A    
C26   C30   A    
C78   H43   S    
C45   C65   A    
C83   C84   S    
C75   H35   S    
O14   V2    S    
C63   C67   A    
O6    V2    S    
C16   C20   A    
C84   H56   S    
O21   C73   S    
C82   H53   S    
C77   H40   S    
C12   C20   A    
C78   H42   S    
C38   O22   S    
C49   C53   A    
C64   H28   S    
C80   H48   S    
C29   C41   A    
C76   H38   S    
C64   C68   A    
O16   V4    S    
C3    O13   A    
C87   H65   S    
C75   H34   S    
C20   H11   S    
C53   C70   S    
C25   C33   A    
C23   C27   A    
O11   V3    S    
C73   H29   S    
C30   C42   A    
C61   H25   S    
O12   V4    S    
C74   H31   S    
C22   C26   A    
C8    C9    S    
C9    C17   A    
O10   C6    A    
N7    C71   A    
O20   V2    S    
C15   H15   S    
C54   C58   A    
O22   C75   S    
C88   H68   S    
C79   H45   S    
C86   H61   S    
C79   H44   S    
C81   H49   S    
C84   H57   S    
C41   H1    S    
C52   C56   A    
C54   C69   S    
C83   H55   S    
C73   H30   S    
C12   C24   A    
C27   C31   A    
C13   C17   A    
O28   C87   S    
C85   H60   S    
C25   C29   A    
C58   C62   A    
O6    C2    A    
C50   O26   S    
C49   O25   S    
C4    C65   S    
N5    C69   A    
O25   C81   S    
C24   C28   A    
C27   C35   A    
C81   C82   S    
C28   C36   A    
C88   H66   S    
C4    O14   A    
C1    C68   S    
N6    C70   A    
C77   H39   S    
C59   H23   S    
C78   H41   S    
O23   C77   S    
C3    C66   S    
C22   H5    S    
O4    V2    S    
C28   C32   A    
