data_mof_unit_25477.cif
_audit_creation_date              2013-03-05T15:58:57-0500
_audit_creation_method            fapswitch 2.2
_symmetry_space_group_name_H-M    P1
_symmetry_Int_Tables_number       1
_space_group_crystal_system       triclinic
_cell_length_a                    10.666876
_cell_length_b                    12.55968
_cell_length_c                    13.245409
_cell_angle_alpha                 84.521092
_cell_angle_beta                  90.374811
_cell_angle_gamma                 100.816142
_cell_volume                      1734.91534792

loop_
_atom_site_label
_atom_site_type_symbol
_atom_site_description
_atom_site_fract_x
_atom_site_fract_y
_atom_site_fract_z
_atom_type_partial_charge
O1    O     O_R   0.468120 0.366740 0.627160 -0.621699
O2    O     O_R   0.510770 0.544830 0.662520 -0.545309
C1    C     C_R   0.477356 0.441786 0.691040 0.922038
O3    O     O_R   0.663880 0.410950 0.482330 -0.602205
O4    O     O_R   0.706530 0.589040 0.517700 -0.637395
C2    C     C_R   0.740288 0.496491 0.509303 0.987123
Zn1   Zn    Zn3+2 0.471520 0.381090 0.476390 0.999043
Zn2   Zn    Zn3+2 0.528480 0.618910 0.523610 1.015563
O5    O     O_R   0.489230 0.455170 0.337480 -0.611068
O6    O     O_R   0.531880 0.633260 0.372840 -0.655649
O7    O     O_R   0.293470 0.410960 0.482300 -0.624452
O8    O     O_R   0.336120 0.589050 0.517670 -0.593494
C3    C     C_R   0.507794 0.558837 0.309795 0.935989
C4    C     C_R   0.258053 0.500315 0.502484 0.902008
C5    C     C_3   0.903778 0.383754 0.564750 0.243183
H1    H     H_    0.853745 0.318323 0.519501 0.111432
C6    C     C_3   0.049743 0.387091 0.558115 0.049787
H2    H     H_    0.061377 0.324971 0.505761 0.129363
H3    H     H_    0.090248 0.447734 0.355711 0.216501
C7    C     C_3   0.929949 0.520134 0.402590 0.055255
C8    C     C_3   0.946502 0.587707 0.579218 0.028102
C9    C     C_3   0.876769 0.494968 0.514954 -0.222089
H4    H     H_    0.921385 0.665159 0.545915 0.126177
C10   C     C_3   0.121228 0.500981 0.508031 -0.168626
C11   C     C_3   0.072658 0.515566 0.398732 -0.506660
C12   C     C_3   0.093056 0.597841 0.566641 0.301444
H5    H     H_    0.141859 0.591475 0.640217 0.207119
H6    H     H_    0.920962 0.605620 0.376970 0.152221
H7    H     H_    0.126073 0.591740 0.357224 0.215973
C13   C     C_R   0.336089 0.672871 0.091633 0.542963
H8    H     H_    0.382773 0.720323 0.240226 0.158948
H9    H     H_    0.250756 0.674239 0.903173 0.200333
C14   C     C_R   0.472717 0.587183 0.206761 -0.113313
C15   C     C_R   0.496070 0.308329 0.833706 -0.142525
C16   C     C_R   0.495225 0.272701 0.935850 -0.148190
C17   C     C_R   0.466135 0.338459 0.006953 -0.133691
C18   C     C_R   0.432317 0.439978 0.976372 0.093535
C19   C     C_R   0.419813 0.473385 0.872187 -0.014032
C20   C     C_R   0.418257 0.513651 0.047162 0.002312
C21   C     C_R   0.346582 0.596090 0.022389 -0.030980
C22   C     C_R   0.301062 0.608235 0.924472 -0.186861
C23   C     C_R   0.362695 0.567856 0.848217 0.315596
C24   C     C_R   0.484687 0.513403 0.137532 -0.197068
C25   C     C_R   0.397637 0.666334 0.184628 -0.299893
C26   C     C_R   0.462710 0.408922 0.800148 -0.046831
H10   H     H_    0.546989 0.455584 0.155726 0.196390
H11   H     H_    0.525159 0.256982 0.780519 0.147617
H12   H     H_    0.467340 0.307870 0.086070 0.137537
H13   H     H_    0.520962 0.194968 0.960133 0.139771
C27   C     C_R   0.322217 0.086109 0.347350 -0.303868
H14   H     H_    0.298272 0.252709 0.333265 0.135286
H15   H     H_    0.290688 0.876973 0.318732 0.174957
H16   H     H_    0.252542 0.062825 0.289705 0.150968
N1    N     N_R   0.433240 0.222190 0.444680 -0.102614
C28   C     C_R   0.667921 0.804169 0.615367 -0.042082
C29   C     C_R   0.711246 0.913218 0.635162 0.436819
C30   C     C_R   0.647309 0.991737 0.588895 -0.235628
C31   C     C_R   0.544318 0.964351 0.523201 -0.071883
C32   C     C_R   0.508755 0.854131 0.503919 0.208793
C33   C     C_R   0.478652 0.042545 0.473090 0.018930
C34   C     C_R   0.387118 0.010385 0.398227 0.172922
C35   C     C_R   0.360379 0.902715 0.375653 -0.290899
C36   C     C_R   0.418521 0.825633 0.429266 -0.135450
C37   C     C_R   0.498571 0.151648 0.494962 -0.006192
C38   C     C_R   0.347186 0.192830 0.371952 0.037130
N2    N     N_R   0.566070 0.776970 0.554790 -0.119289
H17   H     H_    0.563397 0.182701 0.552202 0.104264
H18   H     H_    0.714868 0.739831 0.646284 0.171179
H19   H     H_    0.684425 0.074635 0.601881 0.132958
H20   H     H_    0.390606 0.744064 0.410857 0.215855
O9    O     O_3   0.144060 0.700071 0.511944 -0.623244
C39   C     C_3   0.148587 0.788553 0.572404 0.146649
H21   H     H_    0.249673 0.826497 0.582615 0.213551
H22   H     H_    0.106142 0.765492 0.649772 0.156443
C40   C     C_3   0.081511 0.874983 0.518884 -0.859569
H23   H     H_    0.976458 0.847772 0.522056 0.235648
H24   H     H_    0.105437 0.951288 0.556752 0.243405
H25   H     H_    0.111864 0.892438 0.438220 0.273405
O10   O     O_3   0.263251 0.752426 0.070307 -0.619791
C41   C     C_3   0.339698 0.847214 0.020561 0.094016
H26   H     H_    0.281640 0.880593 0.959783 0.176638
H27   H     H_    0.427231 0.832454 0.982484 0.149636
C42   C     C_3   0.377030 0.933389 0.094400 -0.847698
H28   H     H_    0.441568 0.905748 0.153135 0.252598
H29   H     H_    0.427693 0.010146 0.052826 0.215899
H30   H     H_    0.290389 0.949666 0.131455 0.260526
O11   O     O_3   0.859976 0.365950 0.667220 -0.528438
C43   C     C_3   0.813634 0.254715 0.696987 0.142554
H31   H     H_    0.869950 0.200380 0.663123 0.167070
H32   H     H_    0.712360 0.234517 0.674690 0.103469
C44   C     C_3   0.820286 0.234387 0.811748 -0.667630
H33   H     H_    0.768691 0.289631 0.848490 0.259636
H34   H     H_    0.775882 0.148670 0.836407 0.188811
H35   H     H_    0.921347 0.249120 0.836130 0.286702
N3    N     N_R   0.413504 0.651244 0.771528 0.216236
O12   O     O_R   0.524706 0.709326 0.788168 -0.435067
O13   O     O_R   0.336446 0.694022 0.710925 -0.457521
O14   O     O_3   0.817884 0.950496 0.692747 -0.632381
C45   C     C_3   0.861601 0.867405 0.754742 0.108932
H36   H     H_    0.903687 0.814144 0.707574 0.151676
H37   H     H_    0.783008 0.818426 0.803820 0.197851
C46   C     C_3   0.966214 0.919144 0.823043 -0.762369
H38   H     H_    0.928426 0.973721 0.871495 0.255390
H39   H     H_    0.001431 0.854656 0.872451 0.228507
H40   H     H_    0.047149 0.967315 0.776213 0.260312
N4    N     N_R   0.105177 0.354348 0.655757 0.219740
O15   O     O_R   0.152712 0.265828 0.665969 -0.406752
O16   O     O_R   0.107838 0.411856 0.732603 -0.359541
N5    N     N_R   0.858516 0.449269 0.331165 0.234357
O17   O     O_R   0.863573 0.346203 0.335485 -0.412116
O18   O     O_R   0.795310 0.491248 0.258259 -0.395783
N6    N     N_R   0.904812 0.574625 0.687144 0.239709
O19   O     O_R   0.784271 0.561026 0.710449 -0.378687
O20   O     O_R   0.986351 0.590563 0.760239 -0.376228

loop_
_geom_bond_atom_site_label_1
_geom_bond_atom_site_label_2
_geom_bond_distance
_ccdc_geom_bond_type
O11   C43   1.410597 S    
Zn2   N2    2.031732 S    
C22   C23   1.393265 A    
N3    O12   1.300101 A    
C29   O14   1.397083 S    
C28   C29   1.409829 A    
C8    N6    1.484698 S    
N6    O20   1.301760 A    
C28   H18   1.075851 S    
N1    C38   1.354898 A    
Zn1   O7    2.007222 S    
C12   H5    1.105085 S    
C35   C36   1.383653 A    
N1    C37   1.351725 A    
C17   C18   1.411394 A    
C10   C12   1.579092 S    
C19   C23   1.441083 A    
C39   C40   1.526685 S    
C32   N2    1.363557 A    
O4    C2    1.294400 A    
O7    C4    1.300547 A    
N4    O15   1.301316 A    
C31   C33   1.422422 A    
C5    H1    1.115638 S    
C2    C9    1.460875 S    
C29   C30   1.394544 A    
C46   H40   1.111501 S    
C5    C6    1.552513 S    
C15   C16   1.383393 A    
H14   C38   1.081950 S    
C4    C10   1.463450 S    
O5    C3    1.296908 A    
C19   C26   1.437930 A    
C5    C9    1.562603 S    
C45   H36   1.111537 S    
C16   H13   1.082337 S    
H9    C22   1.084013 S    
C43   C44   1.520555 S    
C17   H12   1.082013 S    
C8    C9    1.578111 S    
C12   O9    1.426467 S    
C13   C25   1.394748 A    
C34   C35   1.389524 A    
C41   C42   1.523752 S    
N6    O19   1.300165 A    
C24   H10   1.082909 S    
C8    C12   1.553206 S    
C11   H7    1.114127 S    
C27   H16   1.083752 S    
H8    C25   1.079113 S    
C23   N3    1.418965 S    
C14   C24   1.387086 A    
C37   H17   1.073999 S    
C10   C11   1.540453 S    
C39   H22   1.113186 S    
C20   C21   1.411827 A    
C41   H26   1.110769 S    
C20   C24   1.387057 A    
C7    H6    1.116130 S    
O3    Zn1   2.017860 S    
C31   C32   1.412320 A    
C1    C26   1.465665 S    
C7    N5    1.471266 S    
C33   C34   1.419702 A    
O1    C1    1.315437 A    
C16   C17   1.383443 A    
C40   H23   1.108340 S    
C3    C14   1.442136 S    
C18   C19   1.416403 A    
C44   H34   1.110655 S    
C42   H28   1.109406 S    
C36   H20   1.062985 S    
Zn2   O8    2.017860 S    
C45   C46   1.520805 S    
C6    H2    1.116146 S    
C13   C21   1.412240 A    
C15   C26   1.407068 A    
C46   H39   1.111382 S    
C40   H24   1.110633 S    
C13   O10   1.384348 S    
C41   H27   1.117820 S    
C21   C22   1.386681 A    
C45   H37   1.114014 S    
C43   H32   1.107183 S    
C27   C38   1.386365 A    
C8    H4    1.107687 S    
O3    C2    1.298859 A    
C44   H33   1.110165 S    
C28   N2    1.357373 A    
C5    O11   1.421829 S    
Zn1   O5    1.974425 S    
C42   H29   1.109802 S    
O1    Zn1   1.987868 S    
C14   C25   1.398454 A    
O2    Zn2   1.974425 S    
C7    C9    1.578188 S    
C39   H21   1.107082 S    
O6    C3    1.301212 A    
O4    Zn2   2.007223 S    
N3    O13   1.297459 A    
C32   C36   1.399328 A    
C33   C37   1.404465 A    
N5    O18   1.301049 A    
C6    C10   1.575968 S    
O8    C4    1.291621 A    
O9    C39   1.424055 S    
C18   C20   1.406214 A    
H15   C35   1.083785 S    
N5    O17   1.301485 A    
C44   H35   1.110233 S    
C30   C31   1.408971 A    
N4    O16   1.300324 A    
O2    C1    1.296130 A    
C46   H38   1.111435 S    
H3    C11   1.113474 S    
C40   H25   1.107964 S    
O10   C41   1.417505 S    
C42   H30   1.110330 S    
C43   H31   1.115164 S    
Zn2   O6    1.987865 S    
O14   C45   1.412382 S    
C7    C11   1.535430 S    
C27   C34   1.398767 A    
C15   H11   1.083143 S    
Zn1   N1    2.044032 S    
C30   H19   1.071901 S    
C6    N4    1.473474 S    
