data_mof_unit_47025.cif
_audit_creation_date              2012-12-10T16:54:29-0500
_audit_creation_method            fapswitch 2.2
_symmetry_space_group_name_H-M    P1
_symmetry_Int_Tables_number       1
_space_group_crystal_system       triclinic
_cell_length_a                    15.093745
_cell_length_b                    10.924165
_cell_length_c                    9.71171
_cell_angle_alpha                 89.288778
_cell_angle_beta                  89.599609
_cell_angle_gamma                 90.977992
_cell_volume                      1600.93232016

loop_
_atom_site_label
_atom_site_type_symbol
_atom_type_description
_atom_site_fract_x
_atom_site_fract_y
_atom_site_fract_z
_atom_type_partial_charge
C1    C     C_R   0.500945 0.265379 0.500541 0.874550
C2    C     C_R   0.909379 0.544124 0.375729 -0.018699
C3    C     C_R   0.950584 0.446703 0.739192 -0.161044
C4    C     C_R   0.042920 0.446335 0.741164 -0.196106
C5    C     C_R   0.091438 0.473960 0.620943 0.093547
C6    C     C_R   0.046783 0.502321 0.497636 0.094933
C7    C     C_R   0.095116 0.526613 0.375426 0.112590
C8    C     C_R   0.050688 0.553168 0.253260 -0.219872
C9    C     C_R   0.958852 0.561470 0.253166 -0.105274
C10   C     C_R   0.183892 0.474219 0.621846 -0.203144
C11   C     C_R   0.231915 0.499089 0.500198 -0.074099
C12   C     C_R   0.328711 0.499432 0.500363 0.828583
C13   C     C_R   0.187225 0.523673 0.377140 -0.231042
C14   C     C_2   0.499537 0.934356 0.386147 -0.134656
C15   C     C_2   0.493277 0.866332 0.501402 -0.285510
C16   C     C_2   0.495624 0.068258 0.387453 -0.149938
C17   C     C_2   0.505064 0.133309 0.502900 -0.267597
C18   C     C_2   0.450346 0.427512 0.928611 0.490101
C19   C     C_2   0.437141 0.453366 0.078571 -0.150434
C20   C     C_R   0.498458 0.734525 0.499555 0.875341
C21   C     C_R   0.671333 0.507049 0.499166 0.882355
C22   C     C_R   0.816999 0.562071 0.380809 0.384874
C23   C     C_R   0.768610 0.516838 0.497450 -0.185467
C24   C     C_R   0.813808 0.477813 0.615431 -0.278909
C25   C     C_R   0.905849 0.478006 0.617962 0.109928
C26   C     C_R   0.953835 0.507540 0.496854 0.008986
Cu1   Cu    Cu3+1 0.500020 0.500020 0.638630 1.036485
Cu2   Cu    Cu3+1 0.499980 0.499980 0.361370 1.013129
H1    H     H_    0.482311 0.905989 0.601474 0.158745
H2    H     H_    0.486089 0.114142 0.288894 0.199304
H3    H     H_    0.518128 0.091255 0.601881 0.186005
H4    H     H_    0.522202 0.578686 0.889778 0.170809
H5    H     H_    0.377391 0.419470 0.129620 0.212845
H6    H     H_    0.558054 0.520339 0.104219 0.237574
H7    H     H_    0.777203 0.447412 0.706441 0.190795
H8    H     H_    0.914153 0.423880 0.832858 0.158460
H9    H     H_    0.076335 0.423726 0.836329 0.155069
H10   H     H_    0.218204 0.454657 0.717026 0.191209
H11   H     H_    0.224087 0.542767 0.282820 0.159026
H12   H     H_    0.087020 0.568439 0.157736 0.149550
H13   H     H_    0.927225 0.578642 0.155494 0.206107
H14   H     H_    0.506431 0.891195 0.286570 0.171762
N1    N     N_2   0.499020 0.498660 0.846910 -0.337539
N2    N     N_2   0.499000 0.498630 0.153040 -0.304181
O1    O     O_R   0.500020 0.321960 0.617040 -0.495096
O2    O     O_R   0.499980 0.321920 0.382900 -0.579584
O3    O     O_R   0.370270 0.499990 0.617090 -0.554467
O4    O     O_R   0.370240 0.499950 0.382940 -0.600069
O5    O     O_R   0.500020 0.678080 0.617100 -0.593583
O6    O     O_R   0.499980 0.678040 0.382960 -0.561059
O7    O     O_R   0.629760 0.500050 0.617060 -0.589185
O8    O     O_R   0.629730 0.500010 0.382910 -0.516913
S1    S     S_3+6 0.766193 0.657810 0.254302 -0.003701
O9    O     O_2   0.831502 0.751676 0.198466 -0.287622
O10   O     O_2   0.733292 0.579826 0.138317 -0.322823
O11   O     O_3   0.681261 0.733664 0.323715 -0.531388
H15   H     H_    0.655756 0.780556 0.246028 0.370392
S2    S     S_3+6 0.404462 0.283940 0.878825 0.010755
O12   O     O_2   0.347205 0.294545 0.753811 -0.298635
O13   O     O_2   0.478762 0.197493 0.851387 -0.301287
O14   O     O_3   0.341953 0.224305 0.008084 -0.572372
H16   H     H_    0.324879 0.141061 0.977509 0.377489

loop_
_geom_bond_atom_site_label_1
_geom_bond_atom_site_label_2
_ccdc_geom_bond_type
C2    C22   A    
C21   O7    A    
C11   C12   S    
C16   H2    S    
C6    C7    A    
C22   S1    S    
C11   C13   A    
C21   O8    A    
C9    H13   S    
C12   O4    A    
C10   H10   S    
C14   H14   S    
C1    O1    A    
Cu1   O1    S    
S2    O14   S    
S1    O10   D    
C25   C26   A    
C5    C10   A    
C2    C26   A    
C6    C26   A    
S1    O9    D    
C19   N2    D    
Cu2   O8    S    
Cu2   O2    S    
C20   O5    A    
Cu2   O6    S    
C3    H8    S    
C12   O3    A    
C5    C6    A    
H4    N1    S    
Cu2   N2    S    
C15   H1    S    
C4    H9    S    
C21   C23   S    
O14   H16   S    
C17   H3    S    
C14   C16   S    
C1    O2    A    
C13   H11   S    
C24   H7    S    
C7    C8    A    
C10   C11   A    
C23   C24   A    
S2    O13   D    
C3    C4    A    
Cu1   N1    S    
C7    C13   A    
C3    C25   A    
H6    N2    S    
C24   C25   A    
C15   C20   S    
C18   C19   S    
C19   H5    S    
S1    O11   S    
Cu1   O3    S    
Cu1   Cu2   S    
O11   H15   S    
C14   C15   D    
C8    C9    A    
C20   O6    A    
C8    H12   S    
S2    O12   D    
C18   N1    D    
C2    C9    A    
C1    C17   S    
C18   S2    S    
C22   C23   A    
Cu2   O4    S    
Cu1   O5    S    
C16   C17   D    
Cu1   O7    S    
C4    C5    A    
