data_mof_unit_45965.cif
_audit_creation_date              2012-12-10T19:08:05-0500
_audit_creation_method            fapswitch 2.2
_symmetry_space_group_name_H-M    P1
_symmetry_Int_Tables_number       1
_space_group_crystal_system       triclinic
_cell_length_a                    9.072913
_cell_length_b                    10.864196
_cell_length_c                    9.564191
_cell_angle_alpha                 90.246857
_cell_angle_beta                  90.00096
_cell_angle_gamma                 90.062372
_cell_volume                      942.732090652

loop_
_atom_site_label
_atom_site_type_symbol
_atom_type_description
_atom_site_fract_x
_atom_site_fract_y
_atom_site_fract_z
_atom_type_partial_charge
C1    C     C_R   0.499653 0.262792 0.499580 0.801090
C2    C     C_R   0.503772 0.934835 0.371099 -0.219418
C3    C     C_R   0.502432 0.870025 0.498856 -0.117161
C4    C     C_R   0.501302 0.939001 0.621421 0.111227
C5    C     C_3   0.495944 0.932471 0.777290 0.282325
C6    C     C_3   0.492187 0.074650 0.775150 -0.532112
C7    C     C_R   0.617418 0.546236 0.073874 0.244410
C8    C     C_R   0.380010 0.462367 0.073993 -0.087569
C9    C     C_R   0.380022 0.462331 0.925574 -0.093231
C10   C     C_R   0.617451 0.546144 0.926479 0.296141
C11   C     C_3   0.771497 0.498418 0.920881 -0.498980
C12   C     C_R   0.220734 0.499977 0.499978 0.843441
C13   C     C_3   0.771573 0.498777 0.079139 -0.505198
C14   C     C_R   0.500771 0.737292 0.500132 0.807869
C15   C     C_R   0.779252 0.500029 0.500024 0.852041
C16   C     C_1   0.065550 0.500011 0.499989 -0.196178
C17   C     C_1   0.934408 0.500032 0.500019 -0.198479
C18   C     C_R   0.498429 0.062988 0.620339 0.055796
C19   C     C_R   0.500160 0.130215 0.497594 -0.076747
C20   C     C_R   0.503290 0.063941 0.370403 -0.219693
Cu1   Cu    Cu3+1 0.499990 0.499980 0.640670 0.952180
Cu2   Cu    Cu3+1 0.500010 0.500020 0.359330 0.934498
H1    H     H_    0.504694 0.111004 0.270806 0.161357
H2    H     H_    0.849397 0.566275 0.875246 0.204108
H3    H     H_    0.778707 0.404893 0.124547 0.217284
H4    H     H_    0.849272 0.567099 0.124913 0.201077
H5    H     H_    0.504337 0.886447 0.271997 0.156894
H6    H     H_    0.393733 0.886657 0.815797 0.065259
H7    H     H_    0.385757 0.113769 0.811740 0.163295
H8    H     H_    0.592556 0.119640 0.818445 0.219500
H9    H     H_    0.284155 0.428314 0.128677 0.148379
H10   H     H_    0.284193 0.428225 0.870553 0.148428
H11   H     H_    0.778278 0.404300 0.875103 0.212341
N1    N     N_R   0.500920 0.500930 0.147930 -0.187487
N2    N     N_R   0.500930 0.500890 0.852020 -0.190030
O1    O     O_R   0.500000 0.319640 0.618810 -0.577752
O2    O     O_R   0.500020 0.319680 0.381230 -0.588926
O3    O     O_R   0.288380 0.499980 0.618770 -0.589769
O4    O     O_R   0.288400 0.500020 0.381190 -0.586684
O5    O     O_R   0.499980 0.680320 0.618770 -0.563453
O6    O     O_R   0.500000 0.680360 0.381190 -0.589431
O7    O     O_R   0.711600 0.499980 0.618810 -0.577744
O8    O     O_R   0.711620 0.500020 0.381230 -0.582030
O9    O     O_3   0.629510 0.886395 0.831576 -0.542848
C21   C     C_3   0.618416 0.878954 0.978530 0.079246
H12   H     H_    0.543793 0.802025 0.008011 0.131166
H13   H     H_    0.576085 0.966172 0.025386 0.131334
C22   C     C_3   0.770370 0.855142 0.039759 -0.792656
H14   H     H_    0.843539 0.935144 0.019642 0.243333
H15   H     H_    0.761648 0.840949 0.154379 0.203943
H16   H     H_    0.819644 0.771944 0.991233 0.245616

loop_
_geom_bond_atom_site_label_1
_geom_bond_atom_site_label_2
_ccdc_geom_bond_type
C7    C10   A    
C10   N2    A    
Cu1   N2    S    
C5    H6    S    
C19   C20   A    
Cu2   O8    S    
C20   H1    S    
C1    O2    A    
C4    C18   A    
C12   O4    A    
C22   H15   S    
C2    C3    A    
C15   O8    A    
Cu1   O1    S    
C8    N1    A    
Cu1   Cu2   S    
C11   C13   S    
C13   H3    S    
C2    H5    S    
C3    C14   S    
C22   H16   S    
C14   O6    A    
Cu2   N1    S    
Cu2   O4    S    
C22   H14   S    
C6    H8    S    
C5    O9    S    
C21   H13   S    
C12   O3    A    
C5    C6    S    
C6    C18   S    
C7    N1    A    
C13   H4    S    
C1    C19   S    
Cu2   O6    S    
C16   C17   T    
C10   C11   S    
Cu1   O3    S    
C2    C20   A    
C3    C4    A    
C11   H2    S    
C11   H11   S    
C6    H7    S    
O9    C21   S    
C15   O7    A    
C15   C17   S    
C18   C19   A    
C21   C22   S    
C9    N2    A    
C8    C9    A    
C7    C13   S    
C9    H10   S    
C21   H12   S    
Cu2   O2    S    
C14   O5    A    
Cu1   O7    S    
C8    H9    S    
C12   C16   S    
C1    O1    A    
C4    C5    S    
Cu1   O5    S    
