data_mof_unit_54669.cif
_audit_creation_date              2013-03-05T15:59:00-0500
_audit_creation_method            fapswitch 2.2
_symmetry_space_group_name_H-M    P1
_symmetry_Int_Tables_number       1
_space_group_crystal_system       triclinic
_cell_length_a                    7.346314
_cell_length_b                    21.171138
_cell_length_c                    23.573039
_cell_angle_alpha                 90.000153
_cell_angle_beta                  89.991819
_cell_angle_gamma                 89.989964
_cell_volume                      3666.31059534

loop_
_atom_site_label
_atom_site_type_symbol
_atom_site_description
_atom_site_fract_x
_atom_site_fract_y
_atom_site_fract_z
_atom_type_partial_charge
O1    O     O_R   0.365470 0.806380 0.442440 -0.593952
O2    O     O_R   0.134530 0.193620 0.942440 -0.593777
O3    O     O_R   0.865470 0.693620 0.557560 -0.593876
O4    O     O_R   0.634530 0.306380 0.057560 -0.593192
O5    O     O_R   0.035730 0.813790 0.557160 -0.572333
O6    O     O_R   0.464270 0.186210 0.057160 -0.572785
O7    O     O_R   0.535730 0.686210 0.442840 -0.572309
O8    O     O_R   0.964270 0.313790 0.942840 -0.572445
C1    C     C_R   0.203338 0.828453 0.575705 0.945822
C2    C     C_R   0.296637 0.171488 0.075661 0.946572
C3    C     C_R   0.703369 0.671590 0.424267 0.945619
C4    C     C_R   0.796648 0.328450 0.924295 0.946014
O9    O     O_R   0.035760 0.813790 0.442850 -0.588827
O10   O     O_R   0.464240 0.186210 0.942850 -0.588776
O11   O     O_R   0.535760 0.686210 0.557150 -0.588793
O12   O     O_R   0.964240 0.313790 0.057150 -0.588601
O13   O     O_R   0.865450 0.693620 0.442430 -0.578612
O14   O     O_R   0.634550 0.306380 0.942430 -0.578573
O15   O     O_R   0.365450 0.806380 0.557570 -0.578573
O16   O     O_R   0.134550 0.193620 0.057570 -0.578990
C5    C     C_R   0.203322 0.828675 0.424450 0.973533
C6    C     C_R   0.296684 0.171298 0.924467 0.973558
C7    C     C_R   0.703331 0.671298 0.575532 0.973354
C8    C     C_R   0.796594 0.328702 0.075527 0.971970
O17   O     O_3   0.198970 0.710570 0.500000 -0.290287
O18   O     O_3   0.301030 0.289430 0.000000 -0.290135
O19   O     O_3   0.698970 0.789430 0.500000 -0.290295
O20   O     O_3   0.801030 0.210570 0.000000 -0.290468
V1    V     V_3+5 0.924120 0.757310 0.500000 1.172041
V2    V     V_3+5 0.575880 0.242690 0.000000 1.171620
V3    V     V_3+5 0.424120 0.742690 0.500000 1.172016
V4    V     V_3+5 0.075880 0.257310 0.000000 1.171369
C9    C     C_3   0.935978 0.554709 0.739524 0.789643
C10   C     C_3   0.561760 0.445991 0.239177 0.788995
C11   C     C_3   0.435930 0.945026 0.260303 0.789335
C12   C     C_3   0.064048 0.054723 0.760483 0.789753
C13   C     C_3   0.590495 0.546398 0.749729 -0.414100
C14   C     C_3   0.907674 0.453325 0.249688 -0.415261
C15   C     C_3   0.090446 0.953359 0.250113 -0.414457
C16   C     C_3   0.409531 0.046393 0.750260 -0.414130
C17   C     C_3   0.598883 0.494237 0.795306 -0.309780
C18   C     C_3   0.900097 0.505630 0.295158 -0.306146
C19   C     C_3   0.098829 0.005504 0.204519 -0.309290
C20   C     C_3   0.401150 0.994229 0.704684 -0.309760
H1    H     H_    0.457564 0.542817 0.728080 0.236591
H2    H     H_    0.041205 0.456140 0.228164 0.234578
H3    H     H_    0.957498 0.956952 0.271763 0.236771
H4    H     H_    0.542478 0.042812 0.771903 0.236554
H5    H     H_    0.593462 0.593558 0.770490 0.221286
H6    H     H_    0.902989 0.406256 0.270585 0.218979
H7    H     H_    0.093454 0.906190 0.229365 0.221264
H8    H     H_    0.406514 0.093552 0.729497 0.221169
H9    H     H_    0.574780 0.514731 0.837981 0.224382
H10   H     H_    0.923689 0.485189 0.337880 0.222850
H11   H     H_    0.074752 0.985001 0.161850 0.224376
H12   H     H_    0.425239 0.014717 0.662007 0.224279
H13   H     H_    0.485113 0.460330 0.788441 0.200760
H14   H     H_    0.014561 0.539239 0.288249 0.201473
H15   H     H_    0.985044 0.039422 0.211382 0.200319
H16   H     H_    0.514930 0.960312 0.711548 0.200787
C21   C     C_1   0.792635 0.374248 0.878489 -0.230990
C22   C     C_1   0.707431 0.625915 0.378369 -0.229985
C23   C     C_1   0.292600 0.125574 0.121381 -0.234754
C24   C     C_1   0.207340 0.874254 0.621508 -0.230804
C25   C     C_3   0.750263 0.540450 0.706627 -0.017921
C26   C     C_3   0.748396 0.459708 0.206441 -0.019725
C27   C     C_3   0.250196 0.959314 0.293207 -0.017361
C28   C     C_3   0.249787 0.040453 0.793370 -0.018152
C29   C     C_3   0.944962 0.506908 0.792365 0.032115
C30   C     C_3   0.553505 0.493916 0.291936 0.054299
C31   C     C_3   0.444909 0.992805 0.207444 0.032157
C32   C     C_3   0.055072 0.006932 0.707636 0.032501
C33   C     C_3   0.782376 0.458577 0.792168 0.092302
C34   C     C_3   0.717236 0.541739 0.291927 0.083135
C35   C     C_3   0.282310 0.041152 0.207641 0.096636
C36   C     C_3   0.217664 0.958585 0.707828 0.092031
C37   C     C_3   0.787514 0.423311 0.734524 -0.561689
C38   C     C_3   0.713076 0.577032 0.234345 -0.561610
C39   C     C_3   0.287416 0.076423 0.265283 -0.568995
C40   C     C_3   0.212559 0.923319 0.765471 -0.561226
C41   C     C_3   0.759098 0.470464 0.684299 0.215175
C42   C     C_3   0.741197 0.529809 0.184163 0.218150
C43   C     C_3   0.258992 0.029299 0.315518 0.217961
C44   C     C_3   0.241003 0.970466 0.815696 0.214777
C45   C     C_1   0.791468 0.412272 0.839839 0.083708
C46   C     C_1   0.708539 0.587992 0.339642 0.082419
C47   C     C_1   0.291414 0.087477 0.159979 0.079961
C48   C     C_1   0.208539 0.912280 0.660156 0.083742
C49   C     C_1   0.718948 0.586453 0.659260 0.020993
C50   C     C_1   0.779962 0.413594 0.159190 0.012429
C51   C     C_1   0.218889 0.913364 0.340607 0.020652
C52   C     C_1   0.281095 0.086454 0.840737 0.020930
C53   C     C_1   0.708495 0.624879 0.620873 -0.286375
C54   C     C_1   0.790982 0.375134 0.120848 -0.289456
C55   C     C_1   0.208458 0.875010 0.379048 -0.286134
C56   C     C_1   0.291542 0.124879 0.879124 -0.286239
H17   H     H_    0.879590 0.465909 0.656059 0.122150
H18   H     H_    0.621151 0.534765 0.155839 0.120335
H19   H     H_    0.379471 0.033853 0.343751 0.121259
H20   H     H_    0.120540 0.965917 0.843946 0.122579
H21   H     H_    0.921165 0.399124 0.729573 0.184037
H22   H     H_    0.579834 0.601470 0.229304 0.183823
H23   H     H_    0.421066 0.100594 0.270228 0.181502
H24   H     H_    0.078910 0.899147 0.770429 0.184244
H25   H     H_    0.071050 0.478131 0.787108 0.111063
H26   H     H_    0.428023 0.522996 0.286643 0.104502
H27   H     H_    0.570990 0.021571 0.212681 0.110703
H28   H     H_    0.928990 0.978166 0.712889 0.111041
H29   H     H_    0.683138 0.385230 0.733975 0.231971
H30   H     H_    0.817940 0.614952 0.233903 0.232934
H31   H     H_    0.183011 0.114505 0.265835 0.229526
H32   H     H_    0.316937 0.885226 0.766015 0.232056
N1    N     N_R   0.959791 0.538582 0.847684 0.235271
O21   O     O_R   0.100457 0.527695 0.879783 -0.388918
O22   O     O_R   0.834377 0.577131 0.865649 -0.362798
N2    N     N_R   0.537807 0.462097 0.347232 0.246962
O23   O     O_R   0.398706 0.473954 0.379727 -0.385436
O24   O     O_R   0.662578 0.423321 0.365167 -0.363021
N3    N     N_R   0.459746 0.961107 0.152134 0.235326
O25   O     O_R   0.600422 0.971962 0.120022 -0.388373
O26   O     O_R   0.334345 0.922561 0.134192 -0.362654
N4    N     N_R   0.040234 0.038616 0.652321 0.235212
O27   O     O_R   0.899553 0.027755 0.620225 -0.389389
O28   O     O_R   0.165638 0.077156 0.634359 -0.364007
O29   O     O_3   0.092419 0.542102 0.704251 -0.690391
C57   C     C_3   0.099607 0.579092 0.653978 0.221487
H33   H     H_    0.041806 0.626993 0.659553 0.143373
H34   H     H_    0.030051 0.553611 0.618987 0.137941
C58   C     C_3   0.291934 0.589682 0.634573 -0.832429
H35   H     H_    0.289038 0.613870 0.592873 0.243273
H36   H     H_    0.362596 0.620489 0.665565 0.228856
H37   H     H_    0.362676 0.544079 0.629140 0.310981
O30   O     O_3   0.404628 0.458395 0.203990 -0.692865
C59   C     C_3   0.400154 0.422892 0.152731 0.196546
H38   H     H_    0.456084 0.374530 0.157710 0.129828
H39   H     H_    0.472690 0.449010 0.118738 0.144170
C60   C     C_3   0.208868 0.413483 0.131663 -0.813123
H40   H     H_    0.139615 0.459356 0.126690 0.313132
H41   H     H_    0.213717 0.390284 0.089496 0.241894
H42   H     H_    0.135078 0.382215 0.161463 0.217954
O31   O     O_3   0.592364 0.957635 0.295559 -0.690404
C61   C     C_3   0.599542 0.920672 0.345848 0.221334
H43   H     H_    0.541753 0.872772 0.340297 0.143471
H44   H     H_    0.529965 0.946178 0.380831 0.137915
C62   C     C_3   0.791857 0.910084 0.365255 -0.832531
H45   H     H_    0.862540 0.955689 0.370691 0.311059
H46   H     H_    0.788923 0.885897 0.406954 0.243318
H47   H     H_    0.862599 0.879278 0.334267 0.228877
O32   O     O_3   0.907632 0.042111 0.795758 -0.690398
C63   C     C_3   0.900430 0.079086 0.846039 0.221525
H48   H     H_    0.958171 0.126990 0.840473 0.143377
H49   H     H_    0.970040 0.053600 0.881022 0.138189
C64   C     C_3   0.708095 0.089657 0.865452 -0.831828
H50   H     H_    0.637431 0.044047 0.870881 0.310986
H51   H     H_    0.710962 0.113842 0.907153 0.243284
H52   H     H_    0.637375 0.120457 0.834462 0.228725
O33   O     O_3   0.932936 0.619442 0.757668 -0.647277
C65   C     C_3   0.101573 0.642334 0.779251 0.380600
H53   H     H_    0.221226 0.612047 0.769870 0.102104
H54   H     H_    0.092153 0.646554 0.826027 0.184608
C66   C     C_3   0.137283 0.708726 0.756802 -0.951051
H55   H     H_    0.019709 0.739918 0.766486 0.282421
H56   H     H_    0.260720 0.728494 0.777405 0.239427
H57   H     H_    0.160002 0.708213 0.710337 0.238695
O34   O     O_3   0.563252 0.381769 0.258498 -0.643671
C67   C     C_3   0.388488 0.358900 0.274415 0.313642
H58   H     H_    0.316094 0.339996 0.236874 0.083103
H59   H     H_    0.300959 0.395662 0.294220 0.129319
C68   C     C_3   0.409947 0.304222 0.315794 -0.741187
H60   H     H_    0.475580 0.320435 0.355568 0.301161
H61   H     H_    0.274046 0.284435 0.326299 0.207596
H62   H     H_    0.494450 0.266428 0.296398 0.238227
O35   O     O_3   0.432921 0.880284 0.242186 -0.647388
C69   C     C_3   0.601551 0.857382 0.220575 0.380911
H63   H     H_    0.721150 0.887712 0.229861 0.102152
H64   H     H_    0.591980 0.853075 0.173810 0.184611
C70   C     C_3   0.637506 0.791036 0.243102 -0.951463
H65   H     H_    0.519847 0.759835 0.233611 0.282411
H66   H     H_    0.760717 0.771205 0.222396 0.239538
H67   H     H_    0.660739 0.791651 0.289534 0.238693
O36   O     O_3   0.067021 0.119460 0.742352 -0.647277
C71   C     C_3   0.898378 0.142346 0.720753 0.380602
H68   H     H_    0.778796 0.112013 0.730060 0.102206
H69   H     H_    0.907937 0.146638 0.673986 0.184061
C72   C     C_3   0.862398 0.208697 0.743266 -0.952611
H70   H     H_    0.980028 0.239903 0.733743 0.282324
H71   H     H_    0.739151 0.228507 0.722577 0.239287
H72   H     H_    0.839214 0.208098 0.789704 0.238993
N5    N     N_R   0.598297 0.453251 0.650663 0.248836
O37   O     O_R   0.613130 0.446748 0.595971 -0.351849
O38   O     O_R   0.444801 0.438747 0.675023 -0.391669
N6    N     N_R   0.902669 0.546770 0.150760 0.248631
O39   O     O_R   0.888502 0.553609 0.096084 -0.350945
O40   O     O_R   0.055699 0.561300 0.175386 -0.391468
N7    N     N_R   0.098171 0.046537 0.349158 0.248081
O41   O     O_R   0.112998 0.053084 0.403844 -0.352558
O42   O     O_R   0.944656 0.061020 0.324803 -0.393825
N8    N     N_R   0.401842 0.953241 0.849317 0.249031
O43   O     O_R   0.387061 0.946734 0.904009 -0.349084
O44   O     O_R   0.555328 0.938734 0.824942 -0.391138

loop_
_geom_bond_atom_site_label_1
_geom_bond_atom_site_label_2
_geom_bond_distance
_ccdc_geom_bond_type
O17   V3    1.788464 S    
C15   H7    1.112150 S    
O1    C5    1.349633 A    
O34   C67   1.422536 S    
C31   H27   1.115468 S    
O19   V1    1.788244 S    
C1    C24   1.451528 S    
O13   V1    1.961126 S    
C68   H60   1.108848 S    
O3    C7    1.349682 A    
C2    C23   1.451687 S    
O1    V3    1.960832 S    
C32   C36   1.572885 S    
C3    C22   1.451391 S    
O15   V3    1.960936 S    
C18   H14   1.113591 S    
C59   C60   1.503779 S    
C66   H55   1.110836 S    
C9    C25   1.598223 S    
C26   C50   1.499128 S    
O35   C69   1.424389 S    
O7    C3    1.343084 A    
C60   H41   1.109275 S    
C29   N1    1.470416 S    
C57   H33   1.107171 S    
C40   H24   1.113404 S    
O9    V1    1.979249 S    
C14   C18   1.542133 S    
C62   H45   1.103845 S    
O4    C8    1.349271 A    
C12   O32   1.443254 S    
C72   H71   1.110645 S    
C38   H22   1.113462 S    
C52   C56   1.219243 T    
N2    O23   1.301434 A    
O2    V4    1.960742 S    
O3    V1    1.960849 S    
C38   C42   1.562511 S    
C69   H63   1.110154 S    
C65   C66   1.524688 S    
C62   H46   1.108559 S    
C71   H68   1.110145 S    
C37   H21   1.113400 S    
C1    O15   1.348729 A    
O33   C65   1.424394 S    
C14   C26   1.557884 S    
C2    O16   1.348784 A    
C70   H66   1.110635 S    
C63   C64   1.501878 S    
C13   C25   1.557366 S    
C30   C34   1.572352 S    
C29   C33   1.572909 S    
N8    O43   1.301130 A    
O14   V2    1.961046 S    
C37   C41   1.562650 S    
C64   H51   1.108577 S    
C10   O34   1.433951 S    
C36   C48   1.492781 S    
C9    C29   1.606262 S    
C58   H37   1.103830 S    
C32   N4    1.470428 S    
O11   C7    1.342710 A    
C11   C31   1.606311 S    
O12   C8    1.343069 A    
C43   H19   1.111661 S    
C49   C53   1.219236 T    
C68   H61   1.110693 S    
C61   C62   1.501875 S    
C39   H23   1.113396 S    
C67   H58   1.107408 S    
C42   N6    1.468324 S    
O10   V2    1.979404 S    
C9    O29   1.443281 S    
C10   C26   1.599860 S    
C66   H56   1.110677 S    
C9    O33   1.435823 S    
C50   C54   1.219192 T    
O5    V1    1.979471 S    
N3    O26   1.301499 A    
C19   C35   1.546675 S    
C60   H42   1.107055 S    
C18   C34   1.547421 S    
O7    V3    1.979140 S    
C42   H18   1.111161 S    
C40   C44   1.562650 S    
C28   C44   1.573727 S    
C32   H28   1.115474 S    
C67   H59   1.112181 S    
C30   H26   1.115443 S    
C43   N7    1.468821 S    
C29   H25   1.115468 S    
O18   V4    1.788464 S    
C72   H72   1.107899 S    
C15   C19   1.541996 S    
C5    C55   1.452314 S    
C10   O30   1.445557 S    
C30   N2    1.471788 S    
O36   C71   1.424385 S    
C17   C33   1.546664 S    
C39   H31   1.112757 S    
C7    C53   1.452463 S    
N1    O22   1.301495 A    
C71   C72   1.524664 S    
O8    V4    1.979303 S    
C65   H53   1.110162 S    
C25   C49   1.499410 S    
O5    C1    1.343080 A    
C8    C54   1.452361 S    
C26   C42   1.575167 S    
C13   H5    1.112154 S    
C20   H12   1.109736 S    
C25   C41   1.573730 S    
C11   C27   1.598256 S    
O8    C4    1.343064 A    
C70   H67   1.107883 S    
C41   N5    1.468792 S    
C40   H32   1.112801 S    
C27   C51   1.499264 S    
O9    C5    1.342646 A    
C38   H30   1.112782 S    
C27   C43   1.573579 S    
C34   C46   1.492673 S    
C64   H52   1.108505 S    
C37   H29   1.112798 S    
C69   C70   1.524677 S    
C17   H9    1.109735 S    
C21   C45   1.215821 T    
C11   O31   1.443278 S    
C19   H11   1.109731 S    
O6    V2    1.979316 S    
C31   C35   1.572921 S    
C6    C56   1.452476 S    
C34   C38   1.549740 S    
O29   C57   1.421452 S    
C68   H62   1.111038 S    
C63   H49   1.110273 S    
C35   C39   1.550925 S    
C13   H1    1.104534 S    
C66   H57   1.107993 S    
C62   H47   1.108519 S    
C22   C46   1.215751 T    
C15   H3    1.104525 S    
N1    O21   1.301416 A    
O16   V4    1.961026 S    
C35   C47   1.492895 S    
C16   H4    1.104559 S    
C10   C30   1.606199 S    
C3    O13   1.348689 A    
C57   H34   1.110274 S    
C71   H69   1.108397 S    
C23   C47   1.215913 T    
C63   H48   1.107182 S    
C15   C27   1.557407 S    
C36   C40   1.550902 S    
O6    C2    1.343082 A    
C44   H20   1.111650 S    
C59   H39   1.109861 S    
N3    O25   1.301418 A    
C12   C28   1.598215 S    
O11   V3    1.979233 S    
C59   H38   1.109421 S    
C14   H6    1.112146 S    
C19   H15   1.113686 S    
O12   V4    1.979069 S    
C60   H40   1.102551 S    
C11   O35   1.435815 S    
C57   C58   1.501899 S    
C31   N3    1.470422 S    
C44   N8    1.468791 S    
N6    O39   1.301165 A    
O10   C6    1.342725 A    
O20   V2    1.788244 S    
C58   H35   1.108588 S    
C17   H13   1.113690 S    
C33   C45   1.492770 S    
C16   H8    1.112154 S    
O31   C61   1.421444 S    
C18   H10   1.109777 S    
C39   C43   1.562453 S    
C4    C21   1.451517 S    
C65   H54   1.108419 S    
C72   H70   1.110757 S    
O30   C59   1.423423 S    
C41   H17   1.111655 S    
C20   H16   1.113686 S    
C58   H36   1.108527 S    
O2    C6    1.349644 A    
C28   C52   1.499422 S    
N2    O24   1.301039 A    
C61   H44   1.110273 S    
C13   C17   1.541946 S    
N5    O37   1.301131 A    
C69   H64   1.108394 S    
C14   H2    1.105960 S    
C51   C55   1.219151 T    
N7    O41   1.301131 A    
C16   C20   1.541985 S    
C67   C68   1.521948 S    
C70   H65   1.110742 S    
C16   C28   1.557376 S    
C4    O14   1.348775 A    
N4    O27   1.301425 A    
C33   C37   1.550895 S    
C61   H43   1.107194 S    
N8    O44   1.302132 A    
C12   O36   1.435818 S    
C20   C36   1.546684 S    
C64   H50   1.103836 S    
O32   C63   1.421432 S    
N4    O28   1.301500 A    
C24   C48   1.215826 T    
O4    V2    1.960929 S    
C12   C32   1.606249 S    
N6    O40   1.302223 A    
N5    O38   1.302129 A    
N7    O42   1.302131 A    
