data_mof_unit_10931.cif
_audit_creation_date              2013-03-05T15:43:18-0500
_audit_creation_method            fapswitch 2.2
_symmetry_space_group_name_H-M    P1
_symmetry_Int_Tables_number       1
_space_group_crystal_system       triclinic
_cell_length_a                    10.656731
_cell_length_b                    10.673949
_cell_length_c                    10.100186
_cell_angle_alpha                 95.569133
_cell_angle_beta                  93.622587
_cell_angle_gamma                 89.596595
_cell_volume                      1141.18192687

loop_
_atom_site_label
_atom_site_type_symbol
_atom_site_description
_atom_site_fract_x
_atom_site_fract_y
_atom_site_fract_z
_atom_type_partial_charge
O1    O     O_R   0.499980 0.319060 0.613040 -0.538584
O2    O     O_R   0.500020 0.319100 0.386900 -0.565483
C1    C     C_R   0.495989 0.262278 0.492226 0.931420
O3    O     O_R   0.316750 0.499980 0.613090 -0.574369
O4    O     O_R   0.316790 0.500020 0.386950 -0.578090
C2    C     C_R   0.258969 0.507896 0.497146 0.965475
Zn1   Zn    Zn3+2 0.499970 0.499970 0.650990 1.178766
Zn2   Zn    Zn3+2 0.500030 0.500030 0.349010 1.195033
O5    O     O_R   0.499980 0.680900 0.613100 -0.561173
O6    O     O_R   0.500020 0.680940 0.386960 -0.587449
O7    O     O_R   0.683210 0.499980 0.613050 -0.598745
O8    O     O_R   0.683250 0.500020 0.386910 -0.583526
C3    C     C_R   0.500789 0.737569 0.507133 0.933864
C4    C     C_R   0.739159 0.483602 0.502976 0.925692
C5    C     C_R   0.114793 0.636703 0.716834 0.432283
C6    C     C_R   0.066995 0.640784 0.842889 -0.114781
H1    H     H_    0.107846 0.703324 0.924906 0.246437
C7    C     C_R   0.970942 0.559593 0.865344 -0.144080
H2    H     H_    0.943349 0.553518 0.965748 0.257397
C8    C     C_R   0.911179 0.486011 0.758506 0.442166
C9    C     C_R   0.946692 0.496615 0.627300 -0.083590
C10   C     C_R   0.062238 0.551906 0.610312 -0.067534
C11   C     C_R   0.122543 0.511807 0.491846 -0.170871
C12   C     C_R   0.055102 0.442183 0.383987 0.216528
C13   C     C_R   0.928825 0.414994 0.393217 0.231752
C14   C     C_R   0.872546 0.454175 0.511613 -0.184742
C15   C     C_2   0.389841 0.931068 0.489891 0.292636
C16   C     C_2   0.493815 0.870456 0.530058 0.176465
C17   C     C_2   0.387749 0.067016 0.514177 0.183838
C18   C     C_2   0.480445 0.129567 0.464944 0.133345
C19   C     C_2   0.545380 0.590661 0.938789 0.401344
N1    N     N_2   0.501340 0.501330 0.852150 0.012965
C20   C     C_2   0.567850 0.576063 0.085618 0.324615
N2    N     N_2   0.501380 0.501360 0.147810 -0.059031
N3    N     N_R   0.114974 0.393770 0.267355 0.257080
O9    O     O_R   0.147747 0.275803 0.253880 -0.240766
O10   O     O_R   0.105956 0.456933 0.163419 -0.258158
Cl1   Cl    Cl    0.573114 0.056942 0.338064 -0.334843
Cl2   Cl    Cl    0.582600 0.736837 0.885937 -0.367548
Cl3   Cl    Cl    0.528250 0.347649 0.892053 -0.299310
N4    N     N_R   0.665998 0.648922 0.158748 0.223540
O11   O     O_R   0.780598 0.606495 0.160032 -0.340207
O12   O     O_R   0.646692 0.767250 0.195584 -0.240658
N5    N     N_R   0.381690 0.471457 0.090813 0.289854
O13   O     O_R   0.336725 0.360127 0.100600 -0.196971
O14   O     O_R   0.306748 0.559268 0.051266 -0.355168
Cl4   Cl    Cl    0.228486 0.750291 0.695638 -0.467686
Cl5   Cl    Cl    0.818174 0.359999 0.795786 -0.376132
N6    N     N_R   0.859812 0.338391 0.287957 0.257146
O15   O     O_R   0.784225 0.251548 0.317362 -0.272377
O16   O     O_R   0.871636 0.353994 0.163228 -0.226799
Cl6   Cl    Cl    0.262360 0.855650 0.394130 -0.411465
Cl7   Cl    Cl    0.613084 0.943424 0.641714 -0.381371
N7    N     N_R   0.292064 0.127292 0.592711 0.250613
O17   O     O_R   0.238266 0.065329 0.678381 -0.201087
O18   O     O_R   0.243536 0.233982 0.563342 -0.377661

loop_
_geom_bond_atom_site_label_1
_geom_bond_atom_site_label_2
_geom_bond_distance
_ccdc_geom_bond_type
O4    Zn2   2.013605 S    
C9    C14   1.407291 A    
C19   C20   1.510091 S    
C3    C16   1.417049 S    
C17   C18   1.343379 D    
Zn2   O8    1.965820 S    
C1    C18   1.425390 S    
N4    O11   1.299269 A    
N7    O17   1.301509 A    
C19   N1    1.299098 D    
C5    Cl4   1.757162 S    
C16   Cl7   1.776579 S    
C20   N4    1.430630 S    
C8    C9    1.416092 A    
N6    O15   1.300191 A    
C20   N2    1.301359 D    
O8    C4    1.307706 A    
C6    C7    1.389334 A    
Zn2   N2    2.034543 S    
C9    C10   1.396618 A    
C4    C14   1.452659 S    
Zn1   O7    2.013606 S    
N4    O12   1.300306 A    
C18   Cl1   1.781798 S    
C8    Cl5   1.759973 S    
O3    Zn1   1.965819 S    
C2    C11   1.451913 S    
O3    C2    1.298082 A    
N3    O10   1.299808 A    
C19   Cl2   1.753237 S    
O2    C1    1.277801 A    
C7    C8    1.393772 A    
N1    Cl3   1.744313 S    
O4    C2    1.301268 A    
O7    C4    1.290990 A    
C13   N6    1.442444 S    
C12   N3    1.426183 S    
C15   C17   1.448274 S    
C17   N7    1.441114 S    
C11   C12   1.416703 A    
C5    C6    1.397578 A    
N2    N5    1.391937 S    
C12   C13   1.389397 A    
C15   Cl6   1.768445 S    
Zn2   O6    1.931869 S    
C7    H2    1.081563 S    
C15   C16   1.339747 D    
Zn1   O5    2.004892 S    
O5    C3    1.279980 A    
C10   C11   1.421892 A    
C6    H1    1.082845 S    
Zn1   N1    2.029525 S    
N6    O16   1.300671 A    
C13   C14   1.398084 A    
O1    Zn1   1.931869 S    
C5    C10   1.425634 A    
O2    Zn2   2.004892 S    
N5    O13   1.299348 A    
N3    O9    1.300990 A    
N5    O14   1.302958 A    
N7    O18   1.300077 A    
O1    C1    1.307063 A    
O6    C3    1.301955 A    
