data_mof_unit_27023.cif
_audit_creation_date              2012-12-11T14:27:07-0500
_audit_creation_method            fapswitch 2.2
_symmetry_space_group_name_H-M    P1
_symmetry_Int_Tables_number       1
_space_group_crystal_system       triclinic
_cell_length_a                    15.038953
_cell_length_b                    14.941226
_cell_length_c                    15.004383
_cell_angle_alpha                 109.570246
_cell_angle_beta                  109.501543
_cell_angle_gamma                 109.239202
_cell_volume                      2598.6400969

loop_
_atom_site_label
_atom_site_type_symbol
_atom_type_description
_atom_site_fract_x
_atom_site_fract_y
_atom_site_fract_z
_atom_type_partial_charge
C1    C     C_R   0.989851 0.797259 0.083589 -0.131974
C2    C     C_R   0.218105 0.786736 0.309279 0.499832
C3    C     C_R   0.960004 0.409413 0.223341 -0.091201
C4    C     C_R   0.793714 0.198667 0.701457 -0.138661
C5    C     C_R   0.294407 0.591232 0.988229 0.314529
C6    C     C_R   0.037821 0.499987 0.324527 0.107200
C7    C     C_R   0.295677 0.500250 0.924221 -0.004005
C8    C     C_R   0.321239 0.829325 0.322210 -0.018442
C9    C     C_R   0.050913 0.223094 0.046054 0.133177
C10   C     C_3   0.469066 0.380555 0.851667 -0.420113
C11   C     C_3   0.365503 0.382690 0.843053 -0.402082
C12   C     C_R   0.702853 0.135404 0.700597 0.135333
C13   C     C_3   0.575848 0.532320 0.052143 0.416039
C14   C     C_3   0.556216 0.575989 0.899536 -0.493415
C15   C     C_3   0.570249 0.495512 0.938914 0.251021
C16   C     C_R   0.070083 0.589741 0.781159 0.524543
C17   C     C_3   0.393800 0.498622 0.924558 0.349493
C18   C     C_3   0.469845 0.528301 0.041749 -0.529192
C19   C     C_3   0.454459 0.581395 0.895734 -0.400999
C20   C     C_2   0.434828 0.890101 0.511034 -0.133374
C21   C     C_2   0.421895 0.902736 0.423923 -0.199563
C22   C     C_2   0.532924 0.969711 0.616354 -0.110673
C23   C     C_R   0.024035 0.496981 0.681249 -0.034951
C24   C     C_2   0.626570 0.021071 0.620148 -0.194898
C25   C     C_2   0.054791 0.418756 0.532419 -0.108460
C26   C     C_2   0.036610 0.494288 0.589849 -0.181595
C27   C     C_2   0.055541 0.412094 0.433667 -0.118424
C28   C     C_R   0.685802 0.406606 0.936324 -0.072097
C29   C     C_2   0.087448 0.502937 0.426806 -0.189971
C30   C     C_2   0.156345 0.131283 0.066408 -0.108261
C31   C     C_2   0.102593 0.176215 0.101260 -0.193462
C32   C     C_2   0.152726 0.034599 0.072434 -0.110238
C33   C     C_2   0.068422 0.966530 0.072992 -0.182525
C34   C     C_R   0.672720 0.497157 0.954697 0.022960
C35   C     C_R   0.979772 0.406636 0.691236 -0.186331
C36   C     C_R   0.774531 0.590258 0.028079 -0.107386
C37   C     C_R   0.703162 0.197822 0.792592 -0.133683
C38   C     C_R   0.081907 0.797006 0.993529 -0.091324
C39   C     C_R   0.044462 0.856245 0.047082 0.094656
C40   C     C_3   0.344758 0.701998 0.999295 -1.045912
C41   C     C_R   0.058091 0.590969 0.313427 -0.139849
C42   C     C_R   0.206651 0.409812 0.900215 -0.232438
C43   C     C_R   0.312142 0.779166 0.221496 -0.214904
C44   C     C_R   0.970611 0.242911 0.056708 -0.147372
C45   C     C_R   0.069064 0.252945 0.973454 -0.112574
H1    H     H_    0.964426 0.827300 0.141247 0.107443
H2    H     H_    0.824704 0.170190 0.648942 0.091105
H3    H     H_    0.324373 0.320345 0.861573 0.149935
H4    H     H_    0.428214 0.467585 0.061863 0.183042
H5    H     H_    0.628554 0.659439 0.955024 0.152790
H6    H     H_    0.547883 0.548709 0.817040 0.191350
H7    H     H_    0.399302 0.564104 0.813561 0.172055
H8    H     H_    0.483808 0.666405 0.955823 0.176693
H9    H     H_    0.641812 0.619158 0.109023 0.085057
H10   H     H_    0.489292 0.609631 0.102663 0.148445
H11   H     H_    0.368302 0.828389 0.507696 0.133076
H12   H     H_    0.174683 0.325198 0.842597 0.113161
H13   H     H_    0.486240 0.965031 0.425562 0.148742
H14   H     H_    0.522089 0.998974 0.686387 0.119370
H15   H     H_    0.637519 0.986308 0.551011 0.135164
H16   H     H_    0.057949 0.355440 0.551388 0.121758
H17   H     H_    0.028650 0.555183 0.568979 0.134040
H18   H     H_    0.012475 0.331323 0.362427 0.117559
H19   H     H_    0.138393 0.583153 0.500156 0.129998
H20   H     H_    0.185220 0.150265 0.014232 0.118051
H21   H     H_    0.080275 0.162604 0.159239 0.129360
H22   H     H_    0.209628 0.010711 0.058276 0.122079
H23   H     H_    0.377032 0.796898 0.202911 0.147327
H24   H     H_    0.624643 0.321178 0.887651 0.083511
H25   H     H_    0.008833 0.987279 0.084066 0.129442
H26   H     H_    0.947278 0.321838 0.633372 0.121273
H27   H     H_    0.793121 0.674437 0.065300 0.078421
H28   H     H_    0.652615 0.169046 0.824887 0.086779
H29   H     H_    0.139059 0.825606 0.967696 0.157986
H30   H     H_    0.109773 0.674085 0.379070 0.163256
H31   H     H_    0.248838 0.904894 0.440363 0.316010
H32   H     H_    0.430759 0.752170 0.065980 0.227601
H33   H     H_    0.338729 0.693966 0.920958 0.268155
H34   H     H_    0.930494 0.216221 0.097589 0.087786
H35   H     H_    0.300220 0.745025 0.018108 0.277609
H36   H     H_    0.540710 0.394850 0.054756 0.315892
H37   H     H_    0.145093 0.698190 0.751210 0.306333
H38   H     H_    0.126072 0.248127 0.946129 0.092525
H39   H     H_    0.913821 0.327666 0.206405 0.082808
H40   H     H_    0.472599 0.316693 0.872412 0.146049
H41   H     H_    0.464608 0.355738 0.770895 0.171189
H42   H     H_    0.309783 0.358805 0.758123 0.164452
N1    N     N_R   0.993980 0.704500 0.053430 -0.048073
N2    N     N_R   0.053690 0.556380 0.849240 -0.072465
N3    N     N_R   0.790390 0.443640 0.997160 -0.042126
N4    N     N_R   0.998260 0.443670 0.792970 -0.068372
N5    N     N_R   0.845830 0.556350 0.053430 -0.033995
N6    N     N_R   0.792820 0.295510 0.849240 -0.048765
N7    N     N_R   0.051260 0.704510 0.997160 -0.051134
N8    N     N_R   0.001740 0.556330 0.207030 -0.038566
N9    N     N_R   0.154170 0.443650 0.946570 -0.049213
N10   N     N_R   0.207180 0.704490 0.150760 -0.068443
N11   N     N_R   0.948740 0.295490 0.002840 -0.042819
N12   N     N_R   0.006020 0.295500 0.946570 -0.043276
N13   N     N_R   0.149890 0.704480 0.207030 -0.072929
N14   N     N_R   0.946310 0.443620 0.150760 -0.048040
N15   N     N_R   0.209610 0.556360 0.002840 -0.051893
N16   N     N_R   0.850110 0.295520 0.792970 -0.039721
Ni1   Ni    Ni4+2 0.997880 0.629240 0.129060 0.259933
Ni2   Ni    Ni4+2 0.002120 0.370760 0.870940 0.195751
Ni3   Ni    Ni4+2 0.129260 0.629260 0.000000 0.225779
Ni4   Ni    Ni4+2 0.870740 0.370740 0.000000 0.214054
O1    O     O_3   0.184553 0.835630 0.376575 -0.797654
O2    O     O_3   0.601898 0.471279 0.100060 -0.747471
O3    O     O_3   0.140872 0.695771 0.814858 -0.803675

loop_
_geom_bond_atom_site_label_1
_geom_bond_atom_site_label_2
_ccdc_geom_bond_type
N14   Ni4   S    
C31   H21   S    
N9    Ni2   S    
C10   H40   S    
C9    C45   A    
N9    N15   A    
C27   C29   D    
N4    Ni2   S    
C28   H24   S    
C8    C43   A    
C20   H11   S    
C3    C6    A    
N6    N16   A    
C16   O3    S    
C14   H5    S    
C33   C39   S    
C13   C18   S    
C42   N9    A    
H37   O3    S    
N3    Ni4   S    
C10   C15   S    
C30   C31   D    
C1    H1    S    
C7    C42   A    
C4    N16   A    
N13   Ni1   S    
C23   C26   S    
C12   C37   A    
C13   O2    S    
C44   N11   A    
C19   H7    S    
N7    Ni3   S    
C11   H42   S    
C43   H23   S    
C7    C17   S    
C6    C41   A    
N2    Ni3   S    
C40   H35   S    
C4    C12   A    
C15   C34   S    
C34   C36   A    
C19   H8    S    
C1    N1    A    
C29   H19   S    
C2    N13   A    
C16   N2    A    
H31   O1    S    
C11   H3    S    
C45   H38   S    
C42   H12   S    
N1    Ni1   S    
C8    C21   S    
C38   C39   A    
N12   Ni2   S    
N1    N7    A    
C45   N12   A    
C22   H14   S    
C5    C7    A    
C1    C39   A    
C25   C26   D    
N11   Ni4   S    
C41   H30   S    
N5    Ni1   S    
N3    N5    A    
C14   H6    S    
C24   H15   S    
C38   N7    A    
C17   C18   S    
C37   N6    A    
N16   Ni2   S    
C25   H16   S    
C27   H18   S    
C18   H10   S    
C32   H22   S    
N10   Ni3   S    
C33   H25   S    
H36   O2    S    
C3    N14   A    
C16   C23   A    
C23   C35   A    
C13   C15   S    
C40   H33   S    
N2    N4    A    
N10   N13   A    
N8    Ni1   S    
C13   H9    S    
C38   H29   S    
C37   H28   S    
C5    N15   A    
C11   C17   S    
C9    C44   A    
C14   C15   S    
C14   C19   S    
C44   H34   S    
C2    C8    A    
C43   N10   A    
C20   C22   S    
C10   H41   S    
C25   C27   S    
C12   C24   S    
C32   C33   D    
C26   H17   S    
C21   H13   S    
C35   H26   S    
N6    Ni4   S    
C30   C32   S    
C36   N5    A    
C41   N8    A    
C2    O1    S    
C17   C19   S    
N15   Ni3   S    
C22   C24   D    
C30   H20   S    
C10   C11   S    
C9    C31   S    
C28   C34   A    
N8    N14   A    
C6    C29   S    
C20   C21   D    
N11   N12   A    
C5    C40   S    
C3    H39   S    
C40   H32   S    
C28   N3    A    
C36   H27   S    
C18   H4    S    
C4    H2    S    
C35   N4    A    
