data_mof_unit_55472.cif
_audit_creation_date              2013-03-05T16:33:12-0500
_audit_creation_method            fapswitch 2.2
_symmetry_space_group_name_H-M    P1
_symmetry_Int_Tables_number       1
_space_group_crystal_system       triclinic
_cell_length_a                    27.809861
_cell_length_b                    10.816336
_cell_length_c                    9.533788
_cell_angle_alpha                 90.18678
_cell_angle_beta                  90.17881
_cell_angle_gamma                 90.087021
_cell_volume                      2867.73850852

loop_
_atom_site_label
_atom_site_type_symbol
_atom_site_description
_atom_site_fract_x
_atom_site_fract_y
_atom_site_fract_z
_atom_type_partial_charge
O1    O     O_R   0.500000 0.319640 0.618810 -0.583035
O2    O     O_R   0.500010 0.319680 0.381230 -0.589537
C1    C     C_R   0.499184 0.262319 0.499752 0.805574
O3    O     O_R   0.430260 0.500000 0.618780 -0.582795
O4    O     O_R   0.430270 0.500040 0.381190 -0.583897
C2    C     C_R   0.407446 0.499852 0.499761 0.796906
Cu1   Cu    Cu3+1 0.500000 0.499980 0.640670 0.948161
Cu2   Cu    Cu3+1 0.500000 0.500020 0.359330 0.954373
O5    O     O_R   0.499990 0.680320 0.618770 -0.577045
O6    O     O_R   0.500000 0.680360 0.381190 -0.560714
O7    O     O_R   0.569730 0.499960 0.618810 -0.577614
O8    O     O_R   0.569740 0.500000 0.381220 -0.590980
C3    C     C_R   0.499430 0.737747 0.500023 0.813863
C4    C     C_R   0.592529 0.500616 0.499999 0.796478
C5    C     C_R   0.177644 0.392171 0.515946 0.534649
O9    O     O_2   0.202146 0.285789 0.534228 -0.532051
N1    N     N_R   0.202092 0.500582 0.497062 -0.469996
C6    C     C_R   0.178410 0.609904 0.477607 0.536041
C7    C     C_R   0.278871 0.512635 0.371859 -0.103614
C8    C     C_R   0.329009 0.512269 0.372338 -0.213732
C9    C     C_R   0.328863 0.486742 0.625151 -0.213094
C10   C     C_R   0.278714 0.486498 0.624239 -0.103581
C11   C     C_R   0.253614 0.499695 0.497704 0.360714
C12   C     C_R   0.101929 0.502564 0.496289 -0.048262
C13   C     C_R   0.127154 0.391045 0.515446 -0.020066
C14   C     C_R   0.101589 0.281218 0.534471 -0.143524
C15   C     C_R   0.127945 0.613013 0.477287 -0.021444
C16   C     C_R   0.354484 0.499606 0.499108 -0.038650
H1    H     H_    0.347510 0.476537 0.724326 0.158535
H2    H     H_    0.259296 0.476626 0.721848 0.138733
H3    H     H_    0.120122 0.194494 0.551563 0.187527
C17   C     C_R   0.645440 0.502298 0.498980 -0.038644
C18   C     C_R   0.974101 0.391473 0.502714 0.064224
C19   C     C_R   0.974919 0.619258 0.491671 -0.033907
C20   C     C_R   0.949191 0.506100 0.497929 0.065401
C21   C     C_R   0.946921 0.280943 0.498433 -0.211897
C22   C     C_R   0.897060 0.282955 0.495693 -0.149324
C23   C     C_R   0.872226 0.395028 0.496851 0.008386
C24   C     C_R   0.898030 0.507340 0.498275 -0.102477
C25   C     C_R   0.872601 0.620444 0.499720 -0.145672
C26   C     C_R   0.821830 0.617476 0.495605 0.540791
N2    N     N_R   0.797845 0.507033 0.495228 -0.470675
C27   C     C_R   0.821848 0.397027 0.495966 0.533399
C28   C     C_R   0.720738 0.468923 0.376243 -0.104431
C29   C     C_R   0.670601 0.467088 0.377607 -0.248753
C30   C     C_R   0.671310 0.540393 0.618244 -0.221178
C31   C     C_R   0.721420 0.542591 0.616569 -0.115331
C32   C     C_R   0.746285 0.506505 0.495792 0.361310
O10   O     O_2   0.796936 0.289805 0.496675 -0.539675
C33   C     C_R   0.025146 0.390783 0.510074 0.040565
C34   C     C_R   0.050810 0.503656 0.496302 0.070586
C35   C     C_R   0.025951 0.617626 0.482732 0.070600
C36   C     C_R   0.051642 0.280832 0.532064 -0.208994
H4    H     H_    0.651583 0.437042 0.284247 0.147368
H5    H     H_    0.739786 0.441096 0.282450 0.138495
H6    H     H_    0.877982 0.195567 0.492217 0.195672
H7    H     H_    0.963090 0.190659 0.493335 0.138003
H8    H     H_    0.034880 0.192710 0.551281 0.138286
O11   O     O_2   0.203656 0.715319 0.459674 -0.531005
C37   C     C_R   0.103178 0.723818 0.457768 -0.147324
H9    H     H_    0.347761 0.522458 0.273654 0.160380
H10   H     H_    0.259580 0.522765 0.273740 0.138940
H11   H     H_    0.122330 0.809721 0.440529 0.188933
C38   C     C_R   0.948661 0.730815 0.496910 -0.275041
C39   C     C_R   0.898659 0.732427 0.505644 0.504514
O12   O     O_2   0.796423 0.723479 0.489882 -0.512366
C40   C     C_R   0.053252 0.726333 0.460131 -0.208574
H12   H     H_    0.965912 0.819933 0.499252 0.160667
H13   H     H_    0.652944 0.570009 0.712052 0.143874
H14   H     H_    0.741004 0.571979 0.709229 0.129511
H15   H     H_    0.037198 0.815171 0.440639 0.139627
C41   C     C_R   0.494234 0.064180 0.625274 0.122061
C42   C     C_R   0.494647 0.129252 0.499184 -0.098522
C43   C     C_R   0.488735 0.063978 0.372545 -0.219511
H16   H     H_    0.486251 0.111749 0.273114 0.163499
C44   C     C_R   0.488923 0.935161 0.372737 -0.185921
H17   H     H_    0.486541 0.886656 0.273374 0.192800
C45   C     C_R   0.495076 0.870896 0.499549 -0.108699
C46   C     C_R   0.494569 0.936951 0.625441 0.127917
C47   C     C_3   0.528501 0.931948 0.747028 -0.460740
C48   C     C_3   0.527832 0.072188 0.747477 -0.456157
H18   H     H_    0.511599 0.890900 0.841625 0.212026
H19   H     H_    0.564079 0.892920 0.717903 0.191823
H20   H     H_    0.510221 0.112092 0.841824 0.196049
H21   H     H_    0.563060 0.114285 0.719907 0.202896
C49   C     C_R   0.520631 0.595096 0.074405 0.258000
N3    N     N_R   0.500300 0.500930 0.147930 -0.219072
C50   C     C_R   0.475399 0.412912 0.073912 -0.095350
H22   H     H_    0.456238 0.341100 0.129339 0.144284
C51   C     C_R   0.475381 0.412927 0.924933 -0.077551
H23   H     H_    0.456181 0.341169 0.868650 0.141222
N4    N     N_R   0.500310 0.500890 0.852020 -0.179776
C52   C     C_R   0.520896 0.594904 0.926976 0.203293
C53   C     C_3   0.572584 0.632435 0.924370 -0.579577
C54   C     C_3   0.571663 0.635151 0.083783 0.229206
H24   H     H_    0.595959 0.557713 0.883313 0.176850
H25   H     H_    0.578246 0.724373 0.875961 0.208776
H26   H     H_    0.595070 0.564531 0.134446 0.089772
O13   O     O_3   0.875899 0.846059 0.512307 -0.550266
C55   C     C_3   0.866747 0.877410 0.654186 0.145072
H27   H     H_    0.858354 0.795920 0.721463 0.122745
H28   H     H_    0.834339 0.937247 0.656258 0.199501
C56   C     C_3   0.908458 0.950849 0.717394 -0.880205
H29   H     H_    0.918550 0.028066 0.646976 0.254568
H30   H     H_    0.897638 0.989538 0.820575 0.229947
H31   H     H_    0.940072 0.890079 0.733789 0.239507
O14   O     O_3   0.574234 0.756229 0.139260 -0.562354
C57   C     C_3   0.621833 0.782297 0.181252 0.080955
H32   H     H_    0.646826 0.775188 0.090473 0.145169
H33   H     H_    0.633595 0.717997 0.265686 0.151642
C58   C     C_3   0.624108 0.913351 0.239222 -0.757577
H34   H     H_    0.600181 0.922037 0.331865 0.247955
H35   H     H_    0.661533 0.935576 0.271641 0.215241
H36   H     H_    0.612456 0.980207 0.157727 0.246313

loop_
_geom_bond_atom_site_label_1
_geom_bond_atom_site_label_2
_geom_bond_distance
_ccdc_geom_bond_type
N3    C50   1.369117 A    
C26   N2    1.367294 A    
C52   C53   1.493386 S    
C42   C43   1.405725 A    
C20   C24   1.422906 A    
C7    C8    1.394338 A    
C12   C15   1.408214 A    
C54   H26   1.114639 S    
Cu1   Cu2   2.682236 S    
C58   H35   1.110528 S    
Cu1   O7    1.950995 S    
N1    C11   1.432852 S    
C43   C44   1.393344 A    
C37   H11   1.083543 S    
C38   H12   1.076211 S    
C21   C22   1.386994 A    
C44   C45   1.406667 A    
C41   C46   1.376200 A    
C15   C37   1.395919 A    
O3    Cu1   1.950011 S    
C23   C24   1.409993 A    
O7    C4    1.299852 A    
C5    C13   1.404153 A    
C7    H10   1.082868 S    
C5    O9    1.349683 S    
C18   C21   1.413884 A    
C57   H32   1.114247 S    
Cu1   O5    1.962436 S    
C19   C20   1.418306 A    
C17   C29   1.405924 A    
C8    H9    1.082973 S    
O5    C3    1.293156 A    
C55   H27   1.116595 S    
C30   H13   1.079268 S    
C3    C45   1.445467 S    
C22   H6    1.083603 S    
C2    C16   1.472863 S    
O13   C55   1.417333 S    
C37   C40   1.388981 A    
O14   C57   1.409545 S    
C58   H36   1.111033 S    
C41   C48   1.493383 S    
C41   C42   1.395051 A    
C12   C34   1.421694 A    
C14   H3    1.083530 S    
C9    C10   1.394649 A    
C47   H19   1.111960 S    
C55   H28   1.110572 S    
N1    C6    1.367262 A    
C33   C36   1.415831 A    
C43   H16   1.083171 S    
C34   C35   1.420343 A    
C12   C13   1.408426 A    
C39   O13   1.384702 S    
C47   H18   1.111777 S    
C21   H7    1.076730 S    
C4    C17   1.471598 S    
C24   C25   1.414035 A    
C45   C46   1.394908 A    
C27   O10   1.350069 S    
C8    C16   1.406199 A    
C53   H25   1.108904 S    
C18   C33   1.421087 A    
C9    H1    1.082995 S    
C55   C56   1.526219 S    
O1    C1    1.291708 A    
C7    C11   1.399457 A    
C31   H14   1.082919 S    
C22   C23   1.396094 A    
C49   C52   1.405593 A    
C51   N4    1.369083 A    
C31   C32   1.399724 A    
Cu2   O8    1.950006 S    
C19   C38   1.412164 A    
C33   C34   1.419902 A    
C56   H30   1.110359 S    
N2    C32   1.433920 S    
C44   H17   1.083189 S    
C53   H24   1.109111 S    
C35   C40   1.416107 A    
C54   O14   1.412410 S    
O3    C2    1.298291 A    
C25   C26   1.412670 A    
C9    C16   1.406112 A    
C50   C51   1.420332 A    
C29   H4    1.082692 S    
C25   C39   1.411413 A    
N2    C27   1.365226 A    
C14   C36   1.389151 A    
C48   H20   1.111805 S    
C28   C29   1.394513 A    
C49   N3    1.361553 A    
C5    N1    1.367257 A    
C30   C31   1.393861 A    
C10   H2    1.082859 S    
C58   H34   1.111311 S    
O1    Cu1   1.961044 S    
C17   C30   1.403985 A    
O2    Cu2   1.962439 S    
C6    C15   1.403895 A    
O8    C4    1.295956 A    
C47   C48   1.517024 S    
O6    C3    1.290202 A    
O4    Cu2   1.950998 S    
C36   H8    1.076896 S    
C26   O12   1.348850 S    
C19   C35   1.422161 A    
C57   C58   1.520932 S    
Cu2   N3    2.015543 S    
C38   C39   1.393429 A    
O2    C1    1.291118 A    
C13   C14   1.396125 A    
C23   C27   1.401188 A    
C28   H5    1.082820 S    
C51   H23   1.081527 S    
O4    C2    1.298167 A    
Cu1   N4    2.014950 S    
N4    C52   1.365072 A    
C18   C20   1.421966 A    
C57   H33   1.114180 S    
C56   H31   1.109512 S    
C40   H15   1.076629 S    
C53   C54   1.520297 S    
C1    C42   1.444618 S    
C49   C54   1.485571 S    
C46   C47   1.493604 S    
C6    O11   1.349731 S    
C50   H22   1.081511 S    
Cu2   O6    1.961043 S    
C56   H29   1.109579 S    
C10   C11   1.399670 A    
C48   H21   1.112308 S    
C28   C32   1.400027 A    
