data_mof_unit_56318.cif
_audit_creation_date              2013-03-05T16:41:26-0500
_audit_creation_method            fapswitch 2.2
_symmetry_space_group_name_H-M    P1
_symmetry_Int_Tables_number       1
_space_group_crystal_system       triclinic
_cell_length_a                    10.725224
_cell_length_b                    10.677445
_cell_length_c                    9.878304
_cell_angle_alpha                 89.849809
_cell_angle_beta                  103.578871
_cell_angle_gamma                 90.372069
_cell_volume                      1099.59871039

loop_
_atom_site_label
_atom_site_type_symbol
_atom_site_description
_atom_site_fract_x
_atom_site_fract_y
_atom_site_fract_z
_atom_type_partial_charge
O1    O     O_R   0.500020 0.316790 0.614700 -0.616155
O2    O     O_R   0.500000 0.316760 0.385350 -0.621964
C1    C     C_R   0.502104 0.260099 0.500846 0.939431
O3    O     O_R   0.317820 0.500020 0.571850 -0.607663
O4    O     O_R   0.317800 0.499980 0.342510 -0.621342
C2    C     C_R   0.258893 0.504470 0.442053 0.971998
Zn1   Zn    Zn3+2 0.500010 0.500020 0.653140 0.968121
Zn2   Zn    Zn3+2 0.499990 0.499980 0.346860 0.993991
O5    O     O_R   0.500000 0.683240 0.614650 -0.616842
O6    O     O_R   0.499980 0.683210 0.385300 -0.575466
O7    O     O_R   0.682200 0.500020 0.657490 -0.630860
O8    O     O_R   0.682180 0.499980 0.428150 -0.613047
C3    C     C_R   0.507533 0.739698 0.501792 0.921454
C4    C     C_R   0.741392 0.504987 0.557701 0.949661
H1    H     H_    0.875181 0.568533 0.378538 0.198353
H2    H     H_    0.124359 0.591608 0.609269 0.171110
C5    C     C_2   0.122081 0.521159 0.408657 -0.312650
C6    C     C_2   0.068028 0.564073 0.507314 -0.146457
H3    H     H_    0.935349 0.514622 0.695010 0.146192
C7    C     C_2   0.878327 0.526053 0.589145 -0.335598
C8    C     C_2   0.931443 0.558562 0.484940 -0.066431
H4    H     H_    0.065430 0.495416 0.305981 0.146717
C9    C     C_R   0.489120 0.062608 0.616901 -0.074011
C10   C     C_R   0.518713 0.128728 0.507223 -0.134866
C11   C     C_R   0.575233 0.067834 0.411472 -0.239444
H5    H     H_    0.610732 0.120836 0.334466 0.190596
C12   C     C_R   0.583471 0.937695 0.413457 0.316491
C13   C     C_R   0.528925 0.871281 0.509815 -0.163582
C14   C     C_R   0.492944 0.934998 0.617165 -0.025381
C15   C     C_3   0.376295 0.919339 0.674730 -0.507710
C16   C     C_3   0.369620 0.061988 0.673877 0.772907
H6    H     H_    0.295800 0.871950 0.600536 0.201092
H7    H     H_    0.399908 0.877075 0.780555 0.211950
C17   C     C_R   0.388314 0.512303 0.043058 0.223831
N1    N     N_R   0.499160 0.499140 0.142600 -0.107855
C18   C     C_R   0.611810 0.496239 0.100155 -0.075598
H8    H     H_    0.702096 0.491195 0.176408 0.150208
C19   C     C_R   0.611808 0.496212 0.956538 -0.129630
H9    H     H_    0.701965 0.491286 0.925841 0.155669
N2    N     N_R   0.499160 0.499180 0.856960 -0.109090
C20   C     C_R   0.388154 0.512731 0.900486 0.190132
C21   C     C_3   0.275318 0.426090 0.867960 -0.440137
C22   C     C_3   0.276090 0.425787 0.021525 -0.497422
H10   H     H_    0.188444 0.470907 0.803599 0.196076
H11   H     H_    0.298920 0.334143 0.829105 0.287411
H12   H     H_    0.190560 0.471520 0.044517 0.206473
H13   H     H_    0.300685 0.333260 0.072468 0.235947
O9    O     O_3   0.378208 0.113387 0.809321 -0.614690
C23   C     C_3   0.504170 0.119765 0.894169 -0.268584
H14   H     H_    0.562198 0.191249 0.854244 0.178561
H15   H     H_    0.552215 0.027197 0.904339 0.197736
H16   H     H_    0.498601 0.149592 0.000084 0.207204
N3    N     N_R   0.644498 0.875819 0.317410 0.223843
O10   O     O_R   0.725355 0.785846 0.360677 -0.401303
O11   O     O_R   0.636033 0.922176 0.193633 -0.412909
N4    N     N_R   0.256400 0.109382 0.572922 0.196453
O12   O     O_R   0.182495 0.191804 0.610785 -0.366217
O13   O     O_R   0.228615 0.070202 0.444509 -0.416700

loop_
_geom_bond_atom_site_label_1
_geom_bond_atom_site_label_2
_geom_bond_distance
_ccdc_geom_bond_type
O4    Zn2   1.944389 S    
C15   H6    1.112510 S    
Zn1   N2    2.015552 S    
C12   N3    1.437219 S    
C3    C13   1.421521 S    
C14   C15   1.499117 S    
C5    H4    1.087836 S    
C16   N4    1.470329 S    
C11   C12   1.392729 A    
C6    C8    1.430104 S    
C20   C21   1.492669 S    
H3    C7    1.087439 S    
Zn2   O8    1.930350 S    
C23   H16   1.109501 S    
C23   H14   1.110381 S    
C18   C19   1.418686 A    
C5    C6    1.329247 D    
H2    C6    1.085959 S    
O6    C3    1.286001 A    
N3    O10   1.300858 A    
C10   C11   1.400876 A    
Zn1   O7    1.944387 S    
C1    C10   1.414494 S    
O4    C2    1.288694 A    
C17   C20   1.407963 A    
C21   H10   1.107871 S    
C18   H8    1.079775 S    
O3    Zn1   1.930350 S    
O9    C23   1.414091 S    
C9    C14   1.363411 A    
O3    C2    1.290436 A    
N2    C20   1.366082 A    
C19   N2    1.367692 A    
O8    C4    1.289270 A    
O2    C1    1.285554 A    
Zn1   O5    1.991943 S    
C16   O9    1.430076 S    
N3    O11   1.301366 A    
C15   C16   1.525190 S    
O7    C4    1.292548 A    
C22   H12   1.111644 S    
C21   C22   1.515034 S    
C9    C10   1.388358 A    
C4    C7    1.444260 S    
H1    C8    1.087486 S    
C19   H9    1.080809 S    
C7    C8    1.332490 D    
Zn2   O6    1.993919 S    
C17   N1    1.361073 A    
C12   C13   1.415520 A    
N4    O12   1.301025 A    
C2    C5    1.438554 S    
O5    C3    1.284891 A    
C13   C14   1.391274 A    
C15   H7    1.111430 S    
C23   H15   1.111006 S    
C11   H5    1.083887 S    
O1    Zn1   1.993920 S    
C22   H13   1.112354 S    
C21   H11   1.107288 S    
O2    Zn2   1.991945 S    
C17   C22   1.487845 S    
N1    C18   1.369281 A    
N4    O13   1.302516 A    
O1    C1    1.283502 A    
Zn2   N1    2.015713 S    
C9    C16   1.515947 S    
