data_mof_unit_24853.cif
_audit_creation_date              2012-12-10T20:31:06-0500
_audit_creation_method            fapswitch 2.2
_symmetry_space_group_name_H-M    P1
_symmetry_Int_Tables_number       1
_space_group_crystal_system       triclinic
_cell_length_a                    14.843504
_cell_length_b                    10.682199
_cell_length_c                    9.916375
_cell_angle_alpha                 90.220499
_cell_angle_beta                  90.956206
_cell_angle_gamma                 90.735178
_cell_volume                      1571.99159293

loop_
_atom_site_label
_atom_site_type_symbol
_atom_type_description
_atom_site_fract_x
_atom_site_fract_y
_atom_site_fract_z
_atom_type_partial_charge
C1    C     C_R   0.500991 0.260256 0.499910 0.840237
C2    C     C_R   0.186076 0.386833 0.523513 -0.272893
C3    C     C_R   0.232138 0.497871 0.498600 -0.013197
C4    C     C_R   0.327289 0.497876 0.499165 0.882202
C5    C     C_R   0.188582 0.611048 0.483649 -0.185354
C6    C     C_R   0.503279 0.063802 0.621893 0.052558
C7    C     C_R   0.510132 0.128598 0.500813 -0.091399
C8    C     C_R   0.533092 0.064879 0.382610 -0.211254
C9    C     C_R   0.534560 0.935507 0.382985 -0.229503
C10   C     C_R   0.513668 0.871460 0.501860 -0.075751
C11   C     C_R   0.506761 0.936662 0.622808 0.075366
C12   C     C_R   0.907717 0.614905 0.493654 0.089061
C13   C     C_3   0.440609 0.924854 0.734252 -0.474235
C14   C     C_3   0.436459 0.067405 0.734140 0.032047
C15   C     C_R   0.430309 0.445625 0.068690 0.070998
C16   C     C_R   0.502153 0.739739 0.500301 0.874132
C17   C     C_R   0.570778 0.547351 0.074460 -0.192026
C18   C     C_R   0.571543 0.546883 0.930670 0.241098
C19   C     C_R   0.429867 0.447718 0.926721 -0.009077
C20   C     C_3   0.332801 0.484142 0.917777 -0.277539
C21   C     C_3   0.331674 0.477367 0.073010 0.318141
C22   C     C_R   0.672781 0.501981 0.501139 0.882382
C23   C     C_R   0.952035 0.274651 0.561342 -0.006176
C24   C     C_R   0.814549 0.614152 0.487921 -0.252540
C25   C     C_R   0.768095 0.502118 0.504967 -0.028063
C26   C     C_R   0.811463 0.390350 0.531039 -0.272448
C27   C     C_R   0.905226 0.387584 0.538040 0.032504
C28   C     C_R   0.953480 0.501373 0.516343 0.054910
C29   C     C_3   0.281164 0.107583 0.795730 -0.810194
C30   C     C_3   0.729452 0.540531 0.878388 -0.734656
C31   C     C_2   0.319623 0.613602 0.860715 0.493551
C32   C     C_3   0.224595 0.640849 0.150495 -0.743972
C33   C     C_3   0.186625 0.352427 0.086411 -0.801661
C34   C     C_R   0.046020 0.276189 0.555184 -0.212402
C35   C     C_2   0.905276 0.154789 0.593995 0.376044
C36   C     C_3   0.134545 0.898424 0.583007 -0.715728
C37   C     C_R   0.093103 0.387575 0.530882 0.100226
C38   C     C_R   0.047223 0.501523 0.514115 0.011772
C39   C     C_R   0.095379 0.615097 0.492511 0.081027
C40   C     C_R   0.049308 0.728993 0.477662 0.198678
C41   C     C_R   0.955315 0.727250 0.475827 -0.263300
H1    H     H_    0.777920 0.700003 0.470087 0.133426
H2    H     H_    0.222763 0.300460 0.536553 0.121670
H3    H     H_    0.228216 0.694823 0.464404 0.160255
H4    H     H_    0.919342 0.813877 0.460577 0.191820
H5    H     H_    0.545161 0.113839 0.289036 0.171546
H6    H     H_    0.350573 0.198704 0.646031 0.234040
H7    H     H_    0.215790 0.140587 0.754058 0.234726
H8    H     H_    0.301722 0.169042 0.881895 0.245526
H9    H     H_    0.271620 0.010058 0.831897 0.262479
H10   H     H_    0.650746 0.698774 0.885321 0.199786
H11   H     H_    0.754572 0.546295 0.984440 0.212292
H12   H     H_    0.546900 0.886424 0.289421 0.164325
H13   H     H_    0.780196 0.585185 0.812334 0.245305
H14   H     H_    0.721654 0.440638 0.848062 0.250844
H15   H     H_    0.369208 0.687342 0.879999 0.033913
H16   H     H_    0.362809 0.665500 0.126552 0.201975
H17   H     H_    0.224778 0.733792 0.201071 0.225433
H18   H     H_    0.182366 0.576824 0.210677 0.259995
H19   H     H_    0.194286 0.650951 0.048334 0.255556
H20   H     H_    0.297429 0.341745 0.221460 0.249523
H21   H     H_    0.176634 0.254592 0.050802 0.243851
H22   H     H_    0.165364 0.416632 0.004464 0.261851
H23   H     H_    0.377188 0.876397 0.700939 0.221163
H24   H     H_    0.142896 0.367169 0.174699 0.242870
H25   H     H_    0.838953 0.153627 0.637814 0.061476
H26   H     H_    0.061574 0.909496 0.403911 0.253042
H27   H     H_    0.080161 0.922866 0.653524 0.276522
H28   H     H_    0.173453 0.984500 0.558467 0.234841
H29   H     H_    0.180916 0.832430 0.633978 0.264732
H30   H     H_    0.472122 0.886942 0.827729 0.164674
H31   H     H_    0.464122 0.113552 0.827062 0.147180
H32   H     H_    0.626507 0.589205 0.130842 0.160399
H33   H     H_    0.291571 0.410682 0.865150 0.189019
H34   H     H_    0.770564 0.306646 0.541812 0.116662
H35   H     H_    0.082975 0.190422 0.570993 0.176770
N1    N     N_R   0.499390 0.499140 0.142800 -0.125191
N2    N     N_R   0.499390 0.499180 0.857150 -0.124359
N3    N     N_2   0.348476 0.112485 0.691993 -0.283037
N4    N     N_2   0.644513 0.604593 0.863275 -0.259603
N5    N     N_2   0.315983 0.595404 0.144084 -0.257626
N6    N     N_2   0.280379 0.371334 0.125698 -0.295840
N7    N     N_2   0.096677 0.844578 0.460029 -0.320709
O1    O     O_R   0.500010 0.316790 0.614690 -0.628399
O2    O     O_2   0.941295 0.054562 0.573839 -0.615378
O3    O     O_R   0.500000 0.316760 0.385350 -0.619511
O4    O     O_R   0.367850 0.499990 0.614680 -0.602494
O5    O     O_R   0.367840 0.499950 0.385340 -0.611412
O6    O     O_R   0.500000 0.683240 0.614650 -0.616781
O7    O     O_R   0.499990 0.683210 0.385310 -0.627703
O8    O     O_R   0.632160 0.500050 0.614660 -0.585149
O9    O     O_R   0.632150 0.500010 0.385320 -0.623564
O10   O     O_2   0.252108 0.636866 0.794084 -0.605787
Zn1   Zn    Zn3+2 0.500010 0.500020 0.653130 0.959004
Zn2   Zn    Zn3+2 0.499990 0.499980 0.346870 0.940482

loop_
_geom_bond_atom_site_label_1
_geom_bond_atom_site_label_2
_ccdc_geom_bond_type
C16   O7    A    
C34   C37   A    
C24   H1    S    
C19   C20   S    
C32   H17   S    
C33   H24   S    
O7    Zn2   S    
C4    O4    A    
C29   H8    S    
C1    O1    A    
H26   N7    S    
C32   N5    S    
C30   H13   S    
C26   C27   A    
C37   C38   A    
C12   C28   A    
H20   N6    S    
C38   C39   A    
C36   N7    S    
O4    Zn1   S    
C11   C13   S    
O6    Zn1   S    
H10   N4    S    
C33   H21   S    
C22   C25   S    
C22   O8    A    
C23   C27   A    
C31   H15   S    
C9    C10   A    
C33   H22   S    
C30   N4    S    
O5    Zn2   S    
C16   O6    A    
C13   C14   S    
C17   H32   S    
C40   N7    S    
C36   H29   S    
C17   C18   A    
C29   H9    S    
C29   H7    S    
C7    C8    A    
C24   C25   A    
C10   C11   A    
C6    C11   A    
C8    C9    A    
C13   H30   S    
C35   H25   S    
C25   C26   A    
C31   O10   D    
N1    Zn2   S    
O9    Zn2   S    
C19   N2    A    
C15   C19   A    
C12   C41   A    
C6    C14   S    
C29   N3    S    
C28   C38   A    
C2    H2    S    
C18   N2    A    
C23   C34   A    
C17   N1    A    
C26   H34   S    
C20   H33   S    
O1    Zn1   S    
C14   N3    S    
C21   N6    S    
C40   C41   A    
C5    H3    S    
C21   N5    S    
C23   C35   S    
C5    C39   A    
H16   N5    S    
C9    H12   S    
C32   H19   S    
C3    C4    S    
C39   C40   A    
C36   H28   S    
C33   N6    S    
C1    O3    A    
C30   H11   S    
C41   H4    S    
C1    C7    S    
C14   H31   S    
C3    C5    A    
C36   H27   S    
C6    C7    A    
C4    O5    A    
C30   H14   S    
C12   C24   A    
C2    C3    A    
C10   C16   S    
H6    N3    S    
O8    Zn1   S    
C35   O2    D    
C2    C37   A    
C15   N1    A    
C13   H23   S    
N2    Zn1   S    
C8    H5    S    
O3    Zn2   S    
C15   C21   S    
C20   C21   S    
C18   N4    S    
C27   C28   A    
C22   O9    A    
C32   H18   S    
C34   H35   S    
C20   C31   S    
