data_mof_unit_51397.cif
_audit_creation_date              2012-12-11T15:28:35-0500
_audit_creation_method            fapswitch 2.2
_symmetry_space_group_name_H-M    P1
_symmetry_Int_Tables_number       1
_space_group_crystal_system       triclinic
_cell_length_a                    6.957721
_cell_length_b                    19.580492
_cell_length_c                    23.462161
_cell_angle_alpha                 96.247073
_cell_angle_beta                  91.139304
_cell_angle_gamma                 88.709178
_cell_volume                      3176.10611385

loop_
_atom_site_label
_atom_site_type_symbol
_atom_type_description
_atom_site_fract_x
_atom_site_fract_y
_atom_site_fract_z
_atom_type_partial_charge
O1    O     O_R   0.617180 0.809390 0.808140 -0.525517
O2    O     O_R   0.382820 0.190610 0.191860 -0.525517
O3    O     O_R   0.293300 0.672410 0.795490 -0.538533
O4    O     O_R   0.706700 0.327590 0.204510 -0.538533
O5    O     O_R   0.117220 0.690610 0.691850 -0.515691
O6    O     O_R   0.882780 0.309390 0.308150 -0.515691
C1    C     C_R   0.464936 0.648111 0.805673 0.688229
C2    C     C_R   0.535064 0.351889 0.194327 0.688229
O7    O     O_R   0.287840 0.807750 0.814460 -0.528263
O8    O     O_R   0.712160 0.192250 0.185540 -0.528263
O9    O     O_R   0.111720 0.826910 0.710960 -0.521237
O10   O     O_R   0.888280 0.173090 0.289040 -0.521237
C3    C     C_R   0.456532 0.830756 0.833174 0.708495
C4    C     C_R   0.543468 0.169244 0.166826 0.708494
O11   O     O_R   0.622680 0.673080 0.789040 -0.536329
O12   O     O_R   0.377320 0.326920 0.210960 -0.536329
O13   O     O_3   0.448820 0.756130 0.716020 -0.343139
O14   O     O_3   0.551180 0.243870 0.283980 -0.343139
V1    V     V_3+5 0.176220 0.748860 0.756300 1.447578
V2    V     V_3+5 0.823780 0.251140 0.243700 1.447578
O15   O     O_R   0.781670 0.827580 0.704500 -0.532641
O16   O     O_R   0.218330 0.172420 0.295500 -0.532641
C5    C     C_R   0.948247 0.851348 0.693797 0.745804
C6    C     C_R   0.051753 0.148652 0.306203 0.745805
O17   O     O_R   0.787130 0.692240 0.685530 -0.524778
O18   O     O_R   0.212870 0.307760 0.314470 -0.524778
C7    C     C_R   0.956117 0.669250 0.666784 0.737659
C8    C     C_R   0.043883 0.330750 0.333216 0.737659
V3    V     V_3+5 0.675510 0.751130 0.743690 1.456610
V4    V     V_3+5 0.324490 0.248870 0.256310 1.456610
O19   O     O_3   0.952780 0.743870 0.783980 -0.368187
O20   O     O_3   0.047220 0.256130 0.216020 -0.368187
C9    C     C_1   0.966687 0.617225 0.614712 -0.185889
C10   C     C_1   0.033313 0.382774 0.385288 -0.185889
C11   C     C_1   0.978252 0.573713 0.571894 0.016768
C12   C     C_1   0.021748 0.426287 0.428105 0.016768
C13   C     C_1   0.993443 0.521878 0.521306 0.010380
C14   C     C_1   0.006557 0.478122 0.478694 0.010380
C15   C     C_R   0.949328 0.912210 0.661881 -0.067380
C16   C     C_R   0.050672 0.087790 0.338119 -0.067380
C17   C     C_R   0.904266 0.035182 0.664687 -0.151464
C18   C     C_R   0.095734 0.964817 0.335313 -0.151464
C19   C     C_R   0.893129 0.975269 0.690979 -0.197019
C20   C     C_R   0.106871 0.024731 0.309021 -0.197019
C21   C     C_R   0.005239 0.908416 0.603800 0.063047
C22   C     C_R   0.994761 0.091584 0.396200 0.063047
C23   C     C_R   0.982763 0.968159 0.573513 0.056366
C24   C     C_R   0.017237 0.031841 0.426487 0.056366
C25   C     C_R   0.952167 0.032342 0.606825 0.112369
C26   C     C_R   0.047832 0.967658 0.393175 0.112369
C27   C     C_R   0.993663 0.968198 0.512386 0.063853
C28   C     C_R   0.006337 0.031802 0.487614 0.063853
C29   C     C_R   0.019710 0.092536 0.525105 -0.136508
C30   C     C_R   0.980290 0.907464 0.474895 -0.136508
C31   C     C_R   0.978637 0.093498 0.582815 -0.176954
C32   C     C_R   0.021362 0.906502 0.417185 -0.176954
H1    H     H_    0.974626 0.142401 0.609363 0.132610
H2    H     H_    0.025374 0.857599 0.390636 0.132610
H3    H     H_    0.148563 0.021408 0.264524 0.114397
H4    H     H_    0.851437 0.978592 0.735476 0.114397
H5    H     H_    0.874336 0.084024 0.689650 0.122844
H6    H     H_    0.125664 0.915976 0.310350 0.122844
H7    H     H_    0.064275 0.139930 0.510627 0.165717
H8    H     H_    0.935725 0.860070 0.489373 0.165717
C33   C     C_R   0.485239 0.585861 0.835811 -0.042454
C34   C     C_R   0.514761 0.414139 0.164189 -0.042454
C35   C     C_R   0.590361 0.467183 0.833350 -0.128569
C36   C     C_R   0.409640 0.532817 0.166650 -0.128569
C37   C     C_R   0.552940 0.525262 0.805476 -0.195251
C38   C     C_R   0.447061 0.474737 0.194524 -0.195250
C39   C     C_R   0.455592 0.588061 0.895101 -0.200726
C40   C     C_R   0.544406 0.411938 0.104899 -0.200727
C41   C     C_R   0.496976 0.529661 0.925282 0.048970
C42   C     C_R   0.503023 0.470338 0.074718 0.048970
C43   C     C_R   0.565183 0.468545 0.892902 0.135918
C44   C     C_R   0.434816 0.531455 0.107098 0.135917
C45   C     C_R   0.476197 0.530153 0.986265 0.025805
C46   C     C_R   0.523800 0.469847 0.013735 0.025805
C47   C     C_R   0.590026 0.410825 0.979343 -0.230564
C48   C     C_R   0.409971 0.589175 0.020657 -0.230564
C49   C     C_R   0.610178 0.409735 0.920234 0.167591
C50   C     C_R   0.389821 0.590265 0.079765 0.167591
H9    H     H_    0.593731 0.363344 0.083763 0.095548
H10   H     H_    0.406267 0.636656 0.916237 0.095548
H11   H     H_    0.421340 0.476904 0.240099 0.112784
H12   H     H_    0.578662 0.523096 0.759901 0.112784
H13   H     H_    0.642723 0.421337 0.807894 0.161675
H14   H     H_    0.357279 0.578663 0.192106 0.161675
H15   H     H_    0.628884 0.363822 0.996914 0.126147
H16   H     H_    0.371112 0.636177 0.003085 0.126147
C51   C     C_1   0.467287 0.882815 0.885231 -0.217998
C52   C     C_1   0.532713 0.117185 0.114769 -0.217998
C53   C     C_1   0.478709 0.926331 0.928057 -0.002292
C54   C     C_1   0.521291 0.073669 0.071943 -0.002292
C55   C     C_1   0.493588 0.978138 0.978677 -0.003167
C56   C     C_1   0.506412 0.021862 0.021323 -0.003167
I1    I     I_    0.824891 0.180612 0.427396 -0.426953
I2    I     I_    0.175109 0.819388 0.572604 -0.426953
N1    N     N_3   0.678866 0.347914 0.887861 -0.688249
H17   H     H_    0.585261 0.308416 0.893981 0.233405
H18   H     H_    0.814015 0.335157 0.904421 0.235185
N2    N     N_3   0.321134 0.652086 0.112139 -0.688251
H19   H     H_    0.414737 0.691585 0.106018 0.233405
H20   H     H_    0.185983 0.664842 0.095580 0.235186

loop_
_geom_bond_atom_site_label_1
_geom_bond_atom_site_label_2
_ccdc_geom_bond_type
C2    C34   S    
O6    C8    A    
O13   V3    S    
C55   C56   T    
C17   H5    S    
O4    C2    A    
V1    O19   S    
C23   C25   A    
C45   C46   A    
C7    C9    S    
C16   C22   A    
O9    V1    S    
C42   C44   A    
C11   C13   S    
O3    C1    A    
C21   I2    S    
C9    C11   T    
C33   C37   A    
C1    C33   S    
C20   H3    S    
O12   V4    S    
C21   C23   A    
O7    C3    A    
C53   C55   S    
C6    C16   S    
O5    C7    A    
O7    V1    S    
C34   C40   A    
O8    V2    S    
O3    V1    S    
O14   V4    S    
C18   H6    S    
C10   C12   T    
C15   C21   A    
C24   C26   A    
C8    C10   S    
C2    O12   A    
C3    C51   S    
C17   C19   A    
C18   C20   A    
C17   C25   A    
O11   V3    S    
C22   C24   A    
C29   C31   A    
O17   V3    S    
C30   C32   A    
C27   C28   A    
C48   C50   A    
O8    C4    A    
C44   C50   A    
C47   C49   A    
C46   C47   A    
C43   C49   A    
C15   C19   A    
C1    O11   A    
C49   N1    S    
C25   C31   A    
O15   V3    S    
C26   C32   A    
C35   C37   A    
C54   C56   S    
C13   C14   T    
C51   C53   T    
N1    H17   S    
C16   C20   A    
O10   V2    S    
C52   C54   T    
C50   N2    S    
C36   C44   A    
N2    H20   S    
C4    C52   S    
C19   H4    S    
C18   C26   A    
C40   C42   A    
N1    H18   S    
C22   I1    S    
O18   V4    S    
C31   H1    S    
C36   H14   S    
O16   C6    A    
O1    C3    A    
C41   C43   A    
C12   C14   S    
C28   C29   A    
C39   C41   A    
C39   H10   S    
V2    O20   S    
C45   C48   A    
O16   V4    S    
C35   H13   S    
C23   C27   A    
O5    V1    S    
O17   C7    A    
O6    V2    S    
O10   C6    A    
O18   C8    A    
O2    V4    S    
C27   C30   A    
O15   C5    A    
V3    O19   S    
C33   C39   A    
V4    O20   S    
C29   H7    S    
O1    V3    S    
C34   C38   A    
C30   H8    S    
C5    C15   S    
O9    C5    A    
O13   V1    S    
C32   H2    S    
O14   V2    S    
C48   H16   S    
N2    H19   S    
O2    C4    A    
C47   H15   S    
C40   H9    S    
O4    V2    S    
C24   C28   A    
C35   C43   A    
C36   C38   A    
C42   C46   A    
C41   C45   A    
C38   H11   S    
C37   H12   S    
