data_mof_unit_13792.cif
_audit_creation_date              2012-12-11T19:05:11-0500
_audit_creation_method            fapswitch 2.2
_symmetry_space_group_name_H-M    P1
_symmetry_Int_Tables_number       1
_space_group_crystal_system       triclinic
_cell_length_a                    8.223474
_cell_length_b                    15.092166
_cell_length_c                    22.815734
_cell_angle_alpha                 98.154707
_cell_angle_beta                  88.995508
_cell_angle_gamma                 98.900954
_cell_volume                      2769.24536323

loop_
_atom_site_label
_atom_site_type_symbol
_atom_type_description
_atom_site_fract_x
_atom_site_fract_y
_atom_site_fract_z
_atom_type_partial_charge
Ba1   Ba    Ba6+2 0.856840 0.543240 0.473380 1.680860
Ba2   Ba    Ba6+2 0.332990 0.456840 0.526630 1.697833
C1    C     C_3   0.549320 0.802326 0.269415 -0.360320
C2    C     C_3   0.637819 0.781765 0.322675 0.495969
C3    C     C_3   0.477164 0.342360 0.344880 0.311283
C4    C     C_3   0.512212 0.337503 0.278665 -0.364143
C5    C     C_3   0.047551 0.260750 0.678342 0.314908
C6    C     C_3   0.055871 0.233775 0.739745 -0.300414
C7    C     C_3   0.511737 0.215235 0.658014 0.323232
C8    C     C_3   0.441951 0.122018 0.673322 -0.350068
C9    C     C_R   0.341880 0.528139 0.332868 -0.277014
C10   C     C_R   0.105977 0.579934 0.940812 -0.066408
C11   C     C_R   0.055112 0.573380 0.880540 0.636255
C12   C     C_3   0.131196 0.728159 0.316504 0.373677
C13   C     C_R   0.950057 0.415400 0.878317 0.576839
C14   C     C_R   0.996194 0.419235 0.937920 -0.008305
C15   C     C_R   0.074341 0.501477 0.969394 -0.079083
C16   C     C_R   0.186790 0.661512 0.974084 0.209479
C17   C     C_R   0.231250 0.663310 0.033365 -0.075219
C18   C     C_R   0.199162 0.585839 0.061890 -0.050070
C19   C     C_R   0.120882 0.504688 0.029783 -0.052829
C20   C     C_R   0.966108 0.341615 0.966595 -0.062854
C21   C     C_R   0.012325 0.345066 0.025445 -0.062662
C22   C     C_R   0.089880 0.426324 0.057838 -0.026093
C23   C     C_3   0.102831 0.749012 0.254425 -0.270572
C24   C     C_R   0.137774 0.430327 0.117551 0.604925
C25   C     C_R   0.244057 0.588160 0.121924 0.585718
C26   C     C_2   0.781024 0.442652 0.768036 -0.065901
C27   C     C_3   0.752592 0.413485 0.702558 -0.054490
C28   C     C_1   0.003517 0.517336 0.685662 0.028018
C29   C     C_2   0.050407 0.521745 0.741974 -0.096556
C30   C     C_2   0.931722 0.485531 0.787418 0.191337
C31   C     C_R   0.415812 0.554828 0.232897 -0.113990
C32   C     C_R   0.456527 0.562869 0.293116 -0.041048
C33   C     C_R   0.190165 0.479830 0.313211 -0.014164
C34   C     C_3   0.231393 0.736660 0.603728 0.323364
C35   C     C_R   0.144607 0.475845 0.253295 -0.095406
C36   C     C_R   0.256687 0.514457 0.212199 0.220715
C37   C     C_2   0.861232 0.471436 0.664581 -0.296104
C38   C     C_R   0.343668 0.823264 0.462305 -0.015329
C39   C     C_R   0.578075 0.791547 0.513302 0.075846
C40   C     C_R   0.772106 0.225666 0.500168 -0.254132
C41   C     C_R   0.857849 0.168863 0.525706 0.032112
C42   C     C_R   0.791636 0.077684 0.524270 -0.113619
C43   C     C_R   0.637943 0.041120 0.496289 0.016385
C44   C     C_R   0.553061 0.099729 0.467229 -0.037515
C45   C     C_3   0.255078 0.838894 0.621746 -0.362079
C46   C     C_R   0.568196 0.947394 0.495003 0.033780
C47   C     C_R   0.413050 0.915394 0.467155 -0.049077
C48   C     C_R   0.331587 0.974303 0.441847 -0.081608
C49   C     C_R   0.402361 0.061512 0.436917 0.172787
C50   C     C_R   0.646398 0.883603 0.519942 -0.093882
C51   C     C_R   0.430665 0.761755 0.482790 -0.277189
C52   C     C_R   0.621929 0.193185 0.471397 0.006441
C53   C     C_3   0.935330 0.262883 0.308850 0.412565
C54   C     C_3   0.831238 0.173868 0.319458 -0.252446
C55   C     C_3   0.712757 0.659362 0.651685 0.299415
C56   C     C_3   0.730714 0.683617 0.718652 -0.009096
H1    H     H_    0.340877 0.858609 0.660069 0.152589
H2    H     H_    0.306950 0.874075 0.584636 0.043350
H3    H     H_    0.134854 0.860928 0.634207 0.128996
H4    H     H_    0.853577 0.305740 0.292474 0.019295
H5    H     H_    0.910578 0.122440 0.324887 0.171190
H6    H     H_    0.745892 0.147561 0.281614 0.113513
H7    H     H_    0.759147 0.183612 0.360459 0.108614
H8    H     H_    0.830261 0.640990 0.633432 -0.028017
H9    H     H_    0.613556 0.600509 0.641700 0.069924
H10   H     H_    0.639809 0.827226 0.236476 0.159015
H11   H     H_    0.829466 0.742559 0.729582 0.117535
H12   H     H_    0.763841 0.625585 0.738091 0.028572
H13   H     H_    0.547402 0.760763 0.356893 -0.048337
H14   H     H_    0.470906 0.854991 0.283823 0.115289
H15   H     H_    0.343841 0.340989 0.352343 0.051212
H16   H     H_    0.546477 0.406795 0.367457 0.046664
H17   H     H_    0.496865 0.266031 0.256919 0.182421
H18   H     H_    0.426804 0.372996 0.257205 0.098938
H19   H     H_    0.639087 0.370667 0.271065 0.108340
H20   H     H_    0.471296 0.740381 0.248000 0.121674
H21   H     H_    0.080446 0.684923 0.223287 0.099178
H22   H     H_    0.153051 0.314887 0.673809 0.107411
H23   H     H_    0.930891 0.287063 0.673943 -0.048132
H24   H     H_    0.157866 0.194245 0.742525 0.141916
H25   H     H_    0.079795 0.295697 0.772717 0.124787
H26   H     H_    0.938041 0.192283 0.750132 0.132741
H27   H     H_    0.647108 0.225482 0.665135 -0.042043
H28   H     H_    0.485059 0.215809 0.610445 0.053073
H29   H     H_    0.503796 0.069797 0.646324 0.066137
H30   H     H_    0.308057 0.106582 0.663609 0.151737
H31   H     H_    0.036628 0.670504 0.324536 0.106709
H32   H     H_    0.462825 0.119385 0.720960 0.136113
H33   H     H_    0.986634 0.283559 0.045557 0.142592
H34   H     H_    0.906503 0.277420 0.943508 0.134949
H35   H     H_    0.292278 0.726505 0.057299 0.150958
H36   H     H_    0.507930 0.579928 0.202327 0.111188
H37   H     H_    0.175495 0.550768 0.755338 0.151350
H38   H     H_    0.689154 0.417407 0.798832 0.120440
H39   H     H_    0.022902 0.442709 0.238845 0.117323
H40   H     H_    0.375234 0.533817 0.379056 0.070718
H41   H     H_    0.255040 0.708390 0.319115 -0.096221
H42   H     H_    0.835696 0.459816 0.617392 0.082879
H43   H     H_    0.378309 0.690783 0.478192 0.060627
H44   H     H_    0.212606 0.951178 0.421629 0.156769
H45   H     H_    0.760049 0.902588 0.544453 0.077710
H46   H     H_    0.823622 0.296635 0.502825 0.074207
H47   H     H_    0.862697 0.037563 0.545974 0.081039
H48   H     H_    0.994270 0.784060 0.253329 0.175100
H49   H     H_    0.210462 0.793848 0.239559 0.131029
H50   H     H_    0.352018 0.715621 0.592603 0.003663
H51   H     H_    0.147982 0.718812 0.564687 0.048151
N1    N     N_R   0.979527 0.491757 0.849819 -0.430117
N2    N     N_R   0.211399 0.511066 0.149841 -0.426202
O1    O     O_2   0.889550 0.449620 0.359410 -0.477008
O2    O     O_3   0.676070 0.734505 0.627847 -0.627361
O3    O     O_3   0.117149 0.804958 0.357666 -0.569363
O4    O     O_2   0.300150 0.550410 0.640630 -0.451490
O5    O     O_3   0.059590 0.549510 0.569530 -0.502786
O6    O     O_3   0.515610 0.383640 0.601250 -0.482614
O7    O     O_3   0.164812 0.695393 0.651589 -0.606334
O8    O     O_3   0.613300 0.389650 0.468010 -0.481740
O9    O     O_3   0.096810 0.336470 0.571300 -0.494177
O10   O     O_2   0.198816 0.176947 0.534646 -0.461444
O11   O     O_3   0.054119 0.184780 0.635733 -0.616166
O12   O     O_3   0.130120 0.450560 0.430480 -0.457367
O13   O     O_3   0.576410 0.610420 0.531990 -0.495099
O14   O     O_2   0.341630 0.276020 0.466390 -0.417928
O15   O     O_3   0.523524 0.266414 0.364786 -0.620983
O16   O     O_2   0.426462 0.456815 0.708134 -0.481533
O17   O     O_3   0.439177 0.282125 0.694122 -0.597655
O18   O     O_2   0.075160 0.640464 0.855588 -0.530170
O19   O     O_2   0.884151 0.343237 0.851593 -0.613983
O20   O     O_2   0.116237 0.361125 0.140386 -0.563155
O21   O     O_2   0.311549 0.659362 0.149305 -0.620601
O22   O     O_3   0.674100 0.616440 0.398760 -0.463394
O23   O     O_2   0.788403 0.550370 0.294673 -0.505282
O24   O     O_3   0.016921 0.303445 0.362084 -0.601385
O25   O     O_3   0.743605 0.718422 0.303743 -0.594508
O26   O     O_2   0.848070 0.724010 0.533650 -0.463507
O27   O     O_3   0.092910 0.663610 0.428710 -0.501485
O28   O     O_2   0.003462 0.823071 0.465629 -0.452790
P1    P     P_3+3 0.056010 0.422560 0.367570 1.006995
P2    P     P_3+3 0.670430 0.710550 0.550450 0.993773
P3    P     P_3+3 0.138521 0.779297 0.429435 0.977143
P4    P     P_3+3 0.133710 0.577520 0.632440 1.009857
P5    P     P_3+3 0.052352 0.217544 0.565169 0.977604
P6    P     P_3+3 0.663563 0.611253 0.321719 0.947887
P7    P     P_3+3 0.523846 0.279167 0.442324 1.003119
P8    P     P_3+3 0.533278 0.387829 0.677697 0.944542
I1    I     I_    0.784833 0.905402 0.360338 -0.417011
I2    I     I_    0.106358 0.229345 0.240869 -0.393463
I3    I     I_    0.505370 0.715330 0.758366 -0.306329
I4    I     I_    0.254011 0.787796 0.941446 -0.263812
I5    I     I_    0.261647 0.106786 0.371921 -0.351614

loop_
_geom_bond_atom_site_label_1
_geom_bond_atom_site_label_2
_ccdc_geom_bond_type
C53   C54   S    
C50   H45   S    
C25   O21   D    
C38   P3    S    
C34   H50   S    
C6    H25   S    
O1    P1    D    
C1    H10   S    
O9    P5    S    
O11   P5    S    
C55   H8    S    
C31   H36   S    
C35   H39   S    
O15   P7    S    
C5    C6    S    
C42   H47   S    
O8    P7    S    
C8    H30   S    
C35   C36   A    
C30   N1    S    
C9    H40   S    
C6    H24   S    
O3    P3    S    
C26   C27   S    
C33   C35   A    
C22   C24   A    
C16   C17   A    
O14   P7    D    
Ba1   O1    S    
C28   C29   D    
C33   P1    S    
C32   P6    S    
C53   O24   S    
C13   C14   A    
C2    I1    S    
C53   H4    S    
C34   C45   S    
Ba1   Ba2   S    
Ba1   O8    S    
C3    H16   S    
C47   C48   A    
C7    H27   S    
C45   H2    S    
Ba2   O5    S    
C17   C18   A    
C51   H43   S    
C14   C15   A    
C3    O15   S    
C21   C22   A    
C54   H6    S    
C16   I4    S    
Ba1   O5    S    
C34   O7    S    
C7    C8    S    
C39   C50   A    
O25   P6    S    
C17   H35   S    
C52   P7    S    
C27   P8    S    
C25   N2    Am   
C6    H26   S    
Ba2   P4    S    
O10   P5    D    
C44   C52   A    
C41   P5    S    
C55   H9    S    
Ba1   O22   S    
Ba2   O6    S    
C23   H48   S    
C53   I2    S    
C55   C56   S    
O24   P1    S    
O4    P4    D    
C8    H29   S    
C7    O17   S    
C4    H17   S    
Ba1   P2    S    
O7    P4    S    
O27   P3    S    
Ba2   O9    S    
C56   H12   S    
C4    H19   S    
C55   O2    S    
C48   C49   A    
Ba2   O12   S    
O12   P1    S    
C15   C19   A    
C28   P4    S    
C10   C15   A    
C41   C42   A    
Ba1   O12   S    
C12   H31   S    
C39   P2    S    
C11   N1    Am   
C7    H28   S    
O5    P4    S    
Ba2   O4    S    
C29   C30   S    
C26   C30   D    
C27   C37   S    
C31   C32   A    
C54   H5    S    
O6    P8    S    
C56   H11   S    
C10   C11   A    
C39   C51   A    
Ba1   P1    S    
C46   C47   A    
C5    H23   S    
C49   I5    S    
C48   H44   S    
C21   H33   S    
O13   P2    S    
O22   P6    S    
C40   C41   A    
C5    O11   S    
C1    C2    S    
Ba1   O26   S    
C42   C43   A    
C23   H49   S    
C43   C46   A    
C54   H7    S    
O23   P6    D    
O26   P2    D    
C14   C20   A    
C23   H21   S    
C9    C32   A    
C20   H34   S    
C40   H46   S    
C45   H3    S    
Ba2   O8    S    
O17   P8    S    
C4    H18   S    
C18   C25   A    
Ba2   O13   S    
C31   C36   A    
C2    O25   S    
C26   H38   S    
C9    C33   A    
C1    H14   S    
Ba1   O13   S    
C12   O3    S    
C40   C52   A    
C12   H41   S    
C37   H42   S    
C3    C4    S    
C13   O19   D    
C29   H37   S    
C44   C49   A    
O28   P3    D    
O2    P2    S    
C28   C37   D    
C56   I3    S    
C12   C23   S    
C3    H15   S    
C13   N1    Am   
Ba1   O27   S    
C45   H1    S    
Ba2   O14   S    
C43   C44   A    
C46   C50   A    
C18   C19   A    
C8    H32   S    
C38   C51   A    
C19   C22   A    
C10   C16   A    
C34   H51   S    
C11   O18   D    
C20   C21   A    
C36   N2    S    
C1    H20   S    
C24   N2    Am   
C2    H13   S    
C24   O20   D    
C38   C47   A    
O16   P8    D    
C5    H22   S    
