data_mof_unit_38602.cif
_audit_creation_date              2012-10-26T20:02:30-0400
_audit_creation_method            fapswitch 2.2
_symmetry_space_group_name_H-M    P1
_symmetry_Int_Tables_number       1
_space_group_crystal_system       triclinic
_cell_length_a                    19.046659
_cell_length_b                    18.704668
_cell_length_c                    12.429979
_cell_angle_alpha                 89.778817
_cell_angle_beta                  130.120635
_cell_angle_gamma                 89.694657
_cell_volume                      3386.08870444

loop_
_atom_site_label
_atom_site_type_symbol
_atom_type_description
_atom_site_fract_x
_atom_site_fract_y
_atom_site_fract_z
_atom_type_partial_charge
C1    C     C_R   0.607785 0.895423 0.647558 0.582268
C2    C     C_R   0.654663 0.729771 0.021496 0.038531
C3    C     C_R   0.169229 0.764850 0.034671 0.047197
C4    C     C_R   0.154663 0.229771 0.021496 0.038530
C5    C     C_R   0.590570 0.233285 0.913684 0.126728
C6    C     C_R   0.578069 0.770923 0.912821 0.122006
C7    C     C_R   0.090570 0.733285 0.913684 0.126728
C8    C     C_R   0.078069 0.270923 0.912821 0.122006
C9    C     C_R   0.593890 0.203872 0.814674 -0.071869
C10   C     C_R   0.576400 0.798219 0.806009 -0.087193
C11   C     C_R   0.093890 0.703872 0.814674 -0.071869
C12   C     C_R   0.612598 0.101227 0.653868 0.576296
C13   C     C_R   0.076400 0.298219 0.806009 -0.087193
C14   C     C_R   0.320922 0.812454 0.156229 -0.090672
C15   C     C_R   0.303133 0.175435 0.129687 -0.098235
C16   C     C_R   0.820922 0.312454 0.156229 -0.090672
C17   C     C_R   0.803133 0.675435 0.129687 -0.098235
C18   C     C_R   0.240346 0.837486 0.242576 -0.145798
C19   C     C_R   0.237292 0.163169 0.242013 -0.149340
C20   C     C_R   0.740346 0.337486 0.242576 -0.145798
C21   C     C_R   0.737292 0.663169 0.242013 -0.149340
C22   C     C_R   0.683045 0.154190 0.751234 -0.010698
C23   C     C_R   0.107785 0.395422 0.647558 0.582268
C24   C     C_R   0.658799 0.827705 0.717830 -0.019006
C25   C     C_R   0.183045 0.654190 0.751234 -0.010698
C26   C     C_R   0.158799 0.327705 0.717830 -0.019006
C27   C     C_R   0.685256 0.983899 0.291685 -0.121923
C28   C     C_R   0.185256 0.483899 0.291685 -0.121923
C29   C     C_R   0.342508 0.002954 0.624426 0.051685
C30   C     C_R   0.842508 0.502954 0.624426 0.051685
C31   C     C_R   0.306680 0.002667 0.693538 0.113384
C32   C     C_R   0.806680 0.502667 0.693538 0.113384
C33   C     C_R   0.383586 0.098720 0.341500 0.526710
C34   C     C_R   0.112598 0.601227 0.653868 0.576296
C35   C     C_R   0.385107 0.900937 0.343571 0.530415
C36   C     C_R   0.883586 0.598720 0.341500 0.526710
C37   C     C_R   0.885107 0.400937 0.343571 0.530415
C38   C     C_R   0.366804 0.997975 0.840785 -0.085954
C39   C     C_R   0.866804 0.497975 0.840785 -0.085954
C40   C     C_R   0.462673 0.995621 0.920601 -0.098589
C41   C     C_R   0.962673 0.495621 0.920601 -0.098589
C42   C     C_R   0.496084 0.996386 0.844896 0.127667
C43   C     C_R   0.996084 0.496386 0.844896 0.127667
C44   C     C_R   0.526477 0.993878 0.072720 -0.070747
C45   C     C_R   0.251064 0.766961 0.053266 0.011131
C46   C     C_R   0.026477 0.493878 0.072720 -0.070747
C47   C     C_R   0.621442 0.986153 0.144913 -0.034383
C48   C     C_R   0.121442 0.486153 0.144913 -0.034384
C49   C     C_R   0.653477 0.983393 0.071371 0.133681
C50   C     C_R   0.153477 0.483393 0.071371 0.133682
C51   C     C_R   0.593140 0.992635 0.926607 0.408863
C52   C     C_R   0.093140 0.492635 0.926607 0.408863
C53   C     C_R   0.501156 0.000308 0.158076 0.044619
C54   C     C_R   0.001156 0.500308 0.158076 0.044619
C55   C     C_R   0.657466 0.993027 0.369840 0.278705
C56   C     C_R   0.224927 0.212364 0.015500 0.009403
C57   C     C_R   0.157465 0.493027 0.369840 0.278704
C58   C     C_R   0.666811 0.297215 0.134448 -0.131612
C59   C     C_R   0.661818 0.704287 0.135213 -0.133292
C60   C     C_R   0.166811 0.797215 0.134448 -0.131612
C61   C     C_R   0.161818 0.204287 0.135213 -0.133292
C62   C     C_R   0.315625 0.847995 0.249350 -0.011531
C63   C     C_R   0.308210 0.148280 0.239344 -0.018412
C64   C     C_R   0.815625 0.347995 0.249350 -0.011531
C65   C     C_R   0.808210 0.648280 0.239344 -0.018412
C66   C     C_R   0.764706 0.152915 0.773139 -0.197623
C67   C     C_R   0.751064 0.266961 0.053266 0.011131
C68   C     C_R   0.718707 0.802206 0.697379 -0.188607
C69   C     C_R   0.264707 0.652915 0.773139 -0.197623
C70   C     C_R   0.218707 0.302206 0.697379 -0.188607
C71   C     C_R   0.344164 0.681273 0.894027 -0.101885
C72   C     C_R   0.271825 0.241470 0.767855 -0.115358
C73   C     C_R   0.844164 0.181273 0.894027 -0.101885
C74   C     C_R   0.771825 0.741470 0.767855 -0.115358
C75   C     C_R   0.342595 0.715649 0.991311 0.367413
C76   C     C_R   0.273169 0.208866 0.870065 0.351776
C77   C     C_R   0.842596 0.215649 0.991311 0.367413
C78   C     C_R   0.724927 0.712364 0.015500 0.009404
C79   C     C_R   0.773169 0.708866 0.870065 0.351776
C80   C     C_R   0.758035 0.227316 0.962879 0.025974
C81   C     C_R   0.717913 0.736257 0.900218 0.029049
C82   C     C_R   0.258035 0.727316 0.962879 0.025974
C83   C     C_R   0.217913 0.236257 0.900218 0.029049
C84   C     C_R   0.677577 0.195301 0.841582 -0.046583
C85   C     C_R   0.650738 0.788530 0.808063 -0.058364
C86   C     C_R   0.177577 0.695301 0.841582 -0.046583
C87   C     C_R   0.150738 0.288530 0.808063 -0.058364
C88   C     C_3   0.778792 0.902255 0.156211 -0.295507
C89   C     C_R   0.669229 0.264850 0.034671 0.047197
C90   C     C_3   0.278792 0.402255 0.156213 -0.295507
C91   C     C_3   0.162161 0.066726 0.526700 -0.283045
C92   C     C_3   0.662161 0.566726 0.526700 -0.283045
C93   C     C_3   0.498348 0.174283 0.957322 -0.272740
C94   C     C_3   0.415895 0.806621 0.789490 -0.307681
C95   C     C_3   0.998348 0.674283 0.957322 -0.272740
C96   C     C_3   0.915896 0.306621 0.789490 -0.307680
C97   C     C_3   0.807181 0.029034 0.587291 -0.330500
C98   C     C_3   0.307181 0.529034 0.587291 -0.330500
Cu1   Cu    Cu3+1 0.526340 0.000000 0.421010 0.985378
Cu2   Cu    Cu3+1 0.026340 0.500000 0.421010 0.985378
Cu3   Cu    Cu3+1 0.473640 0.000000 0.578990 0.982165
Cu4   Cu    Cu3+1 0.973640 0.500000 0.578990 0.982165
F1    F     F_    0.636466 0.999308 0.875449 -0.614255
F2    F     F_    0.136465 0.499308 0.875449 -0.614255
F3    F     F_    0.425401 0.731078 0.116591 -0.675817
F4    F     F_    0.320603 0.146400 0.926455 -0.704129
F5    F     F_    0.925401 0.231078 0.116591 -0.675817
F6    F     F_    0.820603 0.646400 0.926455 -0.704129
H1    H     H_    0.235421 0.864299 0.314629 0.128569
H2    H     H_    0.796700 0.504250 0.510744 0.132968
H3    H     H_    0.336835 0.996257 0.890445 0.143100
H4    H     H_    0.836835 0.496257 0.890445 0.143100
H5    H     H_    0.607217 0.293938 0.127195 0.121064
H6    H     H_    0.608536 0.714765 0.141337 0.168549
H7    H     H_    0.107217 0.793938 0.127195 0.121064
H8    H     H_    0.108537 0.214765 0.141337 0.168549
H9    H     H_    0.377011 0.825258 0.158847 0.208752
H10   H     H_    0.362426 0.168871 0.137193 0.198927
H11   H     H_    0.877011 0.325258 0.158847 0.208752
H12   H     H_    0.239448 0.142289 0.325519 0.128676
H13   H     H_    0.862425 0.668871 0.137193 0.198927
H14   H     H_    0.769089 0.124295 0.702905 0.145110
H15   H     H_    0.722887 0.827857 0.623672 0.127814
H16   H     H_    0.269089 0.624294 0.702905 0.145110
H17   H     H_    0.222887 0.327857 0.623672 0.127814
H18   H     H_    0.408647 0.673411 0.915837 0.164375
H19   H     H_    0.312298 0.219799 0.742608 0.142914
H20   H     H_    0.908647 0.173411 0.915837 0.164375
H21   H     H_    0.812298 0.719799 0.742608 0.142914
H22   H     H_    0.529385 0.187401 0.716508 0.155353
H23   H     H_    0.735421 0.364299 0.314629 0.128569
H24   H     H_    0.515065 0.825110 0.718428 0.155297
H25   H     H_    0.029385 0.687401 0.716508 0.155353
H26   H     H_    0.015065 0.325110 0.718428 0.155297
H27   H     H_    0.775087 0.010255 0.113587 0.301058
H28   H     H_    0.854780 0.899860 0.224865 0.138249
H29   H     H_    0.748825 0.881882 0.050702 0.184229
H30   H     H_    0.757455 0.867617 0.203380 0.148707
H31   H     H_    0.275087 0.510254 0.113586 0.301059
H32   H     H_    0.354780 0.399860 0.224866 0.138249
H33   H     H_    0.248824 0.381880 0.050704 0.184228
H34   H     H_    0.739448 0.642289 0.325519 0.128676
H35   H     H_    0.257456 0.367617 0.203384 0.148707
H36   H     H_    0.189645 0.990754 0.671878 0.258080
H37   H     H_    0.087502 0.061967 0.469278 0.157831
H38   H     H_    0.171431 0.071930 0.447556 0.139000
H39   H     H_    0.187703 0.115496 0.592288 0.174172
H40   H     H_    0.689645 0.490754 0.671878 0.258081
H41   H     H_    0.587502 0.561966 0.469278 0.157831
H42   H     H_    0.671431 0.571930 0.447556 0.139000
H43   H     H_    0.687703 0.615496 0.592288 0.174172
H44   H     H_    0.482480 0.280669 0.890710 0.243956
H45   H     H_    0.757334 0.975321 0.346476 0.143609
H46   H     H_    0.488829 0.196417 0.030017 0.165861
H47   H     H_    0.560201 0.138884 0.019198 0.155499
H48   H     H_    0.438092 0.141548 0.877129 0.203595
H49   H     H_    0.528831 0.819299 0.003339 0.266578
H50   H     H_    0.368064 0.810973 0.811427 0.157839
H51   H     H_    0.390785 0.764428 0.709692 0.148373
H52   H     H_    0.415692 0.859079 0.747810 0.151096
H53   H     H_    0.982480 0.780669 0.890710 0.243956
H54   H     H_    0.988829 0.696418 0.030016 0.165861
H55   H     H_    0.060201 0.638884 0.019198 0.155499
H56   H     H_    0.257335 0.475321 0.346476 0.143609
H57   H     H_    0.938092 0.641548 0.877129 0.203595
H58   H     H_    0.028831 0.319299 0.003339 0.266578
H59   H     H_    0.868064 0.310973 0.811427 0.157839
H60   H     H_    0.890785 0.264428 0.709692 0.148373
H61   H     H_    0.915691 0.359079 0.747810 0.151096
H62   H     H_    0.737825 0.937101 0.555079 0.243101
H63   H     H_    0.852750 0.002604 0.572579 0.120343
H64   H     H_    0.845682 0.030195 0.702311 0.144152
H65   H     H_    0.791502 0.084682 0.545478 0.151046
H66   H     H_    0.237825 0.437101 0.555079 0.243101
H67   H     H_    0.430436 0.005718 0.112491 0.148243
H68   H     H_    0.352750 0.502604 0.572580 0.120343
H69   H     H_    0.345683 0.530195 0.702311 0.144152
H70   H     H_    0.291502 0.584682 0.545478 0.151046
H71   H     H_    0.930436 0.505717 0.112491 0.148243
H72   H     H_    0.296700 0.004250 0.510744 0.132968
N1    N     N_R   0.566260 0.000000 0.302220 -0.219342
N2    N     N_2   0.507100 0.788587 0.918193 -0.526982
N3    N     N_2   0.006040 0.731719 0.887071 -0.552618
N4    N     N_2   0.007100 0.288587 0.918193 -0.526982
N5    N     N_2   0.723234 0.989189 0.519408 -0.453798
N6    N     N_2   0.223234 0.489189 0.519408 -0.453798
N7    N     N_R   0.066260 0.500000 0.302220 -0.219342
N8    N     N_R   0.434410 0.000000 0.697680 -0.260561
N9    N     N_R   0.934410 0.500000 0.697680 -0.260561
N10   N     N_2   0.749461 0.975355 0.145033 -0.514985
N11   N     N_2   0.249461 0.475355 0.145033 -0.514985
N12   N     N_2   0.209872 0.004058 0.614840 -0.532029
N13   N     N_2   0.709872 0.504058 0.614840 -0.532029
N14   N     N_2   0.506040 0.231719 0.887071 -0.552617
O1    O     O_R   0.608610 0.924520 0.551740 -0.492254
O2    O     O_R   0.435880 0.924530 0.314850 -0.514364
O3    O     O_R   0.935880 0.575470 0.314850 -0.506955
O4    O     O_R   0.935880 0.424530 0.314850 -0.514364
O5    O     O_R   0.391380 0.075460 0.448260 -0.524169
O6    O     O_R   0.391380 0.924540 0.448260 -0.531206
O7    O     O_R   0.891380 0.575460 0.448260 -0.524169
O8    O     O_R   0.891380 0.424540 0.448260 -0.531206
O9    O     O_R   0.608610 0.075480 0.551740 -0.476472
O10   O     O_R   0.108610 0.424520 0.551740 -0.492255
O11   O     O_R   0.108610 0.575480 0.551740 -0.476472
O12   O     O_R   0.564110 0.924510 0.685150 -0.435965
O13   O     O_R   0.564110 0.075490 0.685150 -0.424083
O14   O     O_R   0.064110 0.424510 0.685150 -0.435964
O15   O     O_R   0.064110 0.575490 0.685150 -0.424083
O16   O     O_R   0.435880 0.075470 0.314850 -0.506955

loop_
_geom_bond_atom_site_label_1
_geom_bond_atom_site_label_2
_ccdc_geom_bond_type
C27   H45   S    
C83   C87   A    
C10   C85   A    
H53   N3    S    
C94   H51   S    
C12   C22   S    
C23   O14   A    
C13   H26   S    
C93   N14   S    
C18   H1    S    
C72   C76   A    
C91   H39   S    
Cu3   O6    S    
C39   C41   A    
C28   C57   A    
C88   N10   S    
C53   H67   S    
C8    C13   A    
C97   H64   S    
C30   H2    S    
C93   H46   S    
C1    O1    A    
Cu4   O7    S    
C21   H34   S    
C21   C59   A    
H31   N11   S    
C11   H25   S    
C1    O12   A    
C27   C55   A    
C43   C52   A    
C32   C39   A    
C33   O5    A    
C11   C86   A    
C68   C74   A    
C14   C62   A    
Cu1   O1    S    
C67   C89   A    
Cu4   N9    S    
C54   H71   S    
C68   H15   S    
C23   C26   S    
C69   C71   A    
C73   C77   A    
C22   C66   A    
C94   H52   S    
Cu3   O13   S    
C44   C53   A    
C28   C48   A    
C45   C82   A    
C19   C63   A    
C26   C87   A    
C49   C51   A    
C29   H72   S    
C58   H5    S    
C50   C52   A    
C41   C46   A    
C66   H14   S    
C71   H18   S    
C98   H70   S    
Cu3   N8    S    
C24   C85   A    
C90   H35   S    
C44   C47   A    
C4    C8    A    
C42   C51   A    
C21   C65   A    
Cu2   O3    S    
C8    N4    S    
C40   C42   A    
C94   H50   S    
C4    C56   A    
C41   C43   A    
C46   C54   A    
C2    C6    A    
C96   N4    S    
C95   H57   S    
C76   C83   A    
Cu2   Cu4   S    
C35   O6    A    
C14   C45   A    
C90   N11   S    
Cu1   O2    S    
C34   O11   A    
C5    C89   A    
C46   C48   A    
C71   C75   A    
C97   H65   S    
C72   H19   S    
C80   C84   A    
C30   C32   A    
C12   O13   A    
C77   F5    S    
Cu2   N7    S    
H58   N4    S    
C36   O3    A    
C88   H28   S    
C47   C49   A    
C92   N13   S    
C16   H11   S    
C79   C81   A    
C30   N9    A    
C18   C62   A    
C49   N10   S    
H36   N12   S    
C69   H16   S    
C9    H22   S    
C66   C73   A    
C4    C61   A    
C3    C45   A    
C22   C84   A    
C20   C64   A    
C7    C11   A    
H27   N10   S    
C5    C9    A    
C2    C78   A    
C34   O15   A    
C95   H55   S    
C98   H68   S    
C33   O16   A    
C93   H47   S    
C33   C63   S    
C14   H9    S    
C13   C87   A    
C92   H43   S    
C96   H60   S    
C55   N1    A    
C96   H59   S    
C75   C82   A    
C16   C67   A    
C37   O4    A    
C98   H69   S    
C50   N11   S    
C88   H30   S    
C57   N6    S    
C35   O2    A    
C70   H17   S    
C18   C60   A    
C39   H4    S    
Cu1   Cu3   S    
C6    N2    S    
C19   H12   S    
C75   F3    S    
C96   H61   S    
C12   O9    A    
C42   N8    A    
C92   H42   S    
C26   C70   A    
C25   C86   A    
C95   H54   S    
C25   C69   A    
C36   O7    A    
C20   H23   S    
C20   C58   A    
C91   H37   S    
C37   C64   S    
C28   H56   S    
C56   C83   A    
C77   C80   A    
C17   H13   S    
C52   F2    S    
C76   F4    S    
Cu1   O9    S    
C2    C59   A    
C61   H8    S    
C17   C65   A    
C93   H48   S    
C67   C80   A    
C32   N13   S    
C6    C10   A    
C90   H32   S    
Cu2   O11   S    
Cu3   O5    S    
Cu4   O15   S    
C53   N1    A    
C7    N3    S    
C73   H20   S    
C94   N2    S    
C91   N12   S    
C25   C34   S    
C37   O8    A    
C3    C7    A    
C27   C47   A    
C97   H63   S    
C15   H10   S    
H44   N14   S    
C23   O10   A    
C54   N7    A    
C15   C56   A    
C36   C65   S    
C31   C38   A    
Cu4   O8    S    
C98   N6    S    
C82   C86   A    
H66   N6    S    
C38   C40   A    
Cu2   O10   S    
C78   C81   A    
C95   N3    S    
Cu4   O14   S    
C19   C61   A    
C59   H6    S    
C31   N12   S    
H62   N5    S    
C48   C50   A    
C17   C78   A    
C74   C79   A    
C97   N5    S    
C79   F6    S    
C35   C62   S    
C55   N5    S    
C58   C89   A    
C10   H24   S    
C88   H29   S    
Cu1   N1    S    
C90   H33   S    
Cu3   O12   S    
C24   C68   A    
C9    C84   A    
H40   N13   S    
C40   C44   A    
C57   N7    A    
C43   N9    A    
C1    C24   S    
C29   C31   A    
H49   N2    S    
C74   H21   S    
C92   H41   S    
C29   N8    A    
C15   C63   A    
C60   H7    S    
C70   C72   A    
C16   C64   A    
C38   H3    S    
C3    C60   A    
C51   F1    S    
C91   H38   S    
C81   C85   A    
C5    N14   S    
Cu1   O16   S    
Cu2   O4    S    
