data_mof_unit_64182.cif
_audit_creation_date              2012-12-10T16:58:18-0500
_audit_creation_method            fapswitch 2.2
_symmetry_space_group_name_H-M    P1
_symmetry_Int_Tables_number       1
_space_group_crystal_system       triclinic
_cell_length_a                    21.753144
_cell_length_b                    21.75315
_cell_length_c                    22.286504
_cell_angle_alpha                 60.323344
_cell_angle_beta                  119.50199
_cell_angle_gamma                 90.18949
_cell_volume                      7560.52214983

loop_
_atom_site_label
_atom_site_type_symbol
_atom_type_description
_atom_site_fract_x
_atom_site_fract_y
_atom_site_fract_z
_atom_type_partial_charge
C1    C     C_R   0.619206 0.499553 0.501373 0.780021
C2    C     C_R   0.814255 0.308723 0.698674 0.000450
C3    C     C_R   0.868247 0.298859 0.684813 -0.087391
C4    C     C_R   0.421869 0.580256 0.339862 0.807022
C5    C     C_R   0.864971 0.355909 0.614182 -0.044873
C6    C     C_R   0.810787 0.428063 0.560667 0.010242
C7    C     C_R   0.750585 0.433267 0.568402 0.104368
C8    C     C_R   0.687979 0.497743 0.506012 -0.109823
C9    C     C_R   0.689411 0.561237 0.445436 -0.173018
C10   C     C_R   0.752822 0.562374 0.444526 -0.020181
C11   C     C_R   0.813459 0.495133 0.500389 -0.187411
C12   C     C_3   0.294659 0.708132 0.083017 0.151761
C13   C     C_3   0.758786 0.176418 0.027599 0.017384
C14   C     C_3   0.682697 0.237483 0.970715 -0.278722
C15   C     C_1   0.625681 0.374085 0.750002 -0.171832
C16   C     C_R   0.379355 0.501998 0.496329 0.798831
C17   C     C_1   0.874896 0.123846 0.250065 -0.114400
C18   C     C_3   0.784558 0.227900 0.972561 -0.199540
C19   C     C_3   0.709328 0.289183 0.917124 0.155895
C20   C     C_3   0.817235 0.258065 0.028384 -0.181064
C21   C     C_3   0.791274 0.206088 0.082850 0.150555
C22   C     C_3   0.741313 0.320234 0.971244 -0.193859
C23   C     C_3   0.181972 0.750655 0.973782 -0.037303
C24   C     C_3   0.716152 0.267410 0.026189 0.018242
C25   C     C_1   0.663635 0.335684 0.825426 -0.042478
C26   C     C_1   0.837280 0.160823 0.174672 0.070852
C27   C     C_R   0.227369 0.556121 0.339795 -0.109202
C28   C     C_R   0.580326 0.419642 0.660231 0.795085
C29   C     C_R   0.169627 0.547332 0.279653 -0.056096
C30   C     C_R   0.123552 0.508642 0.298985 -0.070806
C31   C     C_R   0.129682 0.483710 0.373563 -0.050058
C32   C     C_R   0.184766 0.496627 0.431649 0.020407
C33   C     C_R   0.241681 0.519289 0.421032 0.103495
C34   C     C_3   0.209422 0.791115 0.917291 0.154994
C35   C     C_R   0.310143 0.505017 0.492094 -0.027237
C36   C     C_R   0.314835 0.485759 0.564290 -0.199280
C37   C     C_R   0.252595 0.480657 0.566892 -0.185083
C38   C     C_R   0.186622 0.487402 0.500549 -0.097013
C39   C     C_R   0.998807 0.882235 0.498027 0.773893
C40   C     C_3   0.276388 0.720618 0.971563 -0.232062
C41   C     C_R   0.080224 0.919893 0.660242 0.798787
C42   C     C_R   0.001814 0.116822 0.503265 0.792669
C43   C     C_R   0.919824 0.079815 0.339789 0.803739
C44   C     C_R   0.003546 0.619250 0.499732 0.762035
C45   C     C_3   0.227626 0.778541 0.028779 -0.232038
C46   C     C_R   0.880765 0.498100 0.500041 0.734551
C47   C     C_R   0.001250 0.380804 0.500158 0.737952
C48   C     C_R   0.119130 0.494292 0.500247 0.750344
C49   C     C_R   0.988910 0.885553 0.361458 -0.229247
C50   C     C_R   0.996665 0.885570 0.302963 0.001354
C51   C     C_R   0.020968 0.817456 0.317136 -0.076439
C52   C     C_3   0.322796 0.748511 0.026852 -0.134677
C53   C     C_R   0.033530 0.749597 0.386728 -0.064510
C54   C     C_R   0.013918 0.750379 0.438845 0.009503
C55   C     C_R   0.999842 0.818431 0.431063 0.103572
C56   C     C_3   0.255207 0.819542 0.971335 -0.142063
C57   C     C_R   0.996304 0.818086 0.492834 -0.064691
C58   C     C_R   0.996564 0.753883 0.554774 -0.193298
C59   C     C_R   0.001089 0.689392 0.556834 -0.177271
C60   C     C_R   0.008772 0.686694 0.499275 -0.110958
C61   C     C_R   0.136145 0.122789 0.626634 -0.252448
C62   C     C_R   0.202862 0.128307 0.679104 0.046838
C63   C     C_R   0.204613 0.196939 0.668751 -0.104367
C64   C     C_1   0.378918 0.625402 0.250133 -0.141614
C65   C     C_R   0.139938 0.258278 0.609298 -0.202004
C66   C     C_R   0.071026 0.252850 0.558170 0.122880
C67   C     C_1   0.341529 0.662939 0.174732 0.012800
C68   C     C_R   0.070576 0.185258 0.563791 0.106712
C69   C     C_R   0.004248 0.181475 0.507195 -0.128097
C70   C     C_R   0.938687 0.241364 0.450113 -0.151860
C71   C     C_R   0.936339 0.307037 0.446535 -0.021259
C72   C     C_R   0.003023 0.313138 0.500985 -0.125718
C73   C     C_1   0.125386 0.875075 0.750041 -0.138821
C74   C     C_3   0.248857 0.680361 0.028716 -0.030065
C75   C     C_2   0.909229 0.334015 0.590582 0.456701
C76   C     C_2   0.755406 0.635756 0.387753 0.412854
C77   C     C_2   0.767094 0.096676 0.056221 0.385634
C78   C     C_1   0.163304 0.837298 0.825483 0.016708
C79   C     C_2   0.675682 0.291681 0.052945 0.384779
C80   C     C_2   0.259452 0.616483 0.311844 0.366757
C81   C     C_2   0.156870 0.576739 0.196883 0.374684
C82   C     C_2   0.086970 0.433714 0.395261 0.439083
C83   C     C_2   0.982980 0.957248 0.229683 0.438561
C84   C     C_2   0.078769 0.680596 0.411062 0.443917
C85   C     C_2   0.270323 0.061875 0.743887 0.369509
C86   C     C_2   0.862749 0.366965 0.386773 0.418055
C87   C     C_2   0.103961 0.750395 0.947156 0.365746
C88   C     C_2   0.243910 0.603089 0.058012 0.352876
C89   C     C_R   0.754220 0.374474 0.638776 -0.248968
C90   C     C_2   0.817404 0.249316 0.773056 0.384183
Cu1   Cu    Cu3+1 0.500040 0.438210 0.499990 1.001165
Cu2   Cu    Cu3+1 0.499960 0.561790 0.500010 1.027469
Cu3   Cu    Cu3+1 0.061810 0.999860 0.500010 0.974732
Cu4   Cu    Cu3+1 0.938190 0.999990 0.499990 1.035253
Cu5   Cu    Cu3+1 0.958570 0.541460 0.417120 1.041986
Cu6   Cu    Cu3+1 0.041430 0.458560 0.582880 0.991436
H1    H     H_    0.296103 0.696870 0.947682 0.153085
H2    H     H_    0.872702 0.266309 0.052491 0.160712
H3    H     H_    0.812338 0.211699 0.949665 0.160141
H4    H     H_    0.366564 0.476149 0.618210 0.142211
H5    H     H_    0.262241 0.634664 0.258909 0.030506
H6    H     H_    0.199001 0.593041 0.185370 0.079428
H7    H     H_    0.082341 0.497716 0.255346 0.217600
H8    H     H_    0.105647 0.396253 0.459892 0.003685
H9    H     H_    0.256072 0.471730 0.620949 0.165861
H10   H     H_    0.993269 0.753718 0.601822 0.157448
H11   H     H_    0.972718 0.938648 0.351216 0.132445
H12   H     H_    0.381339 0.747381 0.049468 0.158718
H13   H     H_    0.966439 0.009362 0.221425 0.080157
H14   H     H_    0.033548 0.817168 0.275868 0.216474
H15   H     H_    0.110413 0.632648 0.475544 0.031262
H16   H     H_    0.257548 0.877421 0.946907 0.155303
H17   H     H_    0.997677 0.641343 0.603342 0.163485
H18   H     H_    0.888575 0.236308 0.407905 0.200386
H19   H     H_    0.135962 0.068906 0.636377 0.135573
H20   H     H_    0.267777 0.009097 0.750727 0.066600
H21   H     H_    0.256003 0.203209 0.707170 0.177782
H22   H     H_    0.145619 0.309830 0.603708 0.148895
H23   H     H_    0.911015 0.245062 0.727156 0.215338
H24   H     H_    0.853732 0.413298 0.390728 0.082091
H25   H     H_    0.207711 0.801988 0.052756 0.163170
H26   H     H_    0.092440 0.719304 0.994232 0.109012
H27   H     H_    0.208533 0.591306 0.012446 0.088147
H28   H     H_    0.641223 0.611151 0.400360 0.188797
H29   H     H_    0.711147 0.380100 0.648680 0.127688
H30   H     H_    0.773661 0.257661 0.781331 0.060549
H31   H     H_    0.891771 0.366616 0.526255 -0.007163
H32   H     H_    0.808090 0.645467 0.400718 0.089792
H33   H     H_    0.627246 0.229155 0.946718 0.151361
H34   H     H_    0.742258 0.083209 0.010311 0.089703
H35   H     H_    0.622721 0.336166 0.005949 0.070233
H36   H     H_    0.733527 0.380073 0.947315 0.151196
O1    O     O_R   0.590210 0.447820 0.500000 -0.575652
O2    O     O_R   0.034940 0.555150 0.570020 -0.583160
O3    O     O_R   0.874830 0.535020 0.430000 -0.594418
O4    O     O_R   0.590150 0.552170 0.500020 -0.585367
O5    O     O_R   0.944810 0.465010 0.569970 -0.566411
O6    O     O_R   0.965060 0.444870 0.429980 -0.578886
O7    O     O_R   0.035040 0.374860 0.569950 -0.559007
O8    O     O_R   0.055190 0.535000 0.430030 -0.542385
O9    O     O_R   0.125170 0.465000 0.570000 -0.606027
O10   O     O_R   0.439580 0.508290 0.379070 -0.567430
O11   O     O_R   0.439510 0.612640 0.379090 -0.555324
O12   O     O_R   0.947780 0.909820 0.499990 -0.573516
O13   O     O_R   0.409850 0.447830 0.499980 -0.592819
O14   O     O_R   0.409790 0.552180 0.500000 -0.536675
O15   O     O_R   0.560490 0.387360 0.620910 -0.583472
O16   O     O_R   0.560420 0.491710 0.620930 -0.577064
O17   O     O_R   0.052170 0.909710 0.500000 -0.583854
O18   O     O_2   0.963760 0.278018 0.641856 -0.534725
O19   O     O_2   0.698170 0.687275 0.326256 -0.525064
O20   O     O_2   0.801394 0.046770 0.130597 -0.544969
O21   O     O_2   0.701654 0.261938 0.126996 -0.507662
O22   O     O_2   0.277914 0.651110 0.343982 -0.492951
O23   O     O_R   0.112650 0.939420 0.620930 -0.594769
O24   O     O_2   0.098771 0.582072 0.140126 -0.524058
O25   O     O_2   0.031651 0.432509 0.341610 -0.523184
O26   O     O_2   0.989631 0.959171 0.177527 -0.516729
O27   O     O_2   0.083556 0.677433 0.360223 -0.512844
O28   O     O_2   0.329426 0.065088 0.790424 -0.525840
O29   O     O_2   0.809885 0.364908 0.331779 -0.515332
O30   O     O_2   0.053358 0.784737 0.873127 -0.507673
O31   O     O_2   0.279254 0.553359 0.132522 -0.528066
O32   O     O_2   0.868796 0.190602 0.826094 -0.515605
O33   O     O_R   0.008260 0.939530 0.620910 -0.554073
O34   O     O_R   0.052220 0.090030 0.500010 -0.582454
O35   O     O_R   0.947830 0.090140 0.500000 -0.573748
O36   O     O_R   0.991740 0.060320 0.379090 -0.591121
O37   O     O_R   0.887350 0.060430 0.379070 -0.552654
O38   O     O_R   0.964960 0.625150 0.430050 -0.572855

loop_
_geom_bond_atom_site_label_1
_geom_bond_atom_site_label_2
_ccdc_geom_bond_type
C66   C68   A    
C21   C26   S    
C63   C65   A    
C34   C56   S    
Cu3   Cu4   S    
C23   C45   S    
C12   C74   S    
Cu2   O16   S    
C1    C8    S    
Cu3   O17   S    
Cu5   Cu6   S    
Cu1   O13   S    
Cu6   O7    S    
Cu1   O15   S    
C43   O37   A    
C7    C8    A    
C49   H11   S    
C89   H29   S    
C53   C54   A    
C27   C33   A    
C37   H9    S    
Cu5   O8    S    
C37   C38   A    
C31   C82   S    
C13   C18   S    
C53   C84   S    
C34   C40   S    
C17   C26   T    
C36   C37   A    
C69   C70   A    
C16   C35   S    
C4    O10   A    
C5    C6    A    
C63   H21   S    
C15   C25   T    
C27   C29   A    
C75   O18   D    
C39   C57   S    
C9    H28   S    
C77   O20   D    
C16   O14   A    
C18   C19   S    
C14   C24   S    
C2    C90   S    
Cu2   O11   S    
C46   O3    A    
C10   C76   S    
C66   C72   A    
C35   C36   A    
Cu3   O36   S    
C8    C9    A    
C28   O15   A    
C41   O33   A    
C30   H7    S    
C61   H19   S    
C65   H22   S    
C83   H13   S    
C70   C71   A    
C85   O28   D    
C32   C38   A    
C1    O4    A    
C9    C10   A    
C38   C48   S    
Cu1   O10   S    
Cu6   O9    S    
C59   C60   A    
C23   C87   S    
C13   C14   S    
Cu2   O4    S    
C4    O11   A    
C88   H27   S    
C1    O1    A    
Cu4   O33   S    
C12   C52   S    
C84   O27   D    
C50   C83   S    
C40   H1    S    
C81   H6    S    
C74   C88   S    
C44   O2    A    
C12   C67   S    
C13   C77   S    
C28   O16   A    
C84   H15   S    
C48   O8    A    
Cu2   O14   S    
C64   C67   T    
Cu3   O23   S    
C19   C22   S    
C45   C56   S    
C27   C80   S    
Cu1   Cu2   S    
C82   O25   D    
C68   C69   A    
Cu6   O2    S    
C76   O19   D    
C45   H25   S    
C58   C59   A    
C43   O36   A    
C73   C78   T    
C41   C73   S    
C42   C69   S    
C70   H18   S    
C90   O32   D    
C16   O13   A    
C58   H10   S    
C5    C75   S    
C2    C89   A    
C17   C43   S    
C29   C81   S    
C62   C63   A    
C79   O21   D    
C71   C86   S    
C24   C79   S    
C31   C32   A    
Cu1   O1    S    
C59   H17   S    
C23   C34   S    
C79   H35   S    
Cu5   O3    S    
C50   C51   A    
C90   H30   S    
C13   C21   S    
C36   H4    S    
C86   O29   D    
C20   C21   S    
C81   O24   D    
C3    H23   S    
C46   O5    A    
C14   H33   S    
C20   C22   S    
Cu3   O34   S    
C49   C50   A    
C51   H14   S    
C55   C57   A    
C76   H32   S    
C22   C24   S    
C18   H3    S    
C23   C74   S    
C15   C28   S    
C6    C11   A    
C42   O35   A    
C39   O17   A    
C54   C55   A    
Cu5   O6    S    
C22   H36   S    
C14   C19   S    
Cu6   O5    S    
C85   H20   S    
C12   C45   S    
C3    C5    A    
C49   C55   A    
Cu4   O35   S    
C87   H26   S    
C80   O22   D    
C6    C7    A    
C88   O31   D    
C4    C64   S    
C80   H5    S    
C54   C60   A    
Cu4   O12   S    
C32   C33   A    
C2    C3    A    
C71   C72   A    
Cu4   O37   S    
C40   C52   S    
C34   C78   S    
C61   C68   A    
C57   C58   A    
C30   C31   A    
C83   O26   D    
C44   C60   S    
C47   O6    A    
C33   C35   A    
C40   C74   S    
C48   O9    A    
C18   C20   S    
C77   H34   S    
C61   C62   A    
C19   C25   S    
Cu5   O38   S    
C44   O38   A    
C47   C72   S    
C10   C11   A    
C29   C30   A    
C52   C56   S    
C87   O30   D    
C20   H2    S    
C39   O12   A    
C52   H12   S    
C65   C66   A    
C21   C24   S    
C47   O7    A    
C82   H8    S    
C62   C85   S    
C11   C46   S    
C86   H24   S    
C51   C53   A    
C56   H16   S    
C42   O34   A    
C41   O23   A    
C75   H31   S    
C7    C89   A    
