data_mof_unit_30801.cif
_audit_creation_date              2012-12-10T17:32:13-0500
_audit_creation_method            fapswitch 2.2
_symmetry_space_group_name_H-M    P1
_symmetry_Int_Tables_number       1
_space_group_crystal_system       triclinic
_cell_length_a                    12.313947
_cell_length_b                    13.186767
_cell_length_c                    15.079387
_cell_angle_alpha                 77.579338
_cell_angle_beta                  101.254638
_cell_angle_gamma                 116.578654
_cell_volume                      2124.82310217

loop_
_atom_site_label
_atom_site_type_symbol
_atom_type_description
_atom_site_fract_x
_atom_site_fract_y
_atom_site_fract_z
_atom_type_partial_charge
C1    C     C_R   0.854878 0.286578 0.508005 0.780523
C2    C     C_R   0.903024 0.505917 0.076305 0.129785
C3    C     C_R   0.198736 0.490717 0.078358 -0.221550
C4    C     C_R   0.198071 0.490111 0.986026 0.574882
C5    C     C_R   0.099556 0.494957 0.923072 -0.027337
C6    C     C_R   0.000978 0.500422 0.953197 0.020060
C7    C     C_R   0.901627 0.505639 0.890302 0.140539
C8    C     C_R   0.804011 0.510745 0.920867 -0.201094
C9    C     C_R   0.804680 0.510828 0.013394 -0.171860
C10   C     C_R   0.097722 0.494578 0.830492 -0.152360
C11   C     C_R   0.999364 0.500057 0.767840 -0.100628
C12   C     C_R   0.999487 0.499814 0.671112 0.821559
C13   C     C_R   0.901612 0.505638 0.797868 -0.245468
C14   C     C_R   0.275522 0.021350 0.377697 -0.177888
C15   C     C_R   0.227986 0.834514 0.467517 -0.043030
C16   C     C_R   0.815486 0.085246 0.567839 -0.163343
C17   C     C_R   0.736725 0.970329 0.585746 -0.143774
C18   C     C_R   0.613375 0.932613 0.553503 -0.178661
C19   C     C_R   0.566599 0.009398 0.499062 0.081826
C20   C     C_R   0.650106 0.123829 0.471983 0.079626
C21   C     C_R   0.439926 0.976103 0.469731 0.074255
C22   C     C_R   0.400268 0.053313 0.407185 0.159866
C23   C     C_R   0.145099 0.713413 0.486487 0.791414
C24   C     C_R   0.485636 0.160448 0.373002 -0.226383
C25   C     C_R   0.608784 0.194616 0.403739 -0.194163
C26   C     C_R   0.351039 0.868481 0.501320 -0.244936
C27   C     C_R   0.189685 0.911997 0.407239 -0.188227
C28   C     C_R   0.773071 0.163589 0.513156 -0.111598
C29   C     C_R   0.347636 0.329122 0.646080 -0.350738
C30   C     C_R   0.759111 0.644992 0.375766 0.070718
C31   C     C_R   0.662297 0.676411 0.348890 -0.251283
C32   C     C_R   0.559008 0.621796 0.395561 -0.164475
C33   C     C_R   0.551334 0.534552 0.470268 0.019439
C34   C     C_R   0.000985 0.500613 0.328742 0.834389
C35   C     C_R   0.653146 0.505402 0.495383 0.282220
C36   C     C_R   0.447153 0.475344 0.521014 -0.032959
C37   C     C_R   0.447412 0.388708 0.595207 0.078648
C38   C     C_R   0.547260 0.361870 0.618562 -0.245284
C39   C     C_R   0.647684 0.418969 0.569988 -0.184247
C40   C     C_R   0.341933 0.497824 0.501898 -0.051651
C41   C     C_R   0.247366 0.355227 0.623825 0.796158
C42   C     C_R   0.904140 0.505974 0.168802 -0.334400
C43   C     C_R   0.002538 0.501002 0.231813 -0.181370
C44   C     C_R   0.101368 0.496386 0.201695 0.583610
C45   C     C_R   0.101156 0.495893 0.109157 -0.097983
C46   C     C_R   0.001715 0.500706 0.046282 -0.018029
Cu1   Cu    Cu3+1 0.098270 0.475420 0.521130 1.020190
Cu2   Cu    Cu3+1 0.901730 0.524580 0.478870 0.926512
H1    H     H_    0.827744 0.509338 0.191669 0.181971
H2    H     H_    0.457147 0.218284 0.322164 0.157169
H3    H     H_    0.244810 0.079851 0.329785 0.146730
H4    H     H_    0.374901 0.808209 0.551810 0.148680
H5    H     H_    0.909430 0.113220 0.598772 0.196441
H6    H     H_    0.557928 0.842318 0.570718 0.131743
H7    H     H_    0.770776 0.910488 0.627351 0.151733
H8    H     H_    0.670955 0.276118 0.371149 0.176597
H9    H     H_    0.548076 0.295855 0.675423 0.158264
H10   H     H_    0.347316 0.262677 0.702801 0.172331
H11   H     H_    0.333855 0.562155 0.446821 0.176943
H12   H     H_    0.838925 0.687939 0.339196 0.129430
H13   H     H_    0.486846 0.649543 0.371802 0.160052
H14   H     H_    0.667338 0.743364 0.291675 0.155316
H15   H     H_    0.719236 0.392184 0.593903 0.206519
H16   H     H_    0.275830 0.486958 0.125600 0.220092
H17   H     H_    0.173380 0.490670 0.807041 0.220606
H18   H     H_    0.825258 0.509408 0.749543 0.158227
H19   H     H_    0.727236 0.514651 0.873234 0.152867
H20   H     H_    0.728372 0.514796 0.035765 0.155843
H21   H     H_    0.094503 0.886623 0.380180 0.151006
N1    N     N_R   0.246280 0.438190 0.553160 -0.236923
N2    N     N_R   0.754320 0.561190 0.447410 -0.210035
O1    O     O_R   0.972510 0.318130 0.526570 -0.533026
O2    O     O_R   0.806530 0.359650 0.490890 -0.613062
O3    O     O_R   0.082980 0.479210 0.647590 -0.537766
O4    O     O_R   0.917000 0.520730 0.611900 -0.609924
O5    O     O_R   0.193470 0.640350 0.509110 -0.596739
O6    O     O_R   0.027490 0.681870 0.473430 -0.589437
O7    O     O_R   0.083000 0.479270 0.388100 -0.521286
O8    O     O_R   0.917020 0.520790 0.352410 -0.610770
F1    F     F_    0.150607 0.297352 0.672857 -0.662209
F2    F     F_    0.198378 0.493522 0.261721 -0.681886
F3    F     F_    0.293808 0.484856 0.958395 -0.666998

loop_
_geom_bond_atom_site_label_1
_geom_bond_atom_site_label_2
_ccdc_geom_bond_type
C16   C28   A    
C21   C26   A    
C12   O3    A    
C19   C20   A    
C31   H14   S    
C25   H8    S    
C23   O5    A    
C41   F1    S    
C30   N2    A    
C7    C8    A    
C3    H16   S    
C2    C46   A    
C40   N1    A    
Cu2   O8    S    
C36   C37   A    
C19   C21   A    
C32   H13   S    
C30   C31   A    
C20   C25   A    
C33   C36   A    
C18   C19   A    
C16   H5    S    
Cu1   Cu2   S    
C8    C9    A    
C30   H12   S    
C1    C28   S    
C14   C27   A    
C17   H7    S    
C27   H21   S    
C15   C23   S    
C35   N2    A    
C40   H11   S    
C21   C22   A    
Cu2   O4    S    
C13   H18   S    
C24   H2    S    
C38   C39   A    
C1    O1    A    
C36   C40   A    
C24   C25   A    
C44   F2    S    
C16   C17   A    
C15   C26   A    
C20   C28   A    
C45   C46   A    
C3    C45   A    
Cu2   O6    S    
C35   C39   A    
C43   C44   A    
Cu1   N1    S    
C37   C38   A    
C26   H4    S    
C34   O8    A    
C38   H9    S    
C15   C27   A    
C14   H3    S    
C17   C18   A    
C23   O6    A    
C22   C24   A    
C42   C43   A    
Cu2   N2    S    
C3    C4    A    
C44   C45   A    
C10   H17   S    
C6    C46   A    
C29   C41   A    
Cu2   O2    S    
C31   C32   A    
C34   C43   S    
Cu1   O3    S    
C4    C5    A    
Cu1   O5    S    
C11   C12   S    
C6    C7    A    
C39   H15   S    
C1    O2    A    
C32   C33   A    
C14   C22   A    
C9    H20   S    
C5    C10   A    
C34   O7    A    
C11   C13   A    
C5    C6    A    
C2    C42   A    
C33   C35   A    
Cu1   O1    S    
C10   C11   A    
C18   H6    S    
C42   H1    S    
C7    C13   A    
C4    F3    S    
C29   H10   S    
C8    H19   S    
C12   O4    A    
C29   C37   A    
Cu1   O7    S    
C2    C9    A    
C41   N1    A    
