data_mof_unit_35284.cif
_audit_creation_date              2012-12-11T15:17:58-0500
_audit_creation_method            fapswitch 2.2
_symmetry_space_group_name_H-M    P1
_symmetry_Int_Tables_number       1
_space_group_crystal_system       triclinic
_cell_length_a                    15.759584
_cell_length_b                    15.775139
_cell_length_c                    34.705672
_cell_angle_alpha                 90.00552
_cell_angle_beta                  89.935887
_cell_angle_gamma                 120.076881
_cell_volume                      7466.40817039

loop_
_atom_site_label
_atom_site_type_symbol
_atom_type_description
_atom_site_fract_x
_atom_site_fract_y
_atom_site_fract_z
_atom_type_partial_charge
C1    C     C_R   0.578700 0.440979 0.555034 0.561475
C2    C     C_R   0.558965 0.137642 0.555010 0.561551
C3    C     C_R   0.862066 0.421311 0.555056 0.561877
C4    C     C_R   0.441331 0.578620 0.054902 0.557520
C5    C     C_R   0.137467 0.558769 0.055002 0.561551
C6    C     C_R   0.421324 0.862515 0.054796 0.555059
C7    C     C_R   0.983215 0.497708 0.711656 0.328748
C8    C     C_R   0.496422 0.498079 0.709623 0.330357
C9    C     C_R   0.506369 0.000506 0.709733 0.330741
C10   C     C_R   0.503779 0.987946 0.211102 0.336818
C11   C     C_R   0.491374 0.502639 0.211491 0.352083
C12   C     C_R   0.015747 0.511903 0.211930 0.361694
C13   C     C_R   0.067040 0.463240 0.845421 -0.186200
C14   C     C_R   0.551489 0.597865 0.848329 -0.184178
C15   C     C_R   0.399540 0.942962 0.846849 -0.188176
C16   C     C_R   0.467196 0.073000 0.345290 -0.181655
C17   C     C_R   0.600286 0.544107 0.347226 -0.181870
C18   C     C_R   0.946517 0.401671 0.347158 -0.180636
C19   C     C_R   0.096009 0.473571 0.883366 -0.168471
C20   C     C_R   0.543385 0.612348 0.887163 -0.169579
C21   C     C_R   0.383683 0.920310 0.885539 -0.169774
C22   C     C_R   0.471559 0.093415 0.383990 -0.173351
C23   C     C_R   0.617877 0.535237 0.385426 -0.171017
C24   C     C_R   0.918099 0.382960 0.385217 -0.171093
C25   C     C_R   0.032820 0.584261 0.894972 0.000210
C26   C     C_R   0.395922 0.452158 0.891666 0.006996
C27   C     C_R   0.550391 0.950690 0.892511 0.001762
C28   C     C_R   0.594134 0.044185 0.393340 0.009557
C29   C     C_R   0.447406 0.407938 0.394356 0.008967
C30   C     C_R   0.962869 0.553475 0.394709 0.011012
C31   C     C_R   0.001235 0.571324 0.856031 0.236457
C32   C     C_R   0.404760 0.437713 0.851996 0.226053
C33   C     C_R   0.567352 0.977851 0.853042 0.240218
C34   C     C_R   0.586222 0.019345 0.353796 0.239664
C35   C     C_R   0.428835 0.420323 0.355411 0.240006
C36   C     C_R   0.994840 0.572935 0.355858 0.240338
C37   C     C_R   0.022958 0.514280 0.830920 0.031185
C38   C     C_R   0.479958 0.513393 0.829771 0.020116
C39   C     C_R   0.489347 0.967874 0.829725 0.033397
C40   C     C_R   0.526863 0.040093 0.329393 0.021062
C41   C     C_R   0.507673 0.484209 0.331229 0.019761
C42   C     C_R   0.980637 0.494785 0.331541 0.018855
C43   C     C_R   0.083790 0.536880 0.908265 0.001253
C44   C     C_R   0.462677 0.543506 0.908772 -0.000947
C45   C     C_R   0.455699 0.917612 0.908410 0.001118
C46   C     C_R   0.538520 0.085246 0.408115 -0.004174
C47   C     C_R   0.544446 0.463696 0.408955 -0.004084
C48   C     C_R   0.920130 0.456006 0.408971 -0.005052
C49   C     C_R   0.577803 0.442620 0.445673 0.589201
C50   C     C_R   0.557474 0.135496 0.445624 0.591933
C51   C     C_R   0.864813 0.422175 0.445619 0.588933
C52   C     C_R   0.442513 0.577784 0.945574 0.583042
C53   C     C_R   0.135719 0.557458 0.945528 0.597085
C54   C     C_R   0.422171 0.864449 0.945495 0.586840
C55   C     C_R   0.913586 0.455241 0.591963 -0.026092
C56   C     C_R   0.544227 0.460775 0.591410 -0.024922
C57   C     C_R   0.539644 0.083195 0.591338 -0.025861
C58   C     C_R   0.445160 0.899630 0.093977 -0.013147
C59   C     C_R   0.462076 0.546344 0.091593 -0.017511
C60   C     C_R   0.084683 0.538749 0.091842 -0.021214
C61   C     C_R   0.955921 0.405357 0.609380 -0.107590
C62   C     C_R   0.593601 0.554594 0.607735 -0.107118
C63   C     C_R   0.446276 0.038739 0.608149 -0.106300
C64   C     C_R   0.372187 0.852898 0.121940 -0.093759
C65   C     C_R   0.550290 0.608034 0.110497 -0.109593
C66   C     C_R   0.053121 0.448985 0.110384 -0.115912
C67   C     C_R   0.987467 0.424669 0.647594 0.273525
C68   C     C_R   0.572710 0.570079 0.645333 0.273732
C69   C     C_R   0.431966 0.002743 0.645794 0.272977
C70   C     C_R   0.393027 0.875381 0.160634 0.273191
C71   C     C_R   0.561874 0.594681 0.149464 0.267685
C72   C     C_R   0.027459 0.437452 0.149453 0.264235
C73   C     C_R   0.970573 0.490641 0.669526 0.017562
C74   C     C_R   0.505557 0.489135 0.667810 0.018435
C75   C     C_R   0.513780 0.017013 0.667810 0.016302
C76   C     C_R   0.486449 0.953094 0.171323 0.022776
C77   C     C_R   0.486494 0.513116 0.169341 0.041111
C78   C     C_R   0.028124 0.515684 0.169699 0.036481
C79   C     C_R   0.935118 0.545698 0.651063 -0.177807
C80   C     C_R   0.451578 0.396782 0.650439 -0.178344
C81   C     C_R   0.605427 0.054682 0.649850 -0.176629
C82   C     C_R   0.560709 0.997932 0.143474 -0.169833
C83   C     C_R   0.402088 0.445917 0.149045 -0.178880
C84   C     C_R   0.050144 0.601880 0.149811 -0.161639
C85   C     C_R   0.907935 0.528963 0.612507 -0.147579
C86   C     C_R   0.469985 0.382942 0.612445 -0.147047
C87   C     C_R   0.618021 0.086540 0.611833 -0.147223
C88   C     C_R   0.540453 0.969953 0.104850 -0.151056
C89   C     C_R   0.389298 0.463131 0.110659 -0.149789
C90   C     C_R   0.079064 0.613694 0.111319 -0.147134
C91   C     C_R   0.002366 0.506914 0.789350 0.339915
C92   C     C_R   0.485363 0.506760 0.787401 0.339426
C93   C     C_R   0.498072 0.981755 0.787524 0.343745
C94   C     C_R   0.521564 0.024746 0.287552 0.337105
C95   C     C_R   0.497487 0.490549 0.289301 0.341942
C96   C     C_R   0.998800 0.506318 0.289750 0.338570
Cr1   Cr    Cr6+3 0.522350 0.263930 0.500020 1.067500
Cr2   Cr    Cr6+3 0.736070 0.258420 0.500020 1.065341
Cr3   Cr    Cr6+3 0.741580 0.477650 0.500020 1.067018
Cr4   Cr    Cr6+3 0.263930 0.522350 0.000020 1.067127
Cr5   Cr    Cr6+3 0.258420 0.736070 0.000020 1.068744
Cr6   Cr    Cr6+3 0.477650 0.741580 0.000020 1.068165
H1    H     H_    0.962027 0.349162 0.593767 0.145172
H2    H     H_    0.650308 0.615775 0.591709 0.145221
H3    H     H_    0.384680 0.034288 0.592530 0.145413
H4    H     H_    0.299568 0.794797 0.113942 0.135600
H5    H     H_    0.608348 0.671181 0.095842 0.144076
H6    H     H_    0.053395 0.389236 0.095133 0.136933
H7    H     H_    0.875856 0.568991 0.599669 0.155355
H8    H     H_    0.430621 0.309736 0.600479 0.153778
H9    H     H_    0.690887 0.120071 0.599448 0.154583
H10   H     H_    0.598120 0.003957 0.083493 0.143723
H11   H     H_    0.320488 0.414106 0.096583 0.140926
H12   H     H_    0.102461 0.683601 0.097536 0.151759
H13   H     H_    0.133987 0.435663 0.892455 0.153446
H14   H     H_    0.597436 0.681727 0.899519 0.156304
H15   H     H_    0.311009 0.897034 0.896684 0.157432
H16   H     H_    0.426766 0.123030 0.394277 0.158747
H17   H     H_    0.692356 0.580543 0.395627 0.158555
H18   H     H_    0.887669 0.308157 0.395150 0.158036
H19   H     H_    0.923575 0.598254 0.666888 0.158090
H20   H     H_    0.398448 0.333938 0.666794 0.153567
H21   H     H_    0.668780 0.064465 0.665779 0.157384
H22   H     H_    0.633415 0.055530 0.151500 0.150855
H23   H     H_    0.343070 0.383105 0.163436 0.133013
H24   H     H_    0.051414 0.662889 0.164660 0.165739
H25   H     H_    0.083060 0.417622 0.826956 0.159712
H26   H     H_    0.612023 0.655768 0.832473 0.160780
H27   H     H_    0.338711 0.935966 0.829920 0.150522
H28   H     H_    0.418734 0.086460 0.327481 0.163496
H29   H     H_    0.661464 0.595923 0.329771 0.160973
H30   H     H_    0.937457 0.341171 0.329414 0.159552
N1    N     N_R   0.990070 0.427311 0.769650 -0.263438
N2    N     N_R   0.567591 0.571708 0.768165 -0.253094
N3    N     N_R   0.432413 0.997457 0.768228 -0.271847
N4    N     N_R   0.597632 0.029920 0.267153 -0.176813
N5    N     N_R   0.563414 0.572351 0.270373 -0.271553
N6    N     N_R   0.023348 0.446215 0.271099 -0.276312
N7    N     N_R   0.979986 0.422489 0.731659 -0.167453
N8    N     N_R   0.573164 0.567229 0.730093 -0.164832
N9    N     N_R   0.436724 0.007130 0.730189 -0.172239
N10   N     N_R   0.588787 0.011594 0.229455 -0.265737
N11   N     N_R   0.560149 0.578207 0.232408 -0.186509
N12   N     N_R   0.032122 0.449390 0.233060 -0.198881
N13   N     N_R   0.994314 0.577170 0.731318 -0.254502
N14   N     N_R   0.413898 0.433284 0.728723 -0.264113
N15   N     N_R   0.572383 0.984806 0.728898 -0.255668
N16   N     N_R   0.429498 0.986374 0.231275 -0.160942
N17   N     N_R   0.424425 0.420539 0.230387 -0.254348
N18   N     N_R   0.992890 0.573626 0.230592 -0.225594
N19   N     N_R   0.004319 0.581983 0.769495 -0.167672
N20   N     N_R   0.408293 0.437994 0.766840 -0.167607
N21   N     N_R   0.567913 0.974961 0.767078 -0.159819
N22   N     N_R   0.438271 0.004541 0.268736 -0.253740
N23   N     N_R   0.427788 0.414328 0.268615 -0.172027
N24   N     N_R   0.983971 0.570491 0.268837 -0.162075
O1    O     O_R   0.498680 0.159540 0.541860 -0.520803
O2    O     O_R   0.840460 0.339140 0.541860 -0.520983
O3    O     O_R   0.660860 0.501320 0.541860 -0.521826
O4    O     O_R   0.159540 0.498680 0.041860 -0.522287
O5    O     O_R   0.339140 0.840460 0.041860 -0.514446
O6    O     O_R   0.501320 0.660860 0.041860 -0.521900
O7    O     O_R   0.532760 0.358060 0.540030 -0.492255
O8    O     O_R   0.641940 0.174700 0.540030 -0.493364
O9    O     O_R   0.825300 0.467240 0.540030 -0.492827
O10   O     O_R   0.358060 0.532760 0.040030 -0.495532
O11   O     O_R   0.174700 0.641940 0.040030 -0.495778
O12   O     O_R   0.467240 0.825300 0.040030 -0.493548
O13   O     O_R   0.498590 0.161190 0.456930 -0.531114
O14   O     O_R   0.838810 0.337400 0.456930 -0.530726
O15   O     O_R   0.662600 0.501410 0.456930 -0.530687
O16   O     O_R   0.161190 0.498590 0.956930 -0.527202
O17   O     O_R   0.337400 0.838810 0.956930 -0.528113
O18   O     O_R   0.501410 0.662600 0.956930 -0.526754
O19   O     O_R   0.532680 0.359580 0.461300 -0.457140
O20   O     O_R   0.640420 0.173100 0.461300 -0.458181
O21   O     O_R   0.826900 0.467320 0.461300 -0.456561
O22   O     O_R   0.359580 0.532680 0.961300 -0.457854
O23   O     O_R   0.173100 0.640420 0.961300 -0.457715
O24   O     O_R   0.467320 0.826900 0.961300 -0.456422
O25   O     O_3   0.666667 0.333333 0.499990 -0.275459
O26   O     O_3   0.333333 0.666667 0.999990 -0.279122
O27   O     O_3   0.026736 0.371788 0.663800 -0.548112
C97   C     C_3   0.129559 0.432468 0.667456 0.025431
H31   H     H_    0.153832 0.401508 0.690894 0.184656
H32   H     H_    0.152306 0.508944 0.676320 0.119642
C98   C     C_3   0.181674 0.432782 0.630086 -0.279747
H33   H     H_    0.158959 0.356188 0.621901 0.186008
H34   H     H_    0.161019 0.466447 0.606462 0.157426
C99   C     C_3   0.292617 0.490627 0.635050 -0.477426
H35   H     H_    0.317251 0.568450 0.641392 0.133240
H36   H     H_    0.329049 0.486827 0.608229 0.164844
H37   H     H_    0.314470 0.459656 0.659187 0.168237
O28   O     O_3   0.624454 0.663636 0.660493 -0.547400
C100  C     C_3   0.563053 0.705189 0.662147 0.024008
H38   H     H_    0.591319 0.761100 0.685401 0.184340
H39   H     H_    0.485766 0.651283 0.670117 0.118053
C101  C     C_3   0.566529 0.756037 0.624042 -0.275847
H40   H     H_    0.643279 0.814340 0.618131 0.184429
H41   H     H_    0.541365 0.702397 0.600003 0.160872
C102  C     C_3   0.501118 0.801541 0.625682 -0.477644
H42   H     H_    0.422957 0.743441 0.627402 0.137352
H43   H     H_    0.511936 0.845947 0.599382 0.167033
H44   H     H_    0.519561 0.849335 0.651343 0.159394
O29   O     O_3   0.338986 0.962051 0.661574 -0.549852
C103  C     C_3   0.296778 0.859122 0.664302 0.023376
H45   H     H_    0.242210 0.833527 0.688089 0.181813
H46   H     H_    0.350635 0.835691 0.672088 0.117071
C104  C     C_3   0.243618 0.809318 0.626873 -0.276628
H47   H     H_    0.189075 0.832067 0.619926 0.186533
H48   H     H_    0.297205 0.832028 0.602805 0.158792
C105  C     C_3   0.190992 0.698110 0.630673 -0.477762
H49   H     H_    0.244783 0.673344 0.635262 0.135666
H50   H     H_    0.148898 0.663513 0.604005 0.165777
H51   H     H_    0.139671 0.674181 0.655459 0.162359
O30   O     O_3   0.318787 0.823513 0.187155 -0.550380
C106  C     C_3   0.339325 0.760145 0.209158 0.019109
H52   H     H_    0.292434 0.739266 0.235345 0.165822
H53   H     H_    0.416468 0.796100 0.219546 0.117779
C107  C     C_3   0.314961 0.666690 0.186860 -0.289958
H54   H     H_    0.239529 0.633059 0.175086 0.178620
H55   H     H_    0.366959 0.685022 0.162424 0.146804
C108  C     C_3   0.322419 0.592840 0.212956 -0.478650
H56   H     H_    0.396711 0.625944 0.225905 0.155596
H57   H     H_    0.309197 0.528049 0.195837 0.146823
H58   H     H_    0.266769 0.568381 0.236313 0.161354
O31   O     O_3   0.647531 0.661509 0.167850 -0.536443
C109  C     C_3   0.644991 0.748717 0.174592 0.015999
H59   H     H_    0.574759 0.732770 0.188698 0.128858
H60   H     H_    0.653216 0.788309 0.147046 0.124562
C110  C     C_3   0.729879 0.815231 0.201139 -0.248220
H61   H     H_    0.727522 0.774172 0.227529 0.207593
H62   H     H_    0.800557 0.838681 0.186104 0.177224
C111  C     C_3   0.724394 0.905511 0.212922 -0.463059
H63   H     H_    0.724923 0.947282 0.187060 0.161413
H64   H     H_    0.788446 0.953780 0.231216 0.167167
H65   H     H_    0.656397 0.883033 0.229755 0.170783
O32   O     O_3   0.998908 0.348889 0.167631 -0.539474
C112  C     C_3   0.080623 0.335038 0.171068 0.014243
H66   H     H_    0.146405 0.402683 0.181746 0.130230
H67   H     H_    0.097976 0.314132 0.142770 0.122004
C113  C     C_3   0.056285 0.252576 0.199836 -0.245370
H68   H     H_    0.033720 0.269845 0.227748 0.206717
H69   H     H_    0.994173 0.183059 0.188668 0.174859
C114  C     C_3   0.144443 0.239065 0.206677 -0.473069
H70   H     H_    0.168288 0.221251 0.179209 0.153209
H71   H     H_    0.124115 0.178027 0.227305 0.169782
H72   H     H_    0.206269 0.306907 0.219042 0.172961
C115  C     C_2   0.009175 0.644929 0.920627 0.231894
H73   H     H_    0.997790 0.701810 0.908448 0.137056
O33   O     O_2   0.997627 0.629382 0.955227 -0.498332
C116  C     C_2   0.317147 0.370109 0.913985 0.242135
H74   H     H_    0.248497 0.319254 0.900083 0.134308
O34   O     O_2   0.330134 0.355091 0.947382 -0.498835
C117  C     C_2   0.632737 0.957925 0.915802 0.234394
H75   H     H_    0.688225 0.946332 0.902277 0.133419
O35   O     O_2   0.642629 0.982392 0.949616 -0.502696
C118  C     C_2   0.658633 0.023969 0.418180 0.233562
H76   H     H_    0.720922 0.022203 0.405730 0.142147
O36   O     O_2   0.640311 0.004205 0.452281 -0.512917
C119  C     C_2   0.363756 0.338752 0.418793 0.233537
H77   H     H_    0.300913 0.276352 0.405776 0.142765
O37   O     O_2   0.361516 0.353375 0.453221 -0.511384
C120  C     C_2   0.977707 0.636630 0.419414 0.234321
H78   H     H_    0.979230 0.700128 0.406604 0.142744
O38   O     O_2   0.993653 0.637678 0.453874 -0.511901
O39   O     O_3   0.946278 0.611545 0.842681 -0.567469
C121  C     C_3   0.846227 0.549310 0.852562 0.001810
H79   H     H_    0.825085 0.587886 0.873953 0.149615
H80   H     H_    0.829659 0.478023 0.865848 0.119485
C122  C     C_3   0.782596 0.528102 0.816626 -0.236118
H81   H     H_    0.788622 0.597344 0.805943 0.197979
H82   H     H_    0.808869 0.497968 0.793596 0.191382
C123  C     C_3   0.675269 0.454222 0.825143 -0.488865
H83   H     H_    0.667082 0.383085 0.834356 0.140473
H84   H     H_    0.630968 0.441715 0.798710 0.170802
H85   H     H_    0.646999 0.482088 0.848274 0.157621
O40   O     O_3   0.337214 0.350601 0.834818 -0.570114
C124  C     C_3   0.375248 0.286419 0.835117 0.006695
H86   H     H_    0.383236 0.267173 0.865274 0.138437
H87   H     H_    0.447952 0.319951 0.820433 0.135965
C125  C     C_3   0.304432 0.192904 0.813662 -0.243929
H88   H     H_    0.231339 0.158434 0.827847 0.177058
H89   H     H_    0.296293 0.211277 0.783468 0.204086
C126  C     C_3   0.341431 0.120326 0.813371 -0.467429
H90   H     H_    0.414153 0.153131 0.799008 0.175101
H91   H     H_    0.288905 0.053386 0.797390 0.179686
H92   H     H_    0.347977 0.099537 0.843330 0.148207
O41   O     O_3   0.658842 0.009833 0.836769 -0.564791
C127  C     C_3   0.723141 0.109216 0.846598 0.002504
H93   H     H_    0.798555 0.120459 0.847747 0.162478
H94   H     H_    0.708558 0.129832 0.875598 0.130605
C128  C     C_3   0.720486 0.177721 0.815976 -0.252433
H95   H     H_    0.737700 0.158786 0.787280 0.212539
H96   H     H_    0.646188 0.169255 0.814902 0.157600
C129  C     C_3   0.794552 0.284224 0.825078 -0.469963
H97   H     H_    0.777049 0.305341 0.853222 0.137894
H98   H     H_    0.791996 0.332167 0.802268 0.167871
H99   H     H_    0.869647 0.294845 0.826256 0.175171
O42   O     O_3   0.640282 0.979154 0.339182 -0.574336
C130  C     C_3   0.577844 0.878548 0.330547 0.012041
H100  H     H_    0.613525 0.859261 0.307217 0.168051
H101  H     H_    0.504663 0.861140 0.319260 0.117768
C131  C     C_3   0.564581 0.814364 0.365714 -0.275599
H102  H     H_    0.637608 0.832475 0.377157 0.181493
H103  H     H_    0.523852 0.828556 0.388571 0.171789
C132  C     C_3   0.507507 0.705974 0.355158 -0.481370
H104  H     H_    0.433782 0.685953 0.344095 0.130229
H105  H     H_    0.498752 0.660722 0.380985 0.165340
H106  H     H_    0.547433 0.689954 0.332606 0.166433
O43   O     O_3   0.334137 0.366767 0.341117 -0.573422
C133  C     C_3   0.294765 0.429092 0.334761 0.011990
H107  H     H_    0.237659 0.394642 0.312105 0.171986
H108  H     H_    0.349440 0.502838 0.323549 0.119918
C134  C     C_3   0.246686 0.439822 0.371429 -0.274760
H109  H     H_    0.189087 0.366188 0.381393 0.180285
H110  H     H_    0.302469 0.474472 0.394518 0.175787
C135  C     C_3   0.200573 0.503279 0.364113 -0.480916
H111  H     H_    0.258125 0.579398 0.357213 0.134847
H112  H     H_    0.160308 0.504539 0.390184 0.167359
H113  H     H_    0.148689 0.473445 0.339617 0.162986
O44   O     O_3   0.035000 0.667570 0.341621 -0.571983
C136  C     C_3   0.136915 0.708383 0.334830 0.014364
H114  H     H_    0.157539 0.762707 0.311173 0.182864
H115  H     H_    0.157675 0.654070 0.324829 0.113872
C137  C     C_3   0.196268 0.761290 0.370765 -0.275499
H116  H     H_    0.175371 0.815403 0.380611 0.182859
H117  H     H_    0.179947 0.707317 0.394229 0.173009
C138  C     C_3   0.306140 0.814446 0.362418 -0.479574
H118  H     H_    0.329279 0.761299 0.353855 0.133536
H119  H     H_    0.347486 0.853926 0.388607 0.166937
H120  H     H_    0.324204 0.868268 0.338794 0.166530

loop_
_geom_bond_atom_site_label_1
_geom_bond_atom_site_label_2
_ccdc_geom_bond_type
C117  O35   D    
C17   H29   S    
C127  C128  S    
C138  H119  S    
C6    C58   S    
C18   H30   S    
C108  H56   S    
C49   O19   A    
C108  H58   S    
C7    C73   S    
C130  H100  S    
C79   H19   S    
C125  H88   S    
C86   H8    S    
C1    C56   S    
C122  H81   S    
C38   C92   S    
C14   H26   S    
C123  H83   S    
C80   C86   A    
C36   C42   A    
C131  C132  S    
C66   C72   A    
C3    O2    A    
C113  H69   S    
C137  H116  S    
C63   H3    S    
C21   C45   A    
C100  C101  S    
C114  H70   S    
C111  H64   S    
C82   H22   S    
C109  H59   S    
C84   H24   S    
C89   H11   S    
C24   H18   S    
C113  C114  S    
C115  O33   D    
C136  H114  S    
Cr6   O26   S    
C12   N18   A    
C1    O3    A    
C2    O8    A    
C103  H45   S    
C31   C37   A    
C16   C22   A    
C111  H65   S    
O27   C97   S    
C14   C38   A    
C56   C86   A    
O31   C109  S    
C137  C138  S    
C8    C74   S    
C15   C39   A    
C16   C40   A    
C129  H97   S    
C121  H80   S    
N1    N7    A    
C56   C62   A    
C79   C85   A    
O42   C130  S    
C49   O15   A    
C130  C131  S    
C22   H16   S    
Cr6   O12   S    
C135  H113  S    
C58   C88   A    
C64   H4    S    
C60   C90   A    
C29   C35   A    
C30   C36   A    
C8    N8    A    
Cr2   O25   S    
C93   N21   A    
N17   N23   A    
C126  H91   S    
C96   N24   A    
C2    O1    A    
C50   O13   A    
C124  H87   S    
N15   N21   A    
C35   O43   S    
C100  H38   S    
C13   H25   S    
C34   O42   S    
C105  H49   S    
C114  H72   S    
C101  H41   S    
C11   N11   A    
C109  C110  S    
C10   N16   A    
C116  H74   S    
Cr3   O9    S    
C25   C31   A    
C26   C32   A    
C99   H35   S    
Cr1   O19   S    
Cr3   O3    S    
Cr4   O16   S    
Cr6   O24   S    
Cr5   O17   S    
Cr4   O22   S    
C25   C43   A    
C2    C57   S    
C26   C44   A    
C27   C33   A    
C90   H12   S    
C28   C46   A    
C115  H73   S    
C17   C23   A    
C29   C47   A    
C18   C24   A    
C30   C48   A    
C18   C42   A    
C23   H17   S    
C119  H77   S    
C68   C74   A    
C97   H31   S    
C59   C89   A    
C135  H112  S    
C11   C77   S    
C53   O16   A    
C3    C55   S    
C129  H99   S    
C63   C69   A    
C133  H108  S    
C120  H78   S    
C21   H15   S    
C6    O5    A    
C110  C111  S    
C44   C52   S    
C131  H103  S    
C102  H43   S    
C84   C90   A    
C53   O23   A    
C107  H54   S    
C20   C44   A    
C11   N17   A    
C57   C63   A    
C62   H2    S    
C58   C64   A    
C83   C89   A    
C6    O12   A    
C95   N5    A    
C23   C47   A    
C31   O39   S    
C24   C48   A    
C76   C82   A    
C106  H52   S    
C57   C87   A    
C136  H115  S    
C128  H95   S    
C61   C67   A    
C105  H51   S    
C5    O4    A    
C104  H47   S    
C73   C79   A    
C112  H67   S    
C67   O27   S    
C28   C118  S    
C36   O44   S    
C52   O18   A    
C71   C77   A    
C16   H28   S    
C3    O9    A    
C134  C135  S    
C5    C60   S    
C92   N2    A    
C40   C94   S    
C93   N3    A    
O39   C121  S    
C108  H57   S    
C125  H89   S    
C97   C98   S    
C132  H106  S    
C118  H76   S    
N6    N12   A    
C59   C65   A    
C82   C88   A    
C55   C61   A    
C138  H120  S    
O44   C136  S    
C123  H84   S    
C62   C68   A    
C35   C41   A    
Cr3   O25   S    
C28   C34   A    
Cr2   O14   S    
N3    N9    A    
C125  C126  S    
O40   C124  S    
C137  H117  S    
C51   O21   A    
C65   H5    S    
C107  C108  S    
C72   O32   S    
C7    N13   A    
C122  C123  S    
C123  H85   S    
C112  H66   S    
C26   C116  S    
C109  H60   S    
C80   H20   S    
C106  C107  S    
C42   C96   S    
C61   H1    S    
C128  C129  S    
C85   H7    S    
C103  H46   S    
C87   H9    S    
C104  C105  S    
C127  H93   S    
C10   N10   A    
C39   C93   S    
C98   C99   S    
N4    N10   A    
C99   H37   S    
C43   C53   S    
Cr2   O2    S    
Cr1   O7    S    
C124  H86   S    
C67   C73   A    
Cr4   O26   S    
C27   C45   A    
C129  H98   S    
O28   C100  S    
C60   C66   A    
C134  H109  S    
C74   C80   A    
N16   N22   A    
C83   H23   S    
C19   C43   A    
C130  H101  S    
C8    N14   A    
C13   C19   A    
C132  H104  S    
C14   C20   A    
C55   C85   A    
C126  H90   S    
Cr2   O20   S    
Cr2   O8    S    
C15   H27   S    
Cr6   O6    S    
C113  H68   S    
C110  H62   S    
C81   C87   A    
C22   C46   A    
C81   H21   S    
C114  H71   S    
C4    O6    A    
Cr6   O18   S    
C111  H63   S    
C32   O40   S    
C116  O34   D    
O32   C112  S    
C99   H36   S    
C69   O29   S    
C51   O14   A    
C66   H6    S    
C33   O41   S    
C133  C134  S    
C98   H33   S    
C96   N6    A    
C41   C95   S    
C97   H32   S    
C69   C75   A    
C52   O22   A    
C105  H50   S    
C88   H10   S    
C121  H79   S    
C1    O7    A    
C120  O38   D    
C27   C117  S    
C7    N7    A    
O43   C133  S    
C138  H118  S    
C107  H55   S    
C47   C49   S    
O29   C103  S    
C133  H107  S    
C33   C39   A    
C34   C40   A    
C54   O17   A    
C50   O20   A    
Cr3   O21   S    
C126  H92   S    
N2    N8    A    
Cr3   O15   S    
C77   C83   A    
Cr1   O13   S    
Cr4   O10   S    
C124  C125  S    
Cr5   O11   S    
C10   C76   S    
C48   C51   S    
C4    O10   A    
C12   C78   S    
C92   N20   A    
C29   C119  S    
C101  H40   S    
C32   C38   A    
C13   C37   A    
C95   N23   A    
N5    N11   A    
N18   N24   A    
C134  H110  S    
C37   C91   S    
O30   C106  S    
C119  O37   D    
C9    N9    A    
C75   C81   A    
C65   C71   A    
C9    N15   A    
C12   N12   A    
C132  H105  S    
Cr1   O1    S    
C25   C115  S    
C135  H111  S    
Cr5   O23   S    
Cr4   O4    S    
C94   N4    A    
C91   N1    A    
C121  C122  S    
C19   H13   S    
C94   N22   A    
C101  C102  S    
N13   N19   A    
N14   N20   A    
C131  H102  S    
C45   C54   S    
C64   C70   A    
C70   C76   A    
C102  H44   S    
C117  H75   S    
C118  O36   D    
O41   C127  S    
C122  H82   S    
C71   O31   S    
C20   H14   S    
C68   O28   S    
Cr1   O25   S    
C106  H53   S    
C46   C50   S    
C136  C137  S    
C70   O30   S    
Cr5   O5    S    
C128  H96   S    
C91   N19   A    
C103  C104  S    
C4    C59   S    
C104  H48   S    
C54   O24   A    
C112  C113  S    
C127  H94   S    
C5    O11   A    
C30   C120  S    
C17   C41   A    
C98   H34   S    
C78   C84   A    
C15   C21   A    
C102  H42   S    
C72   C78   A    
C110  H61   S    
C9    C75   S    
C100  H39   S    
Cr5   O26   S    
