data_mof_unit_55703.cif
_audit_creation_date              2013-03-05T16:00:29-0500
_audit_creation_method            fapswitch 2.2
_symmetry_space_group_name_H-M    P1
_symmetry_Int_Tables_number       1
_space_group_crystal_system       triclinic
_cell_length_a                    12.614328
_cell_length_b                    13.118743
_cell_length_c                    27.512491
_cell_angle_alpha                 90.489962
_cell_angle_beta                  103.11677
_cell_angle_gamma                 82.379823
_cell_volume                      4393.84164759

loop_
_atom_site_label
_atom_site_type_symbol
_atom_site_description
_atom_site_fract_x
_atom_site_fract_y
_atom_site_fract_z
_atom_type_partial_charge
O1    O     O_R   0.366730 0.627160 0.487740 -0.610145
O2    O     O_R   0.544830 0.662520 0.504140 -0.641078
C1    C     C_R   0.438644 0.691215 0.493542 0.906660
O3    O     O_R   0.410970 0.482310 0.563040 -0.622495
O4    O     O_R   0.589070 0.517670 0.579450 -0.605778
C2    C     C_R   0.501320 0.499713 0.593897 0.934077
Zn1   Zn    Zn3+2 0.381080 0.476390 0.489050 0.960252
Zn2   Zn    Zn3+2 0.618920 0.523610 0.510950 0.985570
O5    O     O_R   0.455170 0.337480 0.495860 -0.626602
O6    O     O_R   0.633270 0.372840 0.512260 -0.621003
O7    O     O_R   0.410930 0.482330 0.420550 -0.621889
O8    O     O_R   0.589030 0.517690 0.436960 -0.593486
C3    C     C_R   0.561102 0.308711 0.505272 0.888760
C4    C     C_R   0.499556 0.497480 0.406215 0.955568
C5    C     C_R   0.534273 0.576995 0.830805 0.514894
O9    O     O_2   0.585195 0.650079 0.814875 -0.555477
N1    N     N_R   0.481175 0.512914 0.797472 -0.347468
C6    C     C_R   0.427080 0.439063 0.811879 0.535174
C7    C     C_R   0.584268 0.468875 0.734024 -0.185131
C8    C     C_R   0.590845 0.459326 0.684170 0.275386
C9    C     C_R   0.406593 0.555155 0.659675 -0.303067
C10   C     C_R   0.398812 0.561416 0.709370 0.155717
C11   C     C_R   0.488927 0.517589 0.746626 0.237095
C12   C     C_R   0.481029 0.490421 0.897156 -0.082029
C13   C     C_R   0.539042 0.564303 0.881588 -0.010361
C14   C     C_R   0.600692 0.623287 0.916943 -0.117017
C15   C     C_R   0.414215 0.434548 0.861380 -0.093327
C16   C     C_R   0.500858 0.504007 0.646747 -0.187871
H1    H     H_    0.338338 0.590330 0.630768 0.158186
H2    H     H_    0.641286 0.683952 0.905776 0.202099
C17   C     C_R   0.501742 0.483420 0.353965 -0.059125
C18   C     C_R   0.588865 0.491769 0.034873 -0.076365
C19   C     C_R   0.427353 0.400307 0.015959 0.043949
C20   C     C_R   0.510832 0.440857 0.051075 0.051656
C21   C     C_R   0.686460 0.508764 0.069971 0.259694
C22   C     C_R   0.694357 0.493044 0.121606 0.035408
C23   C     C_R   0.599409 0.472256 0.137206 -0.064522
C24   C     C_R   0.513085 0.435561 0.102417 -0.111578
C25   C     C_R   0.427485 0.396550 0.118901 -0.137941
C26   C     C_R   0.433824 0.392125 0.170578 0.601251
N2    N     N_R   0.509229 0.441104 0.202545 -0.336416
C27   C     C_R   0.586068 0.487058 0.186164 0.594074
C28   C     C_R   0.598045 0.410172 0.292054 0.381650
C29   C     C_R   0.595861 0.430721 0.341741 -0.272794
C30   C     C_R   0.408901 0.516815 0.316472 -0.141877
C31   C     C_R   0.411522 0.500811 0.266760 -0.137130
C32   C     C_R   0.505540 0.448204 0.254148 0.175679
O10   O     O_2   0.644554 0.551180 0.216468 -0.539766
C33   C     C_R   0.566598 0.521776 0.983899 0.095979
C34   C     C_R   0.490831 0.472541 0.948513 0.049650
C35   C     C_R   0.427778 0.403743 0.964421 -0.061849
C36   C     C_R   0.613651 0.602749 0.967446 -0.115604
H3    H     H_    0.666021 0.401817 0.371101 0.169323
H4    H     H_    0.659244 0.652242 0.993385 0.194605
O11   O     O_2   0.394507 0.365827 0.779311 -0.572041
C37   C     C_R   0.344137 0.371605 0.876973 0.041430
H5    H     H_    0.651117 0.433298 0.763366 0.188180
C38   C     C_R   0.340552 0.366194 0.032857 -0.184022
C39   C     C_R   0.339053 0.364454 0.083345 0.342188
O12   O     O_2   0.366406 0.339372 0.189053 -0.488715
C40   C     C_R   0.362770 0.345633 0.928319 0.237395
H6    H     H_    0.267807 0.348664 0.006733 0.205339
H7    H     H_    0.335495 0.557056 0.325636 0.185913
H8    H     H_    0.340850 0.530629 0.237802 0.180860
C41   C     C_R   0.688995 0.066760 0.458989 -0.165958
H9    H     H_    0.734975 0.218053 0.469227 0.141180
H10   H     H_    0.671193 0.886125 0.417776 0.199084
H11   H     H_    0.752004 0.042316 0.438757 0.149537
C42   C     C_R   0.596697 0.200023 0.501232 -0.026925
C43   C     C_R   0.309552 0.834181 0.511737 -0.228246
C44   C     C_R   0.283898 0.937963 0.520904 0.169029
C45   C     C_R   0.353745 0.006740 0.512299 -0.187210
C46   C     C_R   0.446624 0.972945 0.492350 0.020250
C47   C     C_R   0.458945 0.871728 0.474690 -0.040458
C48   C     C_R   0.527467 0.036280 0.489285 0.083336
C49   C     C_R   0.611106 0.002551 0.463672 0.097718
C50   C     C_R   0.612225 0.908047 0.440436 -0.297595
C51   C     C_R   0.534198 0.843947 0.443709 0.314936
C52   C     C_R   0.527440 0.132829 0.510888 -0.212413
C53   C     C_R   0.680843 0.166130 0.477113 -0.196602
C54   C     C_R   0.398289 0.800582 0.490285 -0.085964
H12   H     H_    0.469798 0.160985 0.533027 0.148674
H13   H     H_    0.263158 0.778914 0.523529 0.140193
H14   H     H_    0.332681 0.086084 0.520874 0.128573
C55   C     C_R   0.088030 0.343807 0.431706 -0.271036
H15   H     H_    0.255554 0.326788 0.424854 0.144772
H16   H     H_    0.880620 0.311222 0.420558 0.178898
H17   H     H_    0.066807 0.282208 0.406342 0.168046
N3    N     N_R   0.222180 0.444690 0.474320 -0.105464
C56   C     C_R   0.806041 0.631340 0.559091 0.275161
C57   C     C_R   0.908711 0.664316 0.565625 -0.250555
C58   C     C_R   0.984756 0.617257 0.541295 -0.230332
C59   C     C_R   0.960809 0.534053 0.510240 0.026187
C60   C     C_R   0.853258 0.505179 0.501659 0.228242
C61   C     C_R   0.040254 0.479112 0.487436 -0.002102
C62   C     C_R   0.010460 0.398581 0.454604 0.180776
C63   C     C_R   0.904127 0.372955 0.445469 -0.244567
C64   C     C_R   0.827188 0.425042 0.468961 -0.188977
C65   C     C_R   0.149790 0.499527 0.496857 -0.039158
C66   C     C_R   0.194430 0.368593 0.442115 0.015331
N4    N     N_R   0.776980 0.554780 0.525420 -0.132484
H18   H     H_    0.181394 0.556733 0.522292 0.117392
H19   H     H_    0.061537 0.648168 0.547976 0.137297
H20   H     H_    0.930667 0.726791 0.590354 0.151963
H21   H     H_    0.748059 0.400389 0.461071 0.188915
C67   C     C_3   0.240087 0.344762 0.841522 -0.326269
C68   C     C_3   0.137331 0.406998 0.853606 -0.402771
C69   C     C_3   0.032304 0.379113 0.819409 -0.723791
H22   H     H_    0.031402 0.395783 0.779779 0.261748
H23   H     H_    0.026124 0.296267 0.824140 0.281838
H24   H     H_    0.959823 0.425370 0.828991 0.262214
H25   H     H_    0.133675 0.393924 0.892943 0.273166
H26   H     H_    0.140705 0.490422 0.848487 0.219494
H27   H     H_    0.235124 0.364289 0.802165 0.238152
H28   H     H_    0.236692 0.260789 0.843030 0.253589
N5    N     N_R   0.242166 0.338876 0.096816 0.246366
O13   O     O_R   0.184959 0.406669 0.118737 -0.354916
O14   O     O_R   0.198700 0.258722 0.077813 -0.313369
N6    N     N_R   0.334852 0.249044 0.942878 0.203408
O15   O     O_R   0.410032 0.184205 0.971254 -0.324910
O16   O     O_R   0.234906 0.226847 0.930242 -0.384984
C70   C     C_3   0.294167 0.614633 0.721508 -0.410432
C71   C     C_3   0.198668 0.551752 0.703908 -0.328271
C72   C     C_3   0.095743 0.599820 0.720196 -0.877031
H29   H     H_    0.111891 0.602834 0.761557 0.268946
H30   H     H_    0.068990 0.678850 0.704013 0.260740
H31   H     H_    0.028570 0.552423 0.706956 0.261282
H32   H     H_    0.179310 0.547385 0.662517 0.222981
H33   H     H_    0.221921 0.472222 0.719735 0.261183
H34   H     H_    0.305358 0.627369 0.762212 0.208235
H35   H     H_    0.273318 0.691902 0.702875 0.199068
C73   C     C_3   0.188351 0.972956 0.544379 -0.434017
C74   C     C_3   0.078561 0.956532 0.509584 -0.338610
C75   C     C_3   0.982930 0.988035 0.534391 -0.845235
H36   H     H_    0.995076 0.944138 0.570026 0.259886
H37   H     H_    0.975468 0.071736 0.541847 0.271124
H38   H     H_    0.905507 0.970893 0.509335 0.251933
H39   H     H_    0.065734 0.002871 0.474580 0.234824
H40   H     H_    0.079060 0.874132 0.499764 0.226895
H41   H     H_    0.199939 0.928737 0.579931 0.202175
H42   H     H_    0.185898 0.055780 0.553702 0.207271
N7    N     N_R   0.524088 0.757883 0.410971 0.214164
O17   O     O_R   0.427076 0.736941 0.388717 -0.418391
O18   O     O_R   0.609194 0.713520 0.395920 -0.367467
C76   C     C_3   0.733943 0.684758 0.591469 -0.414027
C77   C     C_3   0.776915 0.650277 0.646391 -0.380845
C78   C     C_3   0.702813 0.701123 0.679041 -0.790343
H43   H     H_    0.701711 0.785893 0.678223 0.262948
H44   H     H_    0.617674 0.682936 0.665751 0.252725
H45   H     H_    0.734357 0.672199 0.718159 0.277093
H46   H     H_    0.781164 0.565494 0.649569 0.277966
H47   H     H_    0.860835 0.670848 0.660616 0.221927
H48   H     H_    0.733217 0.769363 0.588173 0.181270
H49   H     H_    0.648375 0.673395 0.580434 0.257805
N8    N     N_R   0.693189 0.350155 0.280666 0.208876
O19   O     O_R   0.788941 0.347480 0.311183 -0.400796
O20   O     O_R   0.683178 0.290135 0.242447 -0.385130
C79   C     C_3   0.806903 0.482679 0.158118 -0.334372
C80   C     C_3   0.881853 0.385870 0.148449 -0.355332
C81   C     C_3   0.990720 0.372161 0.187302 -0.677018
H50   H     H_    0.034280 0.440209 0.186649 0.281508
H51   H     H_    0.976323 0.362011 0.225228 0.259467
H52   H     H_    0.043663 0.302834 0.178839 0.286109
H53   H     H_    0.839881 0.316992 0.150040 0.250360
H54   H     H_    0.900308 0.389976 0.111091 0.292171
H55   H     H_    0.846546 0.552684 0.156321 0.252965
H56   H     H_    0.801262 0.474179 0.197258 0.262452
N9    N     N_R   0.781651 0.529281 0.053098 0.181383
O21   O     O_R   0.831427 0.607675 0.069662 -0.374882
O22   O     O_R   0.816454 0.471543 0.019685 -0.356459
N10   N     N_R   0.685535 0.399181 0.672466 0.207153
O23   O     O_R   0.780383 0.392536 0.704003 -0.417078
O24   O     O_R   0.674424 0.338459 0.634514 -0.387250

loop_
_geom_bond_atom_site_label_1
_geom_bond_atom_site_label_2
_geom_bond_distance
_ccdc_geom_bond_type
C38   H6    1.079490 S    
N10   O23   1.301686 A    
C19   C38   1.407071 A    
C26   O12   1.348655 S    
N8    O20   1.301369 A    
C61   C62   1.417101 A    
N2    C27   1.365249 A    
C78   H43   1.110673 S    
H10   C50   1.084134 S    
C12   C15   1.411158 A    
C4    C17   1.453757 S    
C28   C29   1.396782 A    
C75   H38   1.108882 S    
C76   C77   1.535123 S    
C56   C57   1.392249 A    
C71   C72   1.525204 S    
C30   C31   1.389090 A    
C7    H5    1.083376 S    
Zn1   O7    2.007978 S    
N10   O24   1.301324 A    
N1    C11   1.426663 S    
C41   C49   1.403674 A    
C67   H27   1.100794 S    
C72   H30   1.110829 S    
C22   C23   1.419514 A    
C78   H44   1.110075 S    
C56   C76   1.516489 S    
C51   N7    1.439079 S    
O4    C2    1.307349 A    
O7    C4    1.305852 A    
C61   C65   1.408003 A    
C5    C13   1.395184 A    
C40   N6    1.442605 S    
C67   C68   1.538675 S    
C60   C64   1.401406 A    
C5    O9    1.349903 S    
Zn1   N3    2.050455 S    
C69   H22   1.111111 S    
Zn1   O5    1.924606 S    
C46   C47   1.411356 A    
C23   C27   1.403577 A    
C43   C54   1.400042 A    
O5    C3    1.306118 A    
C68   H26   1.112251 S    
C58   H19   1.076280 S    
C44   C73   1.510628 S    
C29   H3    1.082258 S    
C2    C16   1.455939 S    
C7    C8    1.396366 A    
C60   N4    1.374313 A    
C69   H23   1.110736 S    
C73   C74   1.534515 S    
C35   C40   1.422435 A    
C1    C54   1.453779 S    
C68   C69   1.526808 S    
C10   C70   1.514296 S    
C43   C44   1.391509 A    
H15   C66   1.081841 S    
Zn2   N4    2.038185 S    
C57   H20   1.084645 S    
C22   C79   1.531966 S    
C76   H48   1.113035 S    
C41   H11   1.083770 S    
N9    O22   1.301788 A    
C74   H39   1.111939 S    
C59   C61   1.415447 A    
C41   C53   1.391116 A    
O1    Zn1   1.962017 S    
C9    C10   1.393734 A    
C71   H33   1.110341 S    
C46   C48   1.415047 A    
O3    Zn1   1.987150 S    
C28   N8    1.440262 S    
C36   H4    1.080020 S    
C79   H56   1.102737 S    
C63   C64   1.388463 A    
N6    O16   1.300713 A    
C12   C34   1.409071 A    
C17   C29   1.400054 A    
N3    C66   1.356816 A    
C81   H52   1.110520 S    
C78   H45   1.110491 S    
C19   C20   1.415373 A    
C49   C50   1.389901 A    
O3    C2    1.303195 A    
C57   C58   1.369924 A    
C15   C37   1.420945 A    
C39   N5    1.435306 S    
C75   H37   1.110921 S    
C8    C16   1.412647 A    
C34   C35   1.412059 A    
C38   C39   1.393880 A    
C50   C51   1.394643 A    
C9    H1    1.084846 S    
C30   H7    1.083379 S    
C80   H54   1.107406 S    
C31   H8    1.083033 S    
O1    C1    1.299495 A    
C21   C22   1.416321 A    
C18   C20   1.411488 A    
C79   C80   1.538671 S    
C7    C11   1.398810 A    
C48   C49   1.419070 A    
C18   C21   1.423828 A    
C56   N4    1.388860 A    
C23   C24   1.411287 A    
C14   C36   1.386200 A    
C52   H12   1.077989 S    
C80   C81   1.527229 S    
Zn2   O8    1.987149 S    
C33   C36   1.408178 A    
C25   C39   1.414520 A    
C62   C63   1.393015 A    
C65   H18   1.074973 S    
N1    C6    1.366031 A    
N2    C32   1.432830 S    
C37   C40   1.415351 A    
C59   C60   1.424504 A    
C27   O10   1.349238 S    
C12   C13   1.412750 A    
C43   H13   1.084488 S    
C64   H21   1.064946 S    
C37   C67   1.527639 S    
C45   H14   1.077321 S    
C6    O11   1.348195 S    
C72   H31   1.110429 S    
C77   H47   1.110191 S    
C76   H49   1.082880 S    
C26   N2    1.365235 A    
C9    C16   1.402501 A    
N3    C65   1.345717 A    
C74   H40   1.111531 S    
C28   C32   1.414345 A    
C17   C30   1.396733 A    
C74   C75   1.525940 S    
N7    O18   1.301801 A    
C42   C52   1.387254 A    
C73   H41   1.112189 S    
C47   C54   1.409232 A    
C70   H35   1.111982 S    
C25   C26   1.407016 A    
C79   H55   1.108927 S    
C21   N9    1.438970 S    
C77   C78   1.526799 S    
C55   H17   1.083778 S    
C73   H42   1.112328 S    
C5    N1    1.361523 A    
C31   C32   1.403155 A    
N9    O21   1.301130 A    
C20   C24   1.408477 A    
C10   C11   1.407585 A    
O2    Zn2   1.924608 S    
C6    C15   1.410278 A    
O8    C4    1.304551 A    
C45   C46   1.421399 A    
O6    C3    1.301689 A    
O4    Zn2   2.007972 S    
N6    O15   1.301441 A    
C14   H2    1.083349 S    
C75   H36   1.111010 S    
C19   C35   1.420290 A    
H9    C53   1.081876 S    
C69   H24   1.110492 S    
C67   H28   1.109611 S    
C81   H50   1.110865 S    
O2    C1    1.308349 A    
C13   C14   1.397530 A    
C44   C45   1.398432 A    
C55   C66   1.388832 A    
C71   H32   1.111769 S    
C24   C25   1.416464 A    
C3    C42   1.448157 S    
C58   C59   1.402508 A    
C55   C62   1.398661 A    
N5    O14   1.301178 A    
N5    O13   1.301385 A    
C18   C33   1.414920 A    
C77   H46   1.109655 S    
C8    N10   1.439866 S    
Zn2   O6    1.962017 S    
C33   C34   1.417417 A    
C47   C51   1.424980 A    
N8    O19   1.301550 A    
N7    O17   1.301574 A    
C80   H53   1.112115 S    
C68   H25   1.109391 S    
C42   C53   1.397904 A    
C70   C71   1.535617 S    
C48   C52   1.394498 A    
C70   H34   1.110512 S    
C81   H51   1.110968 S    
C72   H29   1.110924 S    
H16   C63   1.084199 S    
