data_mof_unit_67169.cif
_audit_creation_date              2013-03-05T15:58:59-0500
_audit_creation_method            fapswitch 2.2
_symmetry_space_group_name_H-M    P1
_symmetry_Int_Tables_number       1
_space_group_crystal_system       triclinic
_cell_length_a                    8.14705
_cell_length_b                    12.955021
_cell_length_c                    14.944515
_cell_angle_alpha                 97.987884
_cell_angle_beta                  97.671994
_cell_angle_gamma                 98.901102
_cell_volume                      1523.71590792

loop_
_atom_site_label
_atom_site_type_symbol
_atom_site_description
_atom_site_fract_x
_atom_site_fract_y
_atom_site_fract_z
_atom_type_partial_charge
P1    P     P_3+3 0.998730 0.403530 0.291970 0.460036
O1    O     O_2   0.827880 0.435260 0.277750 -0.359480
O2    O     O_3   0.100280 0.438960 0.391170 -0.414490
O3    O     O_3   0.625580 0.634130 0.333250 -0.377315
O4    O     O_2   0.716678 0.553629 0.177931 -0.389431
O5    O     O_3   0.945420 0.265245 0.269701 -0.583930
O6    O     O_3   0.653058 0.743900 0.184375 -0.501918
H1    H     H_    0.677830 0.852662 0.301931 0.134738
C1    C     C_3   0.564340 0.909622 0.183758 -1.020648
H2    H     H_    0.511427 0.971387 0.224179 0.238658
H3    H     H_    0.687283 0.945195 0.167410 0.300415
P2    P     P_3+3 0.687380 0.751030 0.571310 0.498279
P3    P     P_3+3 0.101237 0.824128 0.370298 0.466624
O7    O     O_2   0.857130 0.766340 0.543890 -0.397098
O8    O     O_3   0.056550 0.691050 0.379010 -0.346963
O9    O     O_2   0.985092 0.877308 0.428794 -0.402386
O10   O     O_3   0.735778 0.787305 0.690511 -0.559844
O11   O     O_3   0.019523 0.834603 0.258113 -0.467318
C2    C     C_3   0.122828 0.794745 0.198743 0.271092
H4    H     H_    0.162326 0.720574 0.216349 -0.029312
H5    H     H_    0.234040 0.856530 0.201158 0.044315
C3    C     C_3   0.028339 0.769530 0.101075 0.441882
H6    H     H_    0.918080 0.705530 0.095621 0.109777
C4    C     C_3   0.371048 0.785495 0.771734 1.074327
H7    H     H_    0.469290 0.737346 0.784687 0.015773
C5    C     C_3   0.390476 0.865595 0.859144 -1.094366
H8    H     H_    0.522624 0.907807 0.878069 0.255973
H9    H     H_    0.303627 0.922870 0.850248 0.251816
H10   H     H_    0.358940 0.824063 0.916481 0.235414
Ba1   Ba    Ba6+2 0.843750 0.550210 0.455600 1.582004
C6    C     C_3   0.937098 0.226322 0.351959 0.408901
H11   H     H_    0.836232 0.255794 0.384900 0.088913
H12   H     H_    0.057027 0.251191 0.399277 0.149024
C7    C     C_3   0.901365 0.106151 0.331924 -0.955983
H13   H     H_    0.769324 0.079256 0.298322 0.257265
H14   H     H_    0.920166 0.073135 0.396254 0.249884
H15   H     H_    0.987423 0.076409 0.286640 0.283356
C8    C     C_3   0.784215 0.702266 0.729631 0.410431
H16   H     H_    0.885039 0.672513 0.696619 0.144428
H17   H     H_    0.675424 0.636875 0.722283 0.127934
C9    C     C_3   0.849702 0.740143 0.831159 -0.999526
H18   H     H_    0.961472 0.803909 0.840175 0.285737
H19   H     H_    0.885679 0.673697 0.864225 0.209871
H20   H     H_    0.751219 0.771572 0.865828 0.261036
P4    P     P_3+3 0.190990 0.596560 0.708040 0.487447
O12   O     O_2   0.361830 0.564780 0.722310 -0.419605
O13   O     O_3   0.089430 0.561130 0.608830 -0.315273
O14   O     O_3   0.564130 0.365960 0.666760 -0.285497
O15   O     O_3   0.206785 0.727910 0.756250 -0.690345
P5    P     P_3+3 0.093806 0.175553 0.624951 0.441409
O16   O     O_3   0.601940 0.368240 0.453770 -0.365850
O17   O     O_3   0.133170 0.309040 0.621000 -0.321620
O18   O     O_2   0.210783 0.133672 0.561802 -0.380226
O19   O     O_3   0.185888 0.163583 0.734624 -0.535199
Ba2   Ba    Ba6+2 0.346090 0.449880 0.544410 1.608397
P6    P     P_3+3 0.590972 0.619899 0.214674 0.460014
C10   C     C_3   0.587619 0.820568 0.237946 0.526950
H21   H     H_    0.464254 0.789011 0.256360 -0.027703
H22   H     H_    0.476894 0.878229 0.118667 0.254954
O20   O     O_3   0.587780 0.631850 0.546230 -0.375563
C11   C     C_3   0.414712 0.280840 0.267110 0.434749
H23   H     H_    0.301310 0.302442 0.293314 0.086916
H24   H     H_    0.517665 0.350773 0.281773 0.122237
C12   C     C_3   0.371871 0.247719 0.163905 -0.991013
H25   H     H_    0.268001 0.178478 0.147462 0.271743
H26   H     H_    0.331617 0.313619 0.131458 0.231605
H27   H     H_    0.483700 0.226068 0.135748 0.258923
P7    P     P_3+3 0.509022 0.232519 0.425118 0.428024
O21   O     O_2   0.332590 0.233690 0.456160 -0.374556
O22   O     O_3   0.465014 0.195899 0.305993 -0.579221
H28   H     H_    0.112816 0.742341 0.053753 -0.021719
C13   C     C_3   0.075817 0.184678 0.796422 0.223507
H29   H     H_    0.034398 0.261893 0.791273 0.069322
H30   H     H_    0.965843 0.119273 0.782755 0.045831
C14   C     C_3   0.168329 0.190367 0.893377 0.105045
H31   H     H_    0.265465 0.263463 0.909865 0.164659
H32   H     H_    0.237864 0.122775 0.896576 0.081143
P8    P     P_3+3 0.600745 0.374624 0.784240 0.518731
C15   C     C_3   0.610441 0.178218 0.745878 0.491789
H33   H     H_    0.740842 0.210879 0.737598 0.004164
O23   O     O_2   0.474757 0.438338 0.824167 -0.387107
O24   O     O_3   0.543805 0.246852 0.806781 -0.521129
H34   H     H_    0.528771 0.161319 0.677986 0.135756
H35   H     H_    0.700139 0.091488 0.849303 0.261518
C16   C     C_3   0.614621 0.076100 0.783155 -1.044917
H36   H     H_    0.657777 0.017386 0.734357 0.265384
H37   H     H_    0.486934 0.045102 0.794960 0.298505
C17   C     C_R   0.822741 0.432136 0.828368 -0.027750
C18   C     C_R   0.894120 0.436727 0.920626 -0.080986
C19   C     C_R   0.038732 0.449272 0.107756 -0.020624
C20   C     C_R   0.875684 0.393439 0.073659 -0.062213
C21   C     C_R   0.803477 0.389645 0.982954 -0.082268
C22   C     C_R   0.109843 0.460992 0.202287 0.238960
H38   H     H_    0.800359 0.352809 0.116625 0.154533
H39   H     H_    0.675533 0.348160 0.962651 0.157456
C23   C     C_R   0.274734 0.515059 0.230252 -0.511847
C24   C     C_R   0.086190 0.524184 0.793338 0.144347
C25   C     C_R   0.156773 0.535145 0.888341 -0.113056
C26   C     C_R   0.061894 0.488464 0.951035 0.014619
C27   C     C_R   0.319466 0.591111 0.923314 -0.031449
C28   C     C_R   0.391125 0.595955 0.013882 -0.206459
C29   C     C_R   0.300695 0.549359 0.075976 -0.043079
C30   C     C_R   0.133645 0.495815 0.045060 0.044200
C31   C     C_R   0.371662 0.556435 0.168509 0.165462
C32   C     C_R   0.921407 0.470481 0.765545 0.366363
H40   H     H_    0.519188 0.637202 0.033951 0.183035
H41   H     H_    0.397605 0.629705 0.881334 0.132766
H42   H     H_    0.330273 0.522555 0.301277 0.179230
C33   C     C_R   0.771027 0.179276 0.539045 -0.471820
C34   C     C_R   0.427260 0.808001 0.452958 -0.458294
C35   C     C_R   0.395194 0.982336 0.420183 -0.252440
C36   C     C_R   0.328434 0.875266 0.414226 0.157254
C37   C     C_R   0.584617 0.847364 0.507690 0.326800
C38   C     C_R   0.652368 0.958559 0.516290 -0.044590
C39   C     C_R   0.555544 0.026231 0.471288 -0.046366
C40   C     C_R   0.616651 0.137476 0.484093 0.240708
C41   C     C_R   0.872406 0.114457 0.577392 0.169681
C42   C     C_R   0.811745 0.005164 0.568787 -0.235592
H43   H     H_    0.315720 0.031590 0.389469 0.191431
H44   H     H_    0.891126 0.957861 0.602103 0.169536
H45   H     H_    0.818026 0.263413 0.547128 0.198399
H46   H     H_    0.374549 0.724954 0.447126 0.165383
O25   O     O_3   0.055798 0.197050 0.957446 -0.635500
C43   C     C_3   0.000705 0.095974 0.979174 0.280721
H47   H     H_    0.107719 0.065334 0.014473 0.138282
H48   H     H_    0.942081 0.038123 0.916644 0.099295
C44   C     C_3   0.871234 0.104554 0.043014 -0.804309
H49   H     H_    0.767752 0.141774 0.012752 0.234831
H50   H     H_    0.817595 0.024479 0.054706 0.258205
H51   H     H_    0.931893 0.153434 0.109470 0.272252
F1    F     F_    0.853724 0.460424 0.676303 -0.668475
F2    F     F_    0.974352 0.858760 0.075486 -0.688108
O26   O     O_3   0.405078 0.837218 0.697600 -0.663291
C45   C     C_3   0.257661 0.845897 0.639321 0.220738
H52   H     H_    0.238896 0.786599 0.576424 0.136977
H53   H     H_    0.137437 0.837722 0.667570 0.152175
C46   C     C_3   0.277328 0.954823 0.619797 -0.851546
H54   H     H_    0.404023 0.982246 0.605745 0.260849
H55   H     H_    0.179583 0.956040 0.562118 0.270186
H56   H     H_    0.259126 0.005454 0.681485 0.275312

loop_
_geom_bond_atom_site_label_1
_geom_bond_atom_site_label_2
_geom_bond_distance
_ccdc_geom_bond_type
C11   O22   1.403638 S    
C4    O26   1.408597 S    
O14   Ba2   2.821998 S    
C26   C30   1.432308 A    
Ba1   O16   2.823075 S    
C28   C29   1.403183 A    
C11   C12   1.520126 S    
P5    C41   1.855990 S    
C9    H18   1.110535 S    
O4    P6    1.542293 D    
C35   C36   1.395368 A    
C45   C46   1.469383 S    
C38   C39   1.441996 A    
C19   C20   1.402461 A    
C33   C41   1.392022 A    
O25   C43   1.413056 S    
C32   F1    1.353817 S    
P4    O12   1.508208 D    
C46   H55   1.096260 S    
C5    H8    1.109802 S    
P5    O19   1.746868 S    
P3    O11   1.750891 S    
C19   C22   1.431468 A    
C14   O25   1.414451 S    
C43   H48   1.112860 S    
C2    H5    1.105319 S    
C4    C5    1.524965 S    
C7    H13   1.105410 S    
P3    C36   1.863123 S    
C8    H16   1.104553 S    
C39   C40   1.427357 A    
C7    H15   1.111681 S    
C28   H40   1.078616 S    
C35   H43   1.080274 S    
P1    O1    1.507961 D    
O14   P8    1.725985 S    
C11   H24   1.110374 S    
C1    C10   1.519596 S    
C27   C28   1.389530 A    
C33   C40   1.392609 A    
O2    Ba2   2.805855 S    
C2    H4    1.113297 S    
P7    O21   1.569841 D    
Ba1   O20   2.888001 S    
O12   Ba2   2.837340 S    
P5    O17   1.720094 S    
C6    H12   1.101505 S    
C1    H2    1.110382 S    
C7    H14   1.107195 S    
O17   Ba2   2.789160 S    
O10   C8    1.401127 S    
P2    Ba1   3.427124 S    
C16   H37   1.101802 S    
O5    C6    1.397861 S    
C23   H42   1.081818 S    
C8    H17   1.109546 S    
Ba2   O20   2.822551 S    
O3    P6    1.735906 S    
C9    H19   1.108481 S    
C11   H23   1.109675 S    
O6    P6    1.747398 S    
O7    Ba1   2.903967 S    
C13   C14   1.527899 S    
C24   C25   1.437810 A    
C34   C36   1.405540 A    
P4    O13   1.568221 S    
C46   H56   1.095747 S    
P5    O18   1.533330 D    
P1    O5    1.750353 S    
C12   H27   1.111053 S    
Ba1   O13   2.805116 S    
C2    C3    1.522962 S    
C4    H7    1.101753 S    
P6    C31   1.844724 S    
C8    C9    1.524308 S    
C13   H30   1.109296 S    
C20   C21   1.394844 A    
O11   C2    1.403109 S    
C45   H53   1.113339 S    
C16   H36   1.109530 S    
C21   H39   1.079027 S    
C1    H22   1.111105 S    
C12   H26   1.109408 S    
P2    O10   1.752749 S    
O2    Ba1   2.907922 S    
C14   H31   1.111256 S    
C44   H50   1.108211 S    
H1    C10   1.111158 S    
C1    H3    1.108644 S    
P8    O24   1.740039 S    
C6    H11   1.102863 S    
P4    O15   1.731468 S    
C6    C7    1.518222 S    
Ba2   O21   2.904306 S    
H35   C16   1.104867 S    
C18   C21   1.409667 A    
C29   C31   1.410619 A    
C14   H32   1.117096 S    
C34   C37   1.405125 A    
C38   C42   1.421189 A    
P7    C40   1.868453 S    
C43   C44   1.520102 S    
P7    O22   1.750761 S    
P2    O7    1.486223 D    
C22   C23   1.395525 A    
C25   C27   1.402866 A    
C23   C31   1.401198 A    
O26   C45   1.415396 S    
C9    H20   1.109695 S    
C44   H49   1.110153 S    
C3    H28   1.110688 S    
C15   C16   1.508440 S    
O8    Ba1   2.788598 S    
O13   Ba2   2.908758 S    
C37   C38   1.442174 A    
Ba1   Ba2   4.491662 S    
P8    C17   1.840949 S    
C4    O15   1.400498 S    
C27   H41   1.069654 S    
C3    F2    1.382481 S    
C13   H29   1.113255 S    
C18   C26   1.410697 A    
C15   O24   1.403606 S    
C45   H52   1.105282 S    
C46   H54   1.095844 S    
C5    H9    1.110708 S    
O1    Ba1   2.836777 S    
C12   H25   1.108804 S    
P3    O8    1.732791 S    
C44   H51   1.108550 S    
C24   C32   1.393056 A    
P4    C24   1.899518 S    
C41   C42   1.407632 A    
C34   H46   1.081890 S    
C20   H38   1.079417 S    
C15   H34   1.110405 S    
C17   C32   1.407812 A    
P8    O23   1.542646 D    
C33   H45   1.082215 S    
C10   H21   1.109490 S    
P1    Ba1   3.385321 S    
P2    C37   1.898165 S    
O16   Ba2   2.887256 S    
O16   P7    1.772065 S    
C29   C30   1.413421 A    
C42   H44   1.078491 S    
C19   C30   1.430228 A    
C15   H33   1.110658 S    
P2    O20   1.597827 S    
O19   C13   1.399498 S    
C17   C18   1.412485 A    
P4    Ba2   3.385865 S    
C5    H10   1.110792 S    
P1    C22   1.887506 S    
C25   C26   1.430829 A    
P3    O9    1.545777 D    
C3    H6    1.110042 S    
C35   C39   1.412900 A    
P1    O2    1.568067 S    
O6    C10   1.403039 S    
O3    Ba1   2.822635 S    
C43   H47   1.112863 S    
