data_mof_unit_55001.cif
_audit_creation_date              2012-12-11T16:22:32-0500
_audit_creation_method            fapswitch 2.2
_symmetry_space_group_name_H-M    P1
_symmetry_Int_Tables_number       1
_space_group_crystal_system       triclinic
_cell_length_a                    16.99256
_cell_length_b                    16.878563
_cell_length_c                    19.587362
_cell_angle_alpha                 118.45164
_cell_angle_beta                  61.833027
_cell_angle_gamma                 101.316298
_cell_volume                      4351.40992836

loop_
_atom_site_label
_atom_site_type_symbol
_atom_type_description
_atom_site_fract_x
_atom_site_fract_y
_atom_site_fract_z
_atom_type_partial_charge
C1    C     C_R   0.040207 0.757934 0.011898 -0.129266
C2    C     C_R   0.251003 0.522008 0.827077 -0.149765
C3    C     C_R   0.186957 0.485977 0.081870 -0.186957
C4    C     C_R   0.763133 0.423167 0.166401 -0.161076
C5    C     C_R   0.981633 0.342302 0.762633 0.233717
C6    C     C_R   0.261966 0.535839 0.058093 0.030336
C7    C     C_R   0.934702 0.264495 0.762515 -0.004672
C8    C     C_R   0.257463 0.463744 0.745209 0.062793
C9    C     C_R   0.991888 0.233499 0.041661 0.025257
C10   C     C_R   0.817491 0.924736 0.470860 -0.186074
C11   C     C_R   0.855230 0.848359 0.392608 -0.206278
C12   C     C_R   0.764139 0.448735 0.244562 0.046639
C13   C     C_R   0.946287 0.844371 0.335959 0.087739
C14   C     C_R   0.999370 0.920090 0.356703 0.220528
C15   C     C_R   0.958652 0.998077 0.432738 -0.234623
C16   C     C_R   0.804258 0.563136 0.966659 -0.157931
C17   C     C_R   0.869615 0.999207 0.491203 0.085994
C18   C     C_R   0.833743 0.156566 0.603730 -0.193043
C19   C     C_R   0.855408 0.223515 0.668821 -0.174752
C20   C     C_R   0.893813 0.199370 0.706349 0.163488
C21   C     C_R   0.893625 0.108895 0.690160 -0.186984
C22   C     C_R   0.867691 0.042663 0.628658 -0.160976
C23   C     C_R   0.724986 0.556411 0.032921 0.064317
C24   C     C_R   0.844956 0.065804 0.580334 0.126191
C25   C     C_R   0.600306 0.315138 0.357596 -0.179815
C26   C     C_R   0.660932 0.338028 0.291575 -0.171938
C27   C     C_R   0.705539 0.419297 0.311259 0.142837
C28   C     C_R   0.966040 0.673694 0.250177 -0.143282
C29   C     C_R   0.692457 0.474862 0.396605 -0.180467
C30   C     C_R   0.630814 0.453017 0.462433 -0.171123
C31   C     C_R   0.582918 0.374015 0.443777 0.115259
C32   C     C_R   0.496800 0.380191 0.592126 0.027406
C33   C     C_R   0.416216 0.407640 0.667363 -0.180429
C34   C     C_R   0.983272 0.760267 0.256993 0.047763
C35   C     C_R   0.338856 0.421761 0.665302 0.112558
C36   C     C_R   0.340460 0.399765 0.586077 -0.176195
C37   C     C_R   0.420144 0.373476 0.511438 -0.174705
C38   C     C_R   0.499663 0.368522 0.514518 0.060396
C39   C     C_R   0.638213 0.602690 0.074085 0.046630
C40   C     C_R   0.740268 0.488878 0.046428 -0.109518
C41   C     C_R   0.335208 0.551894 0.082959 0.153705
C42   C     C_R   0.406828 0.526348 0.153120 -0.216642
C43   C     C_R   0.332850 0.519111 0.137929 -0.181115
C44   C     C_R   0.411100 0.595547 0.047511 -0.276522
C45   C     C_R   0.248327 0.572833 0.013694 0.192418
C46   C     C_R   0.480985 0.610598 0.068979 0.138603
C47   C     C_R   0.481977 0.570165 0.116804 0.197146
C48   C     C_R   0.561319 0.566460 0.119384 -0.306202
C49   C     C_R   0.628045 0.666320 0.051210 0.225012
C50   C     C_R   0.551235 0.663790 0.041543 -0.271936
C51   C     C_R   0.812699 0.178584 0.210258 0.112641
C52   C     C_R   0.033033 0.752133 0.173972 -0.120443
C53   C     C_R   0.954807 0.864483 0.008745 0.130080
C54   C     C_R   0.843221 0.952288 0.025757 -0.251019
C55   C     C_R   0.892319 0.871706 0.983753 -0.170159
C56   C     C_R   0.920797 0.262885 0.836605 -0.211407
C57   C     C_R   0.973070 0.942418 0.071258 -0.279278
C58   C     C_R   0.923171 0.023031 0.114530 0.191459
C59   C     C_R   0.855048 0.026724 0.094050 0.204669
C60   C     C_R   0.798523 0.103920 0.143935 -0.300690
C61   C     C_R   0.882367 0.176475 0.228180 -0.158497
C62   C     C_R   0.937149 0.098755 0.181057 -0.230571
C63   C     C_R   0.841082 0.495053 0.242094 -0.140464
C64   C     C_R   0.961219 0.690382 0.936946 -0.149729
C65   C     C_R   0.988929 0.774442 0.981669 0.060461
C66   C     C_3   0.872649 0.191367 0.988691 -0.395812
C67   C     C_R   0.171829 0.453113 0.751801 -0.156799
C68   C     C_3   0.905319 0.100379 0.909391 -0.914137
C69   C     C_3   0.990516 0.389895 0.710866 -0.393215
C70   C     C_3   0.047241 0.334900 0.613739 -0.930893
C71   C     C_3   0.100405 0.916950 0.308083 -0.405213
C72   C     C_3   0.143162 0.862765 0.326854 -0.878835
C73   C     C_3   0.692842 0.740736 0.044337 -0.398406
C74   C     C_3   0.646344 0.832945 0.112991 -0.867952
C75   C     C_3   0.279914 0.661227 0.008302 -0.392659
C76   C     C_3   0.266959 0.740267 0.095643 -0.897743
C77   C     C_R   0.032538 0.314016 0.071292 -0.189034
C78   C     C_R   0.949003 0.246539 0.001967 0.252419
H1    H     H_    0.082479 0.805035 0.038757 0.083185
H2    H     H_    0.999204 0.054917 0.451935 0.129859
H3    H     H_    0.816017 0.175116 0.566726 0.122945
H4    H     H_    0.846472 0.292780 0.685417 0.124083
H5    H     H_    0.919948 0.088354 0.720292 0.121857
H6    H     H_    0.877482 0.972539 0.610499 0.122370
H7    H     H_    0.562483 0.254824 0.342331 0.117710
H8    H     H_    0.671340 0.293310 0.225793 0.104283
H9    H     H_    0.725549 0.538300 0.413305 0.111341
H10   H     H_    0.615090 0.501971 0.528585 0.114993
H11   H     H_    0.813768 0.602470 0.933730 0.090916
H12   H     H_    0.872582 0.221204 0.862691 0.138873
H13   H     H_    0.414734 0.420235 0.727608 0.119046
H14   H     H_    0.281679 0.409369 0.582409 0.117652
H15   H     H_    0.420876 0.365211 0.452769 0.125089
H16   H     H_    0.564609 0.526481 0.147734 0.129020
H17   H     H_    0.406162 0.495860 0.191140 0.124793
H18   H     H_    0.545762 0.703960 0.014109 0.137237
H19   H     H_    0.275997 0.484579 0.166535 0.114728
H20   H     H_    0.419430 0.615168 0.000093 0.137894
H21   H     H_    0.743341 0.106598 0.131890 0.120861
H22   H     H_    0.928369 0.654906 0.302354 0.099086
H23   H     H_    0.153692 0.408208 0.700901 0.126919
H24   H     H_    0.892873 0.234721 0.279602 0.118855
H25   H     H_    0.792897 0.954926 0.007679 0.140039
H26   H     H_    0.989404 0.097372 0.197364 0.124889
H27   H     H_    0.877523 0.813962 0.935004 0.115258
H28   H     H_    0.021802 0.939595 0.090893 0.115290
H29   H     H_    0.693971 0.463522 0.091597 0.095699
H30   H     H_    0.056206 0.806607 0.156461 0.088635
H31   H     H_    0.870128 0.511060 0.285638 0.089001
H32   H     H_    0.929847 0.676117 0.895833 0.082371
H33   H     H_    0.953262 0.109420 0.851021 0.258463
H34   H     H_    0.064615 0.331632 0.112716 0.115356
H35   H     H_    0.938940 0.059596 0.919621 0.270272
H36   H     H_    0.847550 0.063144 0.898463 0.248580
H37   H     H_    0.829227 0.180205 0.046288 0.190357
H38   H     H_    0.829368 0.229423 0.985655 0.172212
H39   H     H_    0.110260 0.308252 0.600390 0.253109
H40   H     H_    0.010794 0.276983 0.584983 0.266681
H41   H     H_    0.064023 0.378409 0.580796 0.251896
H42   H     H_    0.923845 0.407350 0.723803 0.175713
H43   H     H_    0.020917 0.456079 0.733554 0.186674
H44   H     H_    0.123975 0.893750 0.397193 0.259429
H45   H     H_    0.305316 0.543110 0.845080 0.092201
H46   H     H_    0.121767 0.791970 0.305751 0.257733
H47   H     H_    0.217019 0.862576 0.291683 0.254923
H48   H     H_    0.123300 0.889772 0.237918 0.183524
H49   H     H_    0.126326 0.986150 0.328110 0.189090
H50   H     H_    0.601371 0.300555 0.547726 0.110787
H51   H     H_    0.621844 0.411946 0.584081 0.097533
H52   H     H_    0.597680 0.848811 0.097999 0.248159
H53   H     H_    0.610968 0.834145 0.177850 0.261939
H54   H     H_    0.696173 0.886132 0.115403 0.258060
H55   H     H_    0.748975 0.735273 0.056041 0.206071
H56   H     H_    0.167346 0.458567 0.127205 0.102555
H57   H     H_    0.720468 0.737005 0.978886 0.178153
H58   H     H_    0.203119 0.735108 0.147600 0.276886
H59   H     H_    0.321893 0.742770 0.111756 0.262636
H60   H     H_    0.265486 0.804751 0.093903 0.241114
H61   H     H_    0.349064 0.655442 0.957729 0.165412
H62   H     H_    0.238599 0.678710 0.986840 0.195375
H63   H     H_    0.749448 0.924170 0.517147 0.125868
H64   H     H_    0.814083 0.790808 0.377635 0.133389
H65   H     H_    0.719848 0.374714 0.141554 0.085681
N1    N     N_R   0.034930 0.670790 0.995440 -0.038083
N2    N     N_R   0.867000 0.509260 0.948460 -0.042041
N3    N     N_R   0.003780 0.616410 0.165900 -0.035478
N4    N     N_R   0.825670 0.461520 0.995440 -0.042633
N5    N     N_R   0.045120 0.664150 0.118920 -0.035081
N6    N     N_R   0.884940 0.497570 0.165910 -0.032916
N7    N     N_R   0.985840 0.628110 0.948460 -0.035172
N8    N     N_R   0.174330 0.538480 0.004560 -0.064559
N9    N     N_3   0.574232 0.364875 0.596133 -0.219181
N10   N     N_R   0.954880 0.335850 0.881080 -0.047615
N11   N     N_R   0.115060 0.502430 0.834090 -0.041519
N12   N     N_R   0.014160 0.371890 0.051540 -0.050099
N13   N     N_R   0.965070 0.329210 0.004560 -0.068257
N14   N     N_R   0.164150 0.545120 0.881070 -0.043219
N15   N     N_R   0.133000 0.490740 0.051540 -0.044162
N16   N     N_R   0.996220 0.383590 0.834100 -0.069772
N17   N     N_R   0.835850 0.454880 0.118930 -0.037987
Ni1   Ni    Ni4+2 0.103690 0.603690 0.000000 0.207832
Ni2   Ni    Ni4+2 0.896310 0.396310 0.000000 0.199067
Ni3   Ni    Ni4+2 0.991110 0.505800 0.892250 0.199598
Ni4   Ni    Ni4+2 0.008890 0.494200 0.107750 0.207453

loop_
_geom_bond_atom_site_label_1
_geom_bond_atom_site_label_2
_ccdc_geom_bond_type
C25   C31   A    
C66   C68   S    
C58   C62   A    
C6    C45   A    
C74   H54   S    
N1    Ni1   S    
C27   C29   A    
C14   C71   S    
C35   C36   A    
C51   C61   A    
C3    C6    A    
C78   N13   A    
C4    H65   S    
C76   H58   S    
C76   H59   S    
N7    Ni3   S    
C26   C27   A    
C29   C30   A    
C48   H16   S    
C55   H27   S    
C67   N11   A    
C18   C24   A    
N5    Ni1   S    
C36   C37   A    
C75   H62   S    
C33   H13   S    
C30   C31   A    
C49   C73   S    
C70   H39   S    
C23   C40   A    
C18   H3    S    
C18   C19   A    
C73   C74   S    
C72   H47   S    
C63   N6    A    
C5    C69   S    
C13   C14   A    
C54   C55   A    
C44   H20   S    
H50   N9    S    
C73   H57   S    
N8    Ni1   S    
C6    C41   S    
C3    N15   A    
C1    C65   A    
C71   H48   S    
C32   C38   A    
C4    C12   A    
C19   H4    S    
C53   C65   S    
C62   H26   S    
N15   Ni4   S    
C68   H35   S    
C9    C78   A    
C28   H22   S    
C56   H12   S    
C57   H28   S    
N13   Ni2   S    
C59   C60   A    
C52   N5    A    
C16   H11   S    
C74   H53   S    
C72   H46   S    
C41   C43   A    
C71   H49   S    
C61   C62   A    
C7    C56   A    
N2    N4    A    
C44   C46   A    
N3    N5    A    
C54   C59   A    
C53   C55   A    
C66   C78   S    
C17   C24   S    
C66   H37   S    
C12   C27   S    
C42   H17   S    
N8    N15   A    
C21   H5    S    
C54   H25   S    
N11   N14   A    
C10   C11   A    
N1    N7    A    
C5    C7    A    
C12   C63   A    
C53   C57   A    
C10   H63   S    
N2    Ni3   S    
C5    N16   A    
C25   C26   A    
C2    H45   S    
N3    Ni4   S    
C64   N7    A    
C16   N2    A    
C45   N8    A    
C8    C35   S    
N17   Ni2   S    
N10   N16   A    
C77   H34   S    
C75   C76   S    
C37   C38   A    
N11   Ni3   S    
C64   H32   S    
C15   H2    S    
C32   N9    S    
C69   H43   S    
C70   H41   S    
C26   H8    S    
C25   H7    S    
C37   H15   S    
N6    Ni4   S    
C9    C77   A    
C66   H38   S    
H51   N9    S    
C40   H29   S    
C39   C49   A    
C73   H55   S    
C49   C50   A    
C16   C23   A    
C74   H52   S    
C1    H1    S    
C41   C44   A    
C22   C24   A    
C42   C43   A    
C30   H10   S    
N14   Ni1   S    
C67   H23   S    
C15   C17   A    
C46   C47   A    
C40   N4    A    
C72   H44   S    
C34   C52   A    
C2    C8    A    
C43   H19   S    
C56   N10   A    
C47   C48   A    
N4    Ni2   S    
C60   H21   S    
C76   H60   S    
N12   Ni4   S    
N6    N17   A    
C46   C50   A    
C69   H42   S    
C28   N3    A    
C31   C38   S    
N10   Ni2   S    
C45   C75   S    
C3    H56   S    
C64   C65   A    
C19   C20   A    
C61   H24   S    
C58   C59   A    
C13   C34   S    
C1    N1    A    
C75   H61   S    
C32   C33   A    
C11   C13   A    
C50   H18   S    
C57   C58   A    
C4    N17   A    
C70   H40   S    
C2    N14   A    
C23   C39   S    
C33   C35   A    
N16   Ni3   S    
C42   C47   A    
C69   C70   S    
C11   H64   S    
C29   H9    S    
C36   H14   S    
C28   C34   A    
C71   C72   S    
C20   C21   A    
C52   H30   S    
C8    C67   A    
C7    C20   S    
N12   N13   A    
C22   H6    S    
C14   C15   A    
C39   C48   A    
C51   C60   A    
C10   C17   A    
C21   C22   A    
C68   H33   S    
C77   N12   A    
C68   H36   S    
C63   H31   S    
