data_mof_unit_56224.cif
_audit_creation_date              2012-12-11T17:14:05-0500
_audit_creation_method            fapswitch 2.2
_symmetry_space_group_name_H-M    P1
_symmetry_Int_Tables_number       1
_space_group_crystal_system       triclinic
_cell_length_a                    18.199168
_cell_length_b                    7.099913
_cell_length_c                    13.029897
_cell_angle_alpha                 90.244298
_cell_angle_beta                  72.782719
_cell_angle_gamma                 89.963026
_cell_volume                      1608.16313306

loop_
_atom_site_label
_atom_site_type_symbol
_atom_type_description
_atom_site_fract_x
_atom_site_fract_y
_atom_site_fract_z
_atom_type_partial_charge
O1    O     O_R   0.453880 0.506200 0.150010 -0.528655
O2    O     O_R   0.546120 0.006200 0.849990 -0.538122
O3    O     O_R   0.604080 0.177770 0.007280 -0.536156
O4    O     O_R   0.395920 0.677770 0.992720 -0.528425
C1    C     C_R   0.635951 0.344417 0.001771 0.769333
C2    C     C_R   0.364050 0.844526 0.998202 0.771075
O5    O     O_R   0.458010 0.176640 0.159130 -0.540042
O6    O     O_R   0.541990 0.676640 0.840870 -0.530760
O7    O     O_R   0.399010 0.004010 0.002930 -0.535512
O8    O     O_R   0.600990 0.504010 0.997070 -0.527689
C3    C     C_R   0.441897 0.345746 0.201017 0.774489
C4    C     C_R   0.558107 0.844331 0.798981 0.775948
O9    O     O_3   0.480810 0.338440 0.948570 -0.373620
O10   O     O_3   0.519190 0.838440 0.051430 -0.374131
V1    V     V_3+5 0.503560 0.064490 0.009540 1.539289
V2    V     V_3+5 0.496440 0.564490 0.990460 1.559252
C5    C     C_R   0.577693 0.897266 0.506965 -0.122958
C6    C     C_R   0.422897 0.336536 0.494414 -0.123598
H1    H     H_    0.648182 0.896864 0.301539 0.168068
H2    H     H_    0.352184 0.347727 0.699545 0.167720
H3    H     H_    0.540232 0.917151 0.456850 0.165426
H4    H     H_    0.460496 0.328424 0.545100 0.165678
C7    C     C_R   0.592394 0.851613 0.682830 -0.097546
C8    C     C_R   0.407856 0.355629 0.317271 -0.097314
C9    C     C_R   0.948564 0.862839 0.382190 -0.220961
C10   C     C_R   0.051718 0.346486 0.618072 -0.222959
C11   C     C_R   0.918384 0.881783 0.492962 0.012212
C12   C     C_R   0.082113 0.316485 0.508133 0.014839
C13   C     C_R   0.838798 0.894717 0.538142 -0.094412
C14   C     C_R   0.161759 0.304092 0.463522 -0.094194
C15   C     C_R   0.787897 0.866284 0.476240 0.042020
C16   C     C_R   0.212409 0.344559 0.524298 0.040915
C17   C     C_R   0.818649 0.864551 0.361478 0.014725
C18   C     C_R   0.181567 0.356461 0.638865 0.014494
C19   C     C_R   0.706688 0.855846 0.525880 0.048633
C20   C     C_R   0.293510 0.358040 0.474245 0.047284
C21   C     C_R   0.657388 0.881350 0.461006 0.061979
C22   C     C_R   0.342998 0.346723 0.539812 0.061862
C23   C     C_R   0.687232 0.885681 0.350018 -0.119203
C24   C     C_R   0.313094 0.350198 0.650823 -0.119701
C25   C     C_R   0.765765 0.870860 0.299332 0.082927
C26   C     C_R   0.234400 0.360700 0.701136 0.082413
C27   C     C_R   0.671806 0.817454 0.637008 0.038351
C28   C     C_R   0.328074 0.386043 0.361913 0.037305
C29   C     C_R   0.545429 0.889763 0.617492 0.096360
C30   C     C_R   0.455215 0.334172 0.383809 0.095364
C31   C     C_R   0.900460 0.862354 0.315965 -0.062767
C32   C     C_R   0.099730 0.358610 0.684190 -0.062063
H5    H     H_    0.010503 0.857092 0.346490 0.132167
H6    H     H_    0.989752 0.352791 0.653417 0.129484
H7    H     H_    0.817048 0.934021 0.621700 0.181304
H8    H     H_    0.183778 0.256375 0.381461 0.180754
C33   C     C_1   0.216256 0.858918 0.000535 -0.089370
C34   C     C_1   0.783743 0.358914 0.999474 -0.089436
C35   C     C_1   0.283597 0.852693 0.999215 -0.089342
C36   C     C_1   0.716405 0.352475 0.000785 -0.089733
O11   O     O_R   0.899030 0.205490 0.002790 -0.528620
O12   O     O_R   0.100970 0.705490 0.997210 -0.528247
O13   O     O_R   0.042000 0.536370 0.840840 -0.535613
O14   O     O_R   0.958000 0.036370 0.159160 -0.530564
C37   C     C_R   0.060850 0.368370 0.799391 0.737922
C38   C     C_R   0.939245 0.868976 0.200681 0.739125
O15   O     O_R   0.895930 0.535070 0.992690 -0.527708
O16   O     O_R   0.104070 0.035070 0.007310 -0.527893
O17   O     O_R   0.953870 0.707520 0.150040 -0.536982
O18   O     O_R   0.046130 0.207520 0.849960 -0.532437
C39   C     C_R   0.864207 0.366831 0.998487 0.744841
C40   C     C_R   0.135796 0.866771 0.001523 0.745417
O19   O     O_3   0.019200 0.374340 0.051340 -0.361750
O20   O     O_3   0.980800 0.874340 0.948660 -0.360652
V3    V     V_3+5 0.996440 0.648350 0.990470 1.577483
V4    V     V_3+5 0.003560 0.148350 0.009530 1.587475
I1    I     I_    0.423946 0.912929 0.680352 -0.455632
I2    I     I_    0.577024 0.323042 0.321851 -0.455487
I3    I     I_    0.727264 0.649409 0.730474 -0.406704
I4    I     I_    0.271056 0.534495 0.262666 -0.403852
C41   C     C_2   0.970975 0.890541 0.560470 0.353788
H9    H     H_    0.032725 0.881139 0.523402 0.066597
O21   O     O_2   0.946249 0.907614 0.657979 -0.520714
C42   C     C_2   0.029763 0.297632 0.440764 0.352286
H10   H     H_    0.967955 0.306589 0.477387 0.066962
O22   O     O_2   0.054761 0.273033 0.343795 -0.521817
I5    I     I_    0.788280 0.866810 0.129565 -0.350755
I6    I     I_    0.211621 0.371628 0.870858 -0.349471

loop_
_geom_bond_atom_site_label_1
_geom_bond_atom_site_label_2
_ccdc_geom_bond_type
C14   C16   A    
C7    C29   A    
C11   C13   A    
C1    C36   S    
O1    C3    A    
C2    C35   S    
O2    C4    A    
C2    O7    A    
C23   C25   A    
C41   H9    S    
O5    C3    A    
C4    C7    S    
C16   C20   A    
O14   C38   A    
C19   C21   A    
C5    C29   A    
C10   H6    S    
H2    C24   S    
O12   V3    S    
O14   V4    S    
C25   I5    S    
C3    C8    S    
C7    C27   A    
C29   I1    S    
O19   V3    S    
C33   C40   S    
O5    V1    S    
C37   O18   A    
O18   V4    S    
C18   C26   A    
C15   C17   A    
O20   V3    S    
C19   C27   A    
C9    C31   A    
C10   C32   A    
C31   C38   S    
C33   C35   T    
O6    V2    S    
O11   C39   A    
C6    C30   A    
C34   C36   T    
C41   O21   D    
C27   I3    S    
O15   C39   A    
O13   C37   A    
C26   I6    S    
O4    C2    A    
C34   C39   S    
C11   C41   S    
O17   V3    S    
C5    H3    S    
C16   C18   A    
O4    V2    S    
O19   V4    S    
C24   C26   A    
O6    C4    A    
O1    V2    S    
C5    C21   A    
O2    V1    S    
H1    C23   S    
O12   C40   A    
O15   V3    S    
C17   C31   A    
C15   C19   A    
C20   C28   A    
C18   C32   A    
O16   C40   A    
C30   I2    S    
O3    V1    S    
C13   H7    S    
C14   H8    S    
C38   O17   A    
C6    H4    S    
C42   H10   S    
O3    C1    A    
C9    C11   A    
C10   C12   A    
C8    C30   A    
C12   C14   A    
C6    C22   A    
C17   C25   A    
C1    O8    A    
C21   C23   A    
O8    V2    S    
C22   C24   A    
C32   C37   S    
C8    C28   A    
C20   C22   A    
C42   O22   D    
O16   V4    S    
O11   V4    S    
O7    V1    S    
C12   C42   S    
C9    H5    S    
C13   C15   A    
O9    V2    S    
O10   V1    S    
O20   V4    S    
C28   I4    S    
O13   V3    S    
