data_mof_unit_64438.cif
_audit_creation_date              2013-03-05T17:01:53-0500
_audit_creation_method            fapswitch 2.2
_symmetry_space_group_name_H-M    P1
_symmetry_Int_Tables_number       1
_space_group_crystal_system       triclinic
_cell_length_a                    16.241112
_cell_length_b                    15.810042
_cell_length_c                    16.636042
_cell_angle_alpha                 91.384051
_cell_angle_beta                  85.619515
_cell_angle_gamma                 91.26357
_cell_volume                      4257.08486663

loop_
_atom_site_label
_atom_site_type_symbol
_atom_site_description
_atom_site_fract_x
_atom_site_fract_y
_atom_site_fract_z
_atom_type_partial_charge
O1    O     O_R   0.577460 0.503670 0.387340 -0.607523
O2    O     O_R   0.438160 0.497080 0.381100 -0.583572
C1    C     C_R   0.512534 0.502358 0.346641 0.943310
O3    O     O_R   0.569680 0.380440 0.503120 -0.553765
O4    O     O_R   0.430380 0.373850 0.496890 -0.615233
C2    C     C_R   0.500885 0.338566 0.499432 0.892336
Zn1   Zn    Zn3+2 0.593020 0.504400 0.504170 1.109636
Zn2   Zn    Zn3+2 0.406980 0.495600 0.495830 1.106505
O5    O     O_R   0.561840 0.502920 0.618900 -0.547139
O6    O     O_R   0.422540 0.496330 0.612660 -0.562207
O7    O     O_R   0.569620 0.626150 0.503110 -0.597131
O8    O     O_R   0.430320 0.619560 0.496880 -0.563757
C3    C     C_R   0.487606 0.494889 0.653541 0.960477
C4    C     C_R   0.498840 0.661424 0.500889 0.911276
C5    C     C_3   0.561399 0.047313 0.428922 0.284694
C6    C     C_3   0.412149 0.051355 0.496310 -0.093608
C7    C     C_3   0.403398 0.950516 0.492264 0.301250
H1    H     H_    0.397421 0.075220 0.437363 0.228764
C8    C     C_1   0.495527 0.749815 0.503844 0.062561
C9    C     C_3   0.504817 0.083567 0.506318 -0.339050
C10   C     C_3   0.564674 0.945687 0.438145 0.136657
C11   C     C_3   0.494418 0.916660 0.506123 -0.282578
C12   C     C_3   0.515781 0.954281 0.592660 -0.040110
C13   C     C_3   0.534436 0.053807 0.591530 0.332548
C14   C     C_1   0.493227 0.824823 0.506008 0.250796
C15   C     C_1   0.503766 0.175229 0.502923 0.246424
C16   C     C_1   0.502461 0.250182 0.500666 0.062672
H2    H     H_    0.457085 0.948216 0.629858 0.207884
C17   C     C_R   0.524328 0.514114 0.259610 -0.221885
C18   C     C_R   0.472749 0.569199 0.222112 0.148895
C19   C     C_R   0.484530 0.580984 0.138778 0.191056
C20   C     C_R   0.547427 0.536587 0.093669 0.149362
C21   C     C_R   0.604354 0.488764 0.131971 0.031185
C22   C     C_R   0.591077 0.475520 0.214937 0.026774
C23   C     C_R   0.542956 0.438859 0.861810 0.027699
C24   C     C_R   0.544048 0.440958 0.777364 0.254911
C25   C     C_R   0.477718 0.477098 0.908697 0.182525
N1    N     N_2   0.544910 0.527930 0.009683 -0.088185
N2    N     N_2   0.481252 0.488265 0.992436 -0.144027
C26   C     C_R   0.478498 0.479372 0.740918 -0.330803
C27   C     C_R   0.407301 0.504696 0.789369 0.281183
C28   C     C_R   0.407779 0.504049 0.873318 -0.006616
N3    N     N_R   0.283090 0.489740 0.490280 -0.140122
C29   C     C_R   0.233734 0.554695 0.519839 0.412149
C30   C     C_R   0.147492 0.548709 0.517499 -0.321796
C31   C     C_R   0.109844 0.476119 0.485231 0.190823
C32   C     C_R   0.161247 0.411707 0.451951 0.172114
C33   C     C_R   0.248405 0.421054 0.452802 0.103037
C34   C     C_R   0.850733 0.449750 0.468388 0.134834
C35   C     C_R   0.763410 0.444403 0.477289 0.234727
C36   C     C_R   0.892360 0.521414 0.499661 0.097138
N4    N     N_2   0.021715 0.465412 0.485094 -0.029166
N5    N     N_2   0.980988 0.531240 0.498456 -0.132831
N6    N     N_R   0.716930 0.510260 0.509710 -0.220527
C37   C     C_R   0.756510 0.580441 0.539773 0.376948
C38   C     C_R   0.843831 0.586742 0.535567 -0.093883
H3    H     H_    0.110267 0.600321 0.542655 0.217141
N7    N     N_3   0.556504 0.900778 0.359949 -0.372050
H4    H     H_    0.594320 0.928620 0.313746 0.272991
H5    H     H_    0.497808 0.888957 0.342049 0.281239
N8    N     N_R   0.646981 0.083025 0.421228 0.272406
O9    O     O_R   0.660519 0.162971 0.435898 -0.224686
O10   O     O_R   0.699788 0.047072 0.368949 -0.252712
N9    N     N_R   0.645932 0.917011 0.462516 0.280819
O11   O     O_R   0.693017 0.962272 0.507146 -0.230974
O12   O     O_R   0.672961 0.843241 0.437314 -0.269350
N10   N     N_R   0.610776 0.402960 0.728756 0.224538
O13   O     O_R   0.596339 0.338945 0.680909 -0.293499
O14   O     O_R   0.685076 0.435528 0.728616 -0.321049
N11   N     N_3   0.606016 0.397381 0.901863 -0.399290
H6    H     H_    0.577089 0.349220 0.936334 0.226603
H7    H     H_    0.648589 0.367203 0.861424 0.262101
N12   N     N_3   0.672884 0.448707 0.087143 -0.403817
H8    H     H_    0.727065 0.472973 0.109810 0.214212
H9    H     H_    0.677179 0.466024 0.026847 0.243039
N13   N     N_3   0.643413 0.419934 0.253729 -0.354954
H10   H     H_    0.642311 0.360752 0.224329 0.261117
H11   H     H_    0.703797 0.444530 0.248166 0.232379
N14   N     N_R   0.334636 0.532224 0.754732 0.260312
O15   O     O_R   0.289349 0.477077 0.717807 -0.315895
O16   O     O_R   0.303213 0.604796 0.777362 -0.252694
N15   N     N_R   0.433552 0.637908 0.099158 0.228416
O17   O     O_R   0.465437 0.683802 0.040292 -0.303770
O18   O     O_R   0.354958 0.642980 0.120103 -0.275231
N16   N     N_3   0.336857 0.532296 0.922543 -0.327369
H12   H     H_    0.354460 0.584814 0.956981 0.275422
H13   H     H_    0.317233 0.483930 0.961751 0.230026
N17   N     N_R   0.524823 0.074516 0.354002 0.191007
O19   O     O_R   0.539437 0.151228 0.328977 -0.308517
O20   O     O_R   0.473905 0.028058 0.314593 -0.350005
N18   N     N_R   0.412161 0.617349 0.269363 0.261776
O21   O     O_R   0.434544 0.685658 0.307733 -0.331701
O22   O     O_R   0.336660 0.588411 0.280756 -0.284990
N19   N     N_R   0.724388 0.366329 0.456714 0.263314
O23   O     O_R   0.716778 0.308209 0.510922 -0.204770
O24   O     O_R   0.720215 0.344509 0.381309 -0.321638
N20   N     N_R   0.895202 0.383607 0.424760 0.261691
O25   O     O_R   0.935445 0.399437 0.355939 -0.286090
O26   O     O_R   0.889264 0.306174 0.449633 -0.190228
N21   N     N_R   0.125112 0.336555 0.418129 0.240388
O27   O     O_R   0.069866 0.292680 0.460912 -0.227995
O28   O     O_R   0.145532 0.312821 0.344012 -0.298771
N22   N     N_3   0.301182 0.358899 0.413759 -0.351244
H14   H     H_    0.283657 0.299388 0.436063 0.251138
H15   H     H_    0.294022 0.358957 0.351889 0.237253
N23   N     N_R   0.710014 0.648276 0.577116 0.254151
O29   O     O_R   0.726818 0.725397 0.554897 -0.242956
O30   O     O_R   0.664087 0.635632 0.643358 -0.300915
N24   N     N_3   0.882768 0.659860 0.570146 -0.320392
H16   H     H_    0.919629 0.639902 0.614649 0.235740
H17   H     H_    0.921067 0.688796 0.524982 0.248858
N25   N     N_R   0.268640 0.631165 0.551300 0.239289
O31   O     O_R   0.312191 0.629054 0.613396 -0.278890
O32   O     O_R   0.243684 0.703834 0.528504 -0.264597
N26   N     N_R   0.350768 0.093182 0.553600 0.262915
O33   O     O_R   0.305331 0.152166 0.527902 -0.310638
O34   O     O_R   0.336312 0.069418 0.627754 -0.242637
N27   N     N_R   0.373644 0.920462 0.414412 0.215679
O35   O     O_R   0.367605 0.839187 0.400693 -0.282295
O36   O     O_R   0.325030 0.967548 0.376607 -0.233071
N28   N     N_R   0.338716 0.919736 0.553591 0.258988
O37   O     O_R   0.350504 0.855598 0.598743 -0.306229
O38   O     O_R   0.262520 0.941272 0.547328 -0.181398
N29   N     N_R   0.622025 0.077863 0.600860 0.259044
O39   O     O_R   0.664030 0.037284 0.650580 -0.196360
O40   O     O_R   0.644694 0.156392 0.590035 -0.223580
N30   N     N_R   0.487561 0.095493 0.661363 0.249728
O41   O     O_R   0.472435 0.055325 0.728494 -0.240879
O42   O     O_R   0.482253 0.177518 0.665647 -0.301121
N31   N     N_R   0.571463 0.905043 0.639173 0.280699
O43   O     O_R   0.617523 0.845499 0.606610 -0.239783
O44   O     O_R   0.564694 0.911697 0.717541 -0.213020

loop_
_geom_bond_atom_site_label_1
_geom_bond_atom_site_label_2
_geom_bond_distance
_ccdc_geom_bond_type
C36   N5    1.443025 S    
C37   C38   1.415991 A    
N12   H8    1.045235 S    
C23   C24   1.404786 A    
Zn2   N3    2.021248 S    
N25   O32   1.301212 A    
N20   O25   1.301145 A    
C24   N10   1.435514 S    
N16   H12   1.044483 S    
N4    N5    1.251726 D    
Zn1   O7    1.970993 S    
C30   H3    1.083090 S    
C15   C16   1.187213 T    
C35   N6    1.374850 A    
C19   N15   1.440403 S    
N23   O30   1.299716 A    
C23   C25   1.405623 A    
N13   H11   1.045268 S    
N24   H17   1.045635 S    
O4    C2    1.288754 A    
Zn2   O6    1.978725 S    
O7    C4    1.292126 A    
N23   O29   1.299790 A    
N7    H5    1.032074 S    
N26   O33   1.301840 A    
C31   N4    1.437744 S    
C13   N29   1.483030 S    
N8    O10   1.303347 A    
C36   C38   1.406748 A    
C27   C28   1.397481 A    
C25   C28   1.397785 A    
C1    C17   1.461706 S    
O5    C3    1.300935 A    
N27   O35   1.302519 A    
C10   N9    1.492843 S    
N6    C37   1.373068 A    
C32   C33   1.421104 A    
C23   N11   1.441504 S    
C6    C7    1.597717 S    
N26   O34   1.300915 A    
C11   C14   1.451603 S    
C13   N30   1.487830 S    
C12   C13   1.596119 S    
N11   H6    1.045714 S    
C20   N1    1.404202 S    
N3    C33   1.370863 A    
C6    C9    1.597688 S    
C10   C11   1.611312 S    
N12   H9    1.042946 S    
N19   O23   1.300325 A    
O3    Zn1   1.987827 S    
N25   O31   1.297253 A    
N20   O26   1.300910 A    
N16   H13   1.045630 S    
C5    C9    1.624103 S    
C37   N23   1.427679 S    
N10   O13   1.300772 A    
C9    C13   1.615155 S    
C24   C26   1.419412 A    
N1    N2    1.246007 D    
N13   H10   1.045704 S    
O3    C2    1.290850 A    
N18   O21   1.300297 A    
N14   O16   1.301622 A    
C35   N19   1.421507 S    
C34   C36   1.415253 A    
N7    H4    1.045980 S    
C30   C31   1.403061 A    
C33   N22   1.429518 S    
C17   C22   1.408557 A    
C32   N21   1.435302 S    
C12   N31   1.479743 S    
O1    C1    1.295439 A    
N9    O12   1.303697 A    
N31   O44   1.301883 A    
N3    C29   1.375021 A    
N30   O42   1.301453 A    
C17   C18   1.409830 A    
N18   O22   1.301081 A    
C2    C16   1.398841 S    
Zn2   O8    1.987829 S    
N21   O28   1.300696 A    
C21   C22   1.400667 A    
C5    N8    1.486206 S    
N22   H15   1.044636 S    
C28   N16   1.434489 S    
C12   H2    1.099832 S    
N19   O24   1.299330 A    
N28   O37   1.302487 A    
C7    N27   1.480706 S    
C29   N25   1.428819 S    
C21   N12   1.441349 S    
C26   C27   1.417581 A    
N17   O20   1.298439 A    
N15   O17   1.301522 A    
N15   O18   1.300916 A    
N30   O41   1.302448 A    
C3    C26   1.475743 S    
C6    N26   1.480855 S    
C38   N24   1.434704 S    
C29   C30   1.405220 A    
N29   O40   1.299973 A    
C7    N28   1.489620 S    
Zn1   O5    1.937505 S    
C31   C32   1.407191 A    
O1    Zn1   1.978725 S    
C4    C8    1.399224 S    
C19   C20   1.410111 A    
O2    Zn2   1.937504 S    
O8    C4    1.287501 A    
C18   N18   1.432363 S    
O6    C3    1.300528 A    
C27   N14   1.432789 S    
O4    Zn2   1.970989 S    
C7    C11   1.617972 S    
N9    O11   1.298079 A    
O2    C1    1.298755 A    
C10   N7    1.480411 S    
C25   N2    1.405346 S    
N24   H16   1.045663 S    
C20   C21   1.405913 A    
C18   C19   1.401308 A    
C9    C15   1.452163 S    
N21   O27   1.300634 A    
N31   O43   1.297592 A    
N8    O9    1.298660 A    
C8    C14   1.186878 T    
N27   O36   1.302865 A    
N28   O38   1.303153 A    
C34   N20   1.434752 S    
N14   O15   1.301293 A    
C5    C10   1.620124 S    
N17   O19   1.302754 A    
C6    H1    1.104050 S    
C34   C35   1.415499 A    
N22   H14   1.045389 S    
C11   C12   1.603920 S    
C5    N17   1.497186 S    
N11   H7    1.042248 S    
Zn1   N6    2.021552 S    
N10   O14   1.301344 A    
C22   N13   1.433671 S    
N29   O39   1.300886 A    
