data_mof_unit_26058.cif
_audit_creation_date              2012-12-10T17:43:41-0500
_audit_creation_method            fapswitch 2.2
_symmetry_space_group_name_H-M    P1
_symmetry_Int_Tables_number       1
_space_group_crystal_system       triclinic
_cell_length_a                    14.93673
_cell_length_b                    10.650887
_cell_length_c                    9.964607
_cell_angle_alpha                 91.13447
_cell_angle_beta                  90.918495
_cell_angle_gamma                 91.785064
_cell_volume                      1583.96387044

loop_
_atom_site_label
_atom_site_type_symbol
_atom_type_description
_atom_site_fract_x
_atom_site_fract_y
_atom_site_fract_z
_atom_type_partial_charge
C1    C     C_R   0.513271 0.262366 0.499726 0.947739
C2    C     C_R   0.182145 0.436213 0.404347 -0.216092
C3    C     C_R   0.231446 0.507851 0.498884 -0.044065
C4    C     C_R   0.327072 0.502217 0.499476 0.929876
C5    C     C_R   0.189548 0.582949 0.593950 -0.205147
C6    C     C_R   0.586150 0.121329 0.738002 0.135848
C7    C     C_R   0.568350 0.071305 0.864480 0.183657
C8    C     C_R   0.512270 0.964791 0.873305 -0.221785
C9    C     C_R   0.483049 0.900092 0.756732 -0.187235
C10   C     C_R   0.505826 0.945706 0.628793 0.084308
C11   C     C_R   0.542680 0.067472 0.622302 0.006643
C12   C     C_R   0.909259 0.587241 0.596544 -0.012797
C13   C     C_R   0.532781 0.130388 0.499940 -0.112456
C14   C     C_R   0.519421 0.062713 0.380288 -0.146366
C15   C     C_R   0.503269 0.935847 0.382920 -0.179006
C16   C     C_R   0.495095 0.740502 0.501815 0.851305
C17   C     C_R   0.495390 0.875920 0.506130 -0.103688
C18   C     C_R   0.347201 0.407102 0.130593 0.190908
C19   C     C_R   0.266438 0.412609 0.058820 -0.363561
C20   C     C_R   0.268256 0.393456 0.920810 0.158223
C21   C     C_R   0.351161 0.392149 0.858088 0.437755
C22   C     C_R   0.427265 0.448248 0.925407 -0.032530
C23   C     C_R   0.947953 0.368695 0.305273 -0.173900
C24   C     C_R   0.426108 0.452048 0.069054 0.083950
C25   C     C_R   0.570640 0.546600 0.073973 -0.071213
C26   C     C_R   0.570297 0.547557 0.931262 -0.063804
C27   C     C_R   0.672924 0.502638 0.500851 0.884558
C28   C     C_R   0.815894 0.578136 0.599548 -0.213496
C29   C     C_R   0.768643 0.506393 0.501758 -0.041800
C30   C     C_R   0.812041 0.439483 0.402355 -0.219919
C31   C     C_R   0.904299 0.441163 0.401113 0.138655
C32   C     C_R   0.953367 0.514991 0.498110 0.022360
C33   C     C_R   0.040645 0.367107 0.306128 -0.190797
C34   C     C_R   0.089907 0.439306 0.401721 0.132409
C35   C     C_R   0.046561 0.514369 0.497504 0.069912
C36   C     C_R   0.096647 0.586236 0.594232 0.034984
C37   C     C_R   0.053443 0.659289 0.689781 -0.182739
C38   C     C_R   0.960272 0.662938 0.690602 0.445790
H1    H     H_    0.778651 0.626020 0.676257 0.156371
H2    H     H_    0.073693 0.309011 0.232754 0.168052
H3    H     H_    0.215522 0.375315 0.335577 0.169346
H4    H     H_    0.229241 0.637928 0.667405 0.142471
H5    H     H_    0.092212 0.715333 0.763302 0.180852
H6    H     H_    0.517503 0.108251 0.284780 0.213496
H7    H     H_    0.404894 0.247257 0.786632 0.343695
H8    H     H_    0.867302 0.774809 0.745883 0.334289
H9    H     H_    0.495227 0.928068 0.970496 0.172690
H10   H     H_    0.440497 0.817374 0.768806 0.178559
H11   H     H_    0.495355 0.885510 0.287678 0.179303
H12   H     H_    0.628319 0.585438 0.129165 0.152421
H13   H     H_    0.203903 0.392241 0.108039 0.194195
H14   H     H_    0.773723 0.383368 0.328183 0.169829
H15   H     H_    0.627612 0.587280 0.880275 0.151189
H16   H     H_    0.910369 0.312061 0.230980 0.173204
I1    I     I_    0.700679 0.242446 0.716523 -0.293873
I2    I     I_    0.624605 0.151871 0.044126 -0.367106
I3    I     I_    0.347289 0.225006 0.212011 -0.364342
I4    I     I_    0.150309 0.322883 0.821484 -0.274734
N1    N     N_R   0.499150 0.498800 0.142780 -0.101039
N2    N     N_R   0.499120 0.498720 0.857170 -0.105992
O1    O     O_R   0.500000 0.316780 0.614690 -0.583506
O2    O     O_3   0.922629 0.740972 0.784814 -0.739440
O3    O     O_R   0.499990 0.316750 0.385360 -0.590650
O4    O     O_R   0.367850 0.499980 0.614680 -0.581306
O5    O     O_R   0.367840 0.499960 0.385350 -0.620405
O6    O     O_R   0.500010 0.683250 0.614640 -0.640246
O7    O     O_R   0.500000 0.683220 0.385310 -0.621967
O8    O     O_R   0.632160 0.500040 0.614650 -0.608758
O9    O     O_R   0.632150 0.500020 0.385320 -0.628596
O10   O     O_3   0.359379 0.306438 0.755264 -0.687372
Zn1   Zn    Zn3+2 0.500010 0.500020 0.653130 0.986723
Zn2   Zn    Zn3+2 0.499990 0.499980 0.346870 0.986166

loop_
_geom_bond_atom_site_label_1
_geom_bond_atom_site_label_2
_ccdc_geom_bond_type
C37   H5    S    
O9    Zn2   S    
C5    H4    S    
C26   H15   S    
O8    Zn1   S    
C6    C7    A    
C27   C29   S    
O5    Zn2   S    
C9    C10   A    
C6    I1    S    
C18   I3    S    
O6    Zn1   S    
C27   O9    A    
C32   C35   A    
N1    Zn2   S    
C3    C5    A    
C2    C34   A    
C14   C15   A    
C33   C34   A    
H7    O10   S    
C8    H9    S    
C7    C8    A    
C16   O7    A    
C13   C14   A    
O3    Zn2   S    
C12   C38   A    
C11   C13   A    
C30   C31   A    
O1    Zn1   S    
C29   C30   A    
C7    I2    S    
H8    O2    S    
C24   N1    A    
C18   C24   A    
C1    O3    A    
C36   C37   A    
C37   C38   A    
C12   C28   A    
C2    C3    A    
C15   H11   S    
C22   N2    A    
C4    O5    A    
C34   C35   A    
C2    H3    S    
C22   C24   A    
C33   H2    S    
C1    C13   S    
C10   C11   A    
N2    Zn1   S    
C21   O10   S    
C20   I4    S    
C10   C17   A    
C5    C36   A    
C19   H13   S    
C9    H10   S    
O7    Zn2   S    
C16   O6    A    
C20   C21   A    
C23   H16   S    
C14   H6    S    
C18   C19   A    
O4    Zn1   S    
C6    C11   A    
C15   C17   A    
C4    O4    A    
C25   H12   S    
C28   C29   A    
C30   H14   S    
C27   O8    A    
C25   N1    A    
C28   H1    S    
C38   O2    S    
C25   C26   A    
C21   C22   A    
C26   N2    A    
C31   C32   A    
C12   C32   A    
C3    C4    S    
C19   C20   A    
C16   C17   S    
C23   C31   A    
C8    C9    A    
C23   C33   A    
C35   C36   A    
C1    O1    A    
