data_mof_unit_43962.cif
_audit_creation_date              2012-12-11T17:43:15-0500
_audit_creation_method            fapswitch 2.2
_symmetry_space_group_name_H-M    P1
_symmetry_Int_Tables_number       1
_space_group_crystal_system       triclinic
_cell_length_a                    15.055172
_cell_length_b                    14.981807
_cell_length_c                    16.915747
_cell_angle_alpha                 108.736989
_cell_angle_beta                  106.257554
_cell_angle_gamma                 109.120277
_cell_volume                      3081.36884552

loop_
_atom_site_label
_atom_site_type_symbol
_atom_type_description
_atom_site_fract_x
_atom_site_fract_y
_atom_site_fract_z
_atom_type_partial_charge
C1    C     C_R   0.091343 0.277652 0.022570 -0.123562
C2    C     C_R   0.103117 0.073785 0.954152 -0.236431
C3    C     C_R   0.011593 0.889512 0.918342 0.048473
C4    C     C_R   0.007861 0.075808 0.922059 0.057721
C5    C     C_R   0.106448 0.980484 0.949346 0.032702
C6    C     C_R   0.916048 0.978000 0.865502 0.024622
C7    C     C_R   0.830919 0.000853 0.730215 -0.151667
C8    C     C_R   0.287388 0.051906 0.066985 -0.195240
C9    C     C_R   0.643999 0.926381 0.650158 -0.113996
C10   C     C_R   0.408049 0.991282 0.030489 -0.131115
C11   C     C_R   0.500469 0.709906 0.356046 -0.118315
C12   C     C_R   0.916513 0.712200 0.919563 -0.140168
C13   C     C_R   0.508546 0.409581 0.727234 -0.120914
C14   C     C_R   0.507253 0.691331 0.271998 -0.133954
C15   C     C_R   0.519656 0.434582 0.817581 -0.116004
C16   C     C_R   0.935824 0.451069 0.734653 -0.129382
C17   C     C_R   0.064396 0.480790 0.253456 -0.140262
C18   C     C_R   0.531236 0.610241 0.230243 0.116739
C19   C     C_R   0.550512 0.539290 0.879551 0.109167
C20   C     C_R   0.549331 0.549043 0.274889 -0.170060
C21   C     C_R   0.569128 0.618236 0.849739 -0.187515
C22   C     C_R   0.542696 0.568117 0.359092 -0.106860
C23   C     C_R   0.028023 0.465146 0.725517 0.059388
C24   C     C_R   0.559653 0.593078 0.759746 -0.116204
C25   C     C_R   0.518248 0.648401 0.399597 -0.095934
C26   C     C_R   0.529276 0.488734 0.698484 -0.108730
C27   C     C_R   0.621332 0.576782 0.128506 -0.242375
C28   C     C_R   0.476639 0.581497 0.987058 -0.235888
C29   C     C_R   0.628749 0.561033 0.044767 0.070113
C30   C     C_R   0.462636 0.586460 0.066047 0.058310
C31   C     C_R   0.556317 0.565257 0.973746 0.015837
C32   C     C_R   0.537732 0.590263 0.140517 0.022340
C33   C     C_R   0.743078 0.981337 0.657686 -0.093467
C34   C     C_R   0.973424 0.420857 0.255590 0.066770
C35   C     C_R   0.385558 0.055465 0.094044 -0.114980
C36   C     C_R   0.965721 0.379456 0.322503 0.131822
C37   C     C_R   0.037153 0.420198 0.638981 0.128840
C38   C     C_R   0.141919 0.438596 0.554122 -0.225560
C39   C     C_R   0.861586 0.305506 0.393090 -0.228111
C40   C     C_R   0.720456 0.214457 0.823005 -0.123770
C41   C     C_R   0.223378 0.797765 0.187456 -0.134885
C42   C     C_R   0.135149 0.453418 0.637247 -0.168433
C43   C     C_R   0.868005 0.323140 0.318651 -0.178071
C44   C     C_R   0.946740 0.356590 0.555480 -0.282654
C45   C     C_R   0.664736 0.216915 0.744037 0.067197
C46   C     C_R   0.056666 0.405745 0.396547 -0.283078
C47   C     C_R   0.952623 0.347449 0.472981 0.191949
C48   C     C_R   0.050924 0.393568 0.473266 0.188261
C49   C     C_R   0.556220 0.143571 0.676994 0.133355
C50   C     C_R   0.280466 0.899735 0.360235 0.133358
C51   C     C_R   0.388162 0.089522 0.444742 -0.235470
C52   C     C_R   0.406392 0.971692 0.607417 -0.246140
C53   C     C_R   0.318253 0.999676 0.361819 -0.171266
C54   C     C_R   0.498985 0.052371 0.682574 -0.177140
C55   C     C_R   0.297610 0.893140 0.443633 -0.291699
C56   C     C_R   0.239687 0.803580 0.274244 0.054046
C57   C     C_R   0.512664 0.159443 0.601103 -0.315396
C58   C     C_R   0.371710 0.981817 0.526413 0.193283
C59   C     C_R   0.421749 0.078926 0.525455 0.199689
C60   C     C_R   0.632455 0.893819 0.716852 -0.164431
C61   C     C_R   0.332634 0.923663 0.939494 -0.125168
C62   C     C_R   0.719952 0.914785 0.791596 0.031228
C63   C     C_R   0.233691 0.918925 0.911320 0.040858
C64   C     C_R   0.300644 0.599049 0.006185 -0.155617
C65   C     C_R   0.737545 0.463638 0.047907 -0.138175
C66   C     C_R   0.820846 0.966410 0.796872 0.071298
C67   C     C_R   0.359646 0.567575 0.057152 0.059510
C68   C     C_R   0.210051 0.982923 0.975994 0.068094
C69   C     C_R   0.726682 0.310309 0.746646 -0.145275
C70   C     C_R   0.217703 0.702299 0.265358 -0.127629
C71   C     C_R   0.296432 0.501246 0.080779 -0.128541
C72   C     C_R   0.753709 0.566016 0.975881 -0.108116
C73   C     C_R   0.109682 0.535968 0.812442 -0.133713
C74   C     C_R   0.891785 0.397290 0.176630 -0.142193
C75   C     C_R   0.917287 0.193140 0.948086 -0.131938
C76   C     C_R   0.087949 0.796085 0.999434 -0.149856
C77   C     C_R   0.005653 0.178484 0.959154 0.057615
C78   C     C_R   0.709746 0.537483 0.030378 0.045911
C79   C     C_R   0.005662 0.803894 0.945896 0.060786
C80   C     C_R   0.918500 0.886214 0.867110 -0.239307
H1    H     H_    0.172666 0.296771 0.049344 0.093154
H2    H     H_    0.502977 0.372453 0.838924 0.114122
H3    H     H_    0.567245 0.485737 0.244063 0.107760
H4    H     H_    0.591550 0.699088 0.896422 0.119418
H5    H     H_    0.556292 0.520425 0.392870 0.103382
H6    H     H_    0.574919 0.654193 0.737228 0.120100
H7    H     H_    0.680204 0.577793 0.183662 0.131693
H8    H     H_    0.418109 0.577379 0.929314 0.130176
H9    H     H_    0.132697 0.445705 0.399701 0.115286
H10   H     H_    0.870714 0.325005 0.554830 0.117276
H11   H     H_    0.796191 0.298624 0.261371 0.112330
H12   H     H_    0.839285 0.684271 0.867998 0.097146
H13   H     H_    0.206703 0.497996 0.700083 0.117897
H14   H     H_    0.217998 0.471890 0.554826 0.127001
H15   H     H_    0.785590 0.268313 0.391459 0.123918
H16   H     H_    0.857118 0.401781 0.681556 0.094801
H17   H     H_    0.142875 0.500349 0.296381 0.087829
H18   H     H_    0.751780 0.007264 0.606284 0.115307
H19   H     H_    0.444264 0.108018 0.164440 0.108134
H20   H     H_    0.553655 0.229689 0.595629 0.115019
H21   H     H_    0.263906 0.817546 0.444000 0.120601
H22   H     H_    0.528667 0.039399 0.741653 0.120393
H23   H     H_    0.907052 0.040579 0.733085 0.121067
H24   H     H_    0.301930 0.008344 0.299072 0.116177
H25   H     H_    0.423819 0.164761 0.444001 0.122635
H26   H     H_    0.367480 0.898234 0.609764 0.127866
H27   H     H_    0.575987 0.909599 0.592806 0.121084
H28   H     H_    0.484208 0.994234 0.051660 0.107241
H29   H     H_    0.554989 0.852931 0.710950 0.109718
H30   H     H_    0.351199 0.874771 0.890613 0.110119
H31   H     H_    0.690544 0.161604 0.850520 0.085955
H32   H     H_    0.233318 0.861393 0.168740 0.098977
H33   H     H_    0.327945 0.660526 0.985783 0.095460
H34   H     H_    0.270996 0.101808 0.117284 0.120021
H35   H     H_    0.714495 0.423116 0.086802 0.099822
H36   H     H_    0.703528 0.347463 0.705173 0.091625
H37   H     H_    0.222688 0.676855 0.318537 0.094845
H38   H     H_    0.319932 0.469340 0.127273 0.104289
H39   H     H_    0.750585 0.623591 0.951463 0.113821
H40   H     H_    0.191982 0.564633 0.831477 0.093691
H41   H     H_    0.811416 0.339604 0.148669 0.084427
H42   H     H_    0.836893 0.134826 0.908613 0.110968
H43   H     H_    0.169614 0.843963 0.023686 0.119942
H44   H     H_    0.846692 0.812888 0.829411 0.131454
H45   H     H_    0.513167 0.663017 0.464760 0.102060
H46   H     H_    0.175813 0.145378 0.985725 0.126625
H47   H     H_    0.657666 0.915275 0.882954 0.088363
H48   H     H_    0.773712 0.919550 0.919618 0.110946
H49   H     H_    0.096074 0.791915 0.815218 0.114504
H50   H     H_    0.133210 0.894412 0.789076 0.115434
H51   H     H_    0.520841 0.468998 0.628497 0.098314
H52   H     H_    0.481633 0.772163 0.387506 0.110985
H53   H     H_    0.482502 0.328616 0.679183 0.122049
H54   H     H_    0.494099 0.740430 0.239651 0.112778
N1    N     N_R   0.055660 0.348550 0.045620 -0.041178
N2    N     N_R   0.185200 0.638170 0.176300 -0.038902
N3    N     N_R   0.201680 0.494570 0.045620 -0.040398
N4    N     N_R   0.798320 0.505430 0.954380 -0.041621
N5    N     N_R   0.068420 0.560530 0.871650 -0.040354
N6    N     N_R   0.931580 0.439470 0.128350 -0.037190
N7    N     N_R   0.948070 0.295860 0.997670 -0.043000
N8    N     N_R   0.051930 0.704140 0.002330 -0.039877
N9    N     N_3   0.703823 0.883856 0.860658 -0.232049
N10   N     N_3   0.159430 0.849870 0.816904 -0.221564
N11   N     N_R   0.944340 0.651450 0.954380 -0.039592
N12   N     N_R   0.960830 0.507850 0.823700 -0.041072
N13   N     N_R   0.039170 0.492150 0.176300 -0.038166
N14   N     N_R   0.811290 0.303410 0.871650 -0.040658
N15   N     N_R   0.188710 0.696590 0.128350 -0.039718
N16   N     N_R   0.205200 0.552990 0.997670 -0.036987
N17   N     N_R   0.794800 0.447010 0.002330 -0.041246
N18   N     N_R   0.814800 0.361830 0.823700 -0.038455
Ni1   Ni    Ni4+2 0.119340 0.493420 0.109960 0.214790
Ni2   Ni    Ni4+2 0.880660 0.506580 0.890040 0.214898
Ni3   Ni    Ni4+2 0.872590 0.372590 0.000000 0.208317
Ni4   Ni    Ni4+2 0.127410 0.627410 0.000000 0.213393

loop_
_geom_bond_atom_site_label_1
_geom_bond_atom_site_label_2
_ccdc_geom_bond_type
C9    C33   A    
N5    N12   A    
C27   C29   A    
C75   H42   S    
C1    C77   A    
C14   C18   A    
C10   H28   S    
C76   C79   A    
C62   N9    S    
C19   C31   S    
C11   H52   S    
N2    N15   A    
C71   N3    A    
C46   H9    S    
C15   C19   A    
C16   N12   A    
C17   N13   A    
N15   Ni4   S    
C24   C26   A    
C38   C42   A    
C11   C14   A    
C57   C59   A    
C41   N15   A    
C11   C25   A    
C53   H24   S    
C1    H1    S    
C49   C54   A    
C42   H13   S    
C12   C79   A    
C49   C57   A    
C60   C62   A    
C33   H18   S    
C22   H5    S    
C37   C42   A    
C61   C63   A    
C25   H45   S    
C72   C78   A    
C60   H29   S    
C75   N7    A    
C29   C78   S    
C69   N18   A    
C22   C25   A    
C28   H8    S    
C63   N10   S    
C36   C46   A    
C10   C35   A    
C64   H33   S    
N14   Ni3   S    
N17   Ni3   S    
C40   H31   S    
H50   N10   S    
C67   C71   A    
C30   C67   S    
C44   C47   A    
C8    H34   S    
N4    Ni2   S    
C72   N4    A    
N13   Ni1   S    
C52   H26   S    
C73   H40   S    
C7    H23   S    
C70   N2    A    
C65   H35   S    
N8    N11   A    
C13   H53   S    
C23   C73   A    
C5    C68   S    
C35   H19   S    
C61   H30   S    
N6    N13   A    
C52   C54   A    
C15   H2    S    
C40   C45   A    
C46   C48   A    
C16   H16   S    
C50   C53   A    
C62   C66   A    
N1    N7    A    
C45   C69   A    
C64   C67   A    
C4    C6    A    
H49   N10   S    
C7    C33   A    
C40   N14   A    
N7    Ni3   S    
C39   C43   A    
C14   H54   S    
C58   C59   A    
C23   C37   S    
C57   H20   S    
C74   N6    A    
C41   H32   S    
C50   C56   S    
C64   N16   A    
C51   C53   A    
C8    C35   A    
C12   N11   A    
C65   N17   A    
C2    C4    A    
C41   C56   A    
C6    C80   A    
C47   C48   A    
N12   Ni2   S    
C21   H4    S    
C45   C49   S    
C51   H25   S    
C38   H14   S    
N3    Ni1   S    
H47   N9    S    
C27   H7    S    
C75   C77   A    
C39   H15   S    
C3    C79   S    
C52   C58   A    
C34   C74   A    
N11   Ni2   S    
C2    H46   S    
N18   Ni2   S    
C8    C68   A    
C16   C23   A    
C56   C70   A    
C13   C15   A    
C13   C26   A    
C55   C58   A    
C10   C61   A    
C18   C32   S    
C17   C34   A    
C21   C24   A    
C44   H10   S    
C39   C47   A    
C80   H44   S    
C63   C68   A    
C65   C78   A    
C71   H38   S    
C19   C21   A    
C27   C32   A    
C76   H43   S    
C38   C48   A    
C12   H12   S    
C28   C31   A    
N14   N18   A    
C69   H36   S    
C20   C22   A    
C3    C5    A    
N4    N17   A    
C9    H27   S    
C73   N5    A    
C55   H21   S    
C50   C55   A    
N1    Ni1   S    
C9    C60   A    
C54   H22   S    
C37   C44   A    
C28   C30   A    
C4    C77   S    
C29   C31   A    
C7    C66   A    
C30   C32   A    
N2    Ni1   S    
C24   H6    S    
N5    Ni4   S    
C72   H39   S    
C3    C80   A    
C34   C36   S    
C18   C20   A    
N3    N16   A    
H48   N9    S    
C43   H11   S    
N6    Ni3   S    
C2    C5    A    
C6    C66   S    
C74   H41   S    
C51   C59   A    
C20   H3    S    
C36   C43   A    
N16   Ni4   S    
C70   H37   S    
N8    Ni4   S    
C1    N1    A    
C17   H17   S    
C26   H51   S    
C76   N8    A    
