data_mof_unit_6968.cif
_audit_creation_date              2012-12-10T17:47:12-0500
_audit_creation_method            fapswitch 2.2
_symmetry_space_group_name_H-M    P1
_symmetry_Int_Tables_number       1
_space_group_crystal_system       triclinic
_cell_length_a                    11.687679
_cell_length_b                    14.655971
_cell_length_c                    14.683167
_cell_angle_alpha                 64.683136
_cell_angle_beta                  103.302957
_cell_angle_gamma                 102.585461
_cell_volume                      2192.06400251

loop_
_atom_site_label
_atom_site_type_symbol
_atom_type_description
_atom_site_fract_x
_atom_site_fract_y
_atom_site_fract_z
_atom_type_partial_charge
C1    C     C_R   0.480872 0.120053 0.311800 0.860737
C2    C     C_R   0.520892 0.879951 0.688285 0.868938
C3    C     C_R   0.402483 0.325227 0.999120 -0.243336
C4    C     C_R   0.515238 0.677659 0.002658 -0.238426
C5    C     C_R   0.488087 0.466020 0.051828 -0.096153
C6    C     C_R   0.478110 0.535645 0.949620 -0.105348
C7    C     C_R   0.420386 0.500132 0.873004 0.573939
C8    C     C_R   0.501676 0.502732 0.128746 0.559720
C9    C     C_R   0.386184 0.395625 0.895595 0.094692
C10   C     C_R   0.520985 0.607723 0.106361 0.080680
C11   C     C_R   0.701417 0.285257 0.666483 0.438991
C12   C     C_R   0.291311 0.712737 0.338624 0.435573
C13   C     C_R   0.662199 0.200655 0.641651 0.766969
C14   C     C_R   0.329840 0.796216 0.365028 0.784070
C15   C     C_R   0.521218 0.289161 0.506198 -0.122251
C16   C     C_R   0.485781 0.714593 0.486583 -0.116754
C17   C     C_R   0.550319 0.374527 0.533283 -0.125546
C18   C     C_R   0.459630 0.631749 0.455556 -0.114843
C19   C     C_R   0.652427 0.377421 0.606526 -0.141802
C20   C     C_R   0.353149 0.626564 0.386414 -0.147960
C21   C     C_R   0.480976 0.456537 0.489381 0.047098
C22   C     C_R   0.532337 0.551647 0.495547 0.020525
C23   C     C_R   0.284150 0.000361 0.499985 0.840728
C24   C     C_R   0.715845 0.999620 0.500030 0.792094
C25   C     C_R   0.653103 0.561998 0.543536 0.074102
C26   C     C_R   0.359800 0.444963 0.444221 0.129659
C27   C     C_R   0.703956 0.472483 0.613250 0.156393
C28   C     C_R   0.307803 0.533078 0.374618 0.181185
C29   C     C_1   0.162635 0.000788 0.500138 -0.127944
C30   C     C_1   0.837335 0.999126 0.499897 -0.145303
C31   C     C_1   0.059994 0.000349 0.500088 0.026361
C32   C     C_1   0.939958 0.999501 0.499954 0.021352
C33   C     C_R   0.462176 0.187984 0.202773 -0.356289
C34   C     C_R   0.528397 0.812486 0.797581 -0.334710
C35   C     C_R   0.349852 0.222152 0.032927 0.556475
C36   C     C_R   0.504905 0.781940 0.969097 0.547200
C37   C     C_R   0.375944 0.156081 0.134488 0.568214
C38   C     C_R   0.505912 0.846998 0.866739 0.567250
C39   C     C_R   0.520298 0.288843 0.168275 0.147162
C40   C     C_R   0.546584 0.710307 0.832223 0.160979
C41   C     C_R   0.470584 0.360619 0.074005 0.003575
C42   C     C_R   0.512793 0.640591 0.927312 0.003450
Cu1   Cu    Cu3+1 0.469550 0.918260 0.475690 1.036029
Cu2   Cu    Cu3+1 0.530450 0.081740 0.524310 1.032545
H1    H     H_    0.554739 0.715070 0.549353 0.162670
H2    H     H_    0.453738 0.289406 0.441951 0.210556
N1    N     N_R   0.576230 0.204580 0.560790 -0.276642
N2    N     N_R   0.423770 0.795420 0.439210 -0.275403
O1    O     O_R   0.459870 0.022090 0.338120 -0.484940
O2    O     O_R   0.540130 0.977910 0.661880 -0.465790
O3    O     O_R   0.511290 0.160150 0.379180 -0.596560
O4    O     O_R   0.488710 0.839850 0.620820 -0.590517
O5    O     O_R   0.311490 0.930960 0.479480 -0.519659
O6    O     O_R   0.688510 0.069040 0.520520 -0.546034
O7    O     O_R   0.362910 0.069020 0.520540 -0.585556
O8    O     O_R   0.637090 0.930980 0.479460 -0.600853
C43   C     C_3   0.344385 0.364376 0.805566 -0.275893
C44   C     C_3   0.443150 0.393173 0.741711 -0.833789
H3    H     H_    0.415530 0.358234 0.685079 0.251267
H4    H     H_    0.461425 0.476937 0.700071 0.278233
H5    H     H_    0.525914 0.363999 0.790964 0.258196
H6    H     H_    0.318625 0.281947 0.827360 0.275769
H7    H     H_    0.265798 0.401839 0.757277 0.224307
C45   C     C_3   0.556263 0.639951 0.195953 -0.290274
C46   C     C_3   0.669178 0.598446 0.264158 -0.823074
H8    H     H_    0.653493 0.514720 0.306913 0.283012
H9    H     H_    0.741021 0.618082 0.218121 0.258792
H10   H     H_    0.698497 0.633520 0.320469 0.254601
H11   H     H_    0.576332 0.723101 0.172583 0.267425
H12   H     H_    0.483496 0.612294 0.242092 0.225877
C47   C     C_3   0.730744 0.666386 0.512165 -0.419212
C48   C     C_3   0.847590 0.668546 0.479806 -0.765716
H13   H     H_    0.923521 0.676634 0.538226 0.249147
H14   H     H_    0.849023 0.599357 0.467183 0.256480
H15   H     H_    0.861212 0.735846 0.407677 0.256577
H16   H     H_    0.683858 0.723650 0.444518 0.224585
H17   H     H_    0.749973 0.693653 0.574739 0.187814
C49   C     C_3   0.279683 0.343100 0.486213 -0.439700
C50   C     C_3   0.175917 0.352120 0.528127 -0.805724
H18   H     H_    0.109414 0.395362 0.466363 0.239368
H19   H     H_    0.208701 0.390393 0.581993 0.260727
H20   H     H_    0.130393 0.274830 0.569650 0.265330
H21   H     H_    0.246497 0.310574 0.427724 0.209010
H22   H     H_    0.328087 0.285767 0.552349 0.228399
C51   C     C_3   0.623479 0.681290 0.779596 -0.321844
C52   C     C_3   0.730671 0.633643 0.853186 -0.867259
H23   H     H_    0.702587 0.556292 0.908809 0.251423
H24   H     H_    0.779047 0.682167 0.894705 0.275216
H25   H     H_    0.792220 0.626649 0.809857 0.236338
H26   H     H_    0.573063 0.628908 0.743715 0.240125
H27   H     H_    0.660507 0.749617 0.717632 0.186504
C53   C     C_3   0.645313 0.313658 0.220945 -0.302181
C54   C     C_3   0.735618 0.360599 0.146957 -0.860088
H28   H     H_    0.730796 0.312858 0.104003 0.269751
H29   H     H_    0.719746 0.438861 0.092569 0.250631
H30   H     H_    0.826542 0.365385 0.190298 0.247012
H31   H     H_    0.647945 0.364391 0.259639 0.248757
H32   H     H_    0.678657 0.243351 0.281086 0.189434
F1    F     F_    0.483345 0.943871 0.835398 -0.572857
F2    F     F_    0.314516 0.060879 0.166030 -0.528187
F3    F     F_    0.259429 0.187336 0.974443 -0.606309
F4    F     F_    0.475043 0.819151 0.029324 -0.621785
F5    F     F_    0.381404 0.567507 0.778123 -0.692703
F6    F     F_    0.478310 0.437124 0.223479 -0.715016
C55   C     C_3   0.811891 0.480225 0.692663 -0.307620
C56   C     C_3   0.926793 0.460108 0.674244 -0.662365
H33   H     H_    0.969749 0.403345 0.745431 0.283476
H34   H     H_    0.910063 0.431307 0.612949 0.241759
H35   H     H_    0.991735 0.530423 0.653177 0.213327
H36   H     H_    0.828697 0.555635 0.697116 0.172687
H37   H     H_    0.791473 0.426694 0.769594 0.236963
C57   C     C_3   0.200802 0.523171 0.295266 -0.345987
C58   C     C_3   0.229487 0.578322 0.186525 -0.674582
H38   H     H_    0.274868 0.657077 0.170974 0.300563
H39   H     H_    0.287438 0.535528 0.173883 0.245568
H40   H     H_    0.146128 0.581671 0.131281 0.241992
H41   H     H_    0.170154 0.443006 0.305255 0.189138
H42   H     H_    0.123163 0.549343 0.303595 0.248368
F7    F     F_    0.268097 0.876687 0.319540 -0.543300
F8    F     F_    0.714176 0.115054 0.697024 -0.583400
F9    F     F_    0.785705 0.273860 0.749659 -0.629413
F10   F     F_    0.190924 0.717505 0.269660 -0.626971

loop_
_geom_bond_atom_site_label_1
_geom_bond_atom_site_label_2
_ccdc_geom_bond_type
C30   C32   T    
C55   H36   S    
C4    C36   A    
C54   H28   S    
C15   N1    A    
C21   C26   A    
C16   N2    A    
C51   H27   S    
C53   H32   S    
C43   H6    S    
C39   C41   A    
C51   C52   S    
C28   C57   S    
C11   C19   A    
C26   C49   S    
C4    C42   A    
C34   C40   A    
C23   C29   S    
C35   C37   A    
C5    C6    A    
C52   H24   S    
Cu1   O4    S    
C56   H33   S    
C27   C55   S    
C44   H4    S    
C36   F4    S    
C2    O2    A    
C38   F1    S    
C49   H21   S    
Cu1   O5    S    
C46   H9    S    
C22   C25   A    
C43   H7    S    
C25   C47   S    
C45   H12   S    
C19   C27   A    
Cu1   N2    S    
C18   C20   A    
Cu2   N1    S    
C58   H40   S    
C2    C34   S    
C44   H5    S    
C40   C42   A    
C55   H37   S    
C54   H29   S    
C34   C38   A    
C21   C22   A    
C11   F9    S    
C48   H15   S    
C57   C58   S    
C53   H31   S    
C23   O5    A    
C1    C33   S    
C48   H14   S    
C50   H19   S    
C49   C50   S    
Cu1   O1    S    
C14   N2    A    
C20   C28   A    
C44   H3    S    
C33   C37   A    
C40   C51   S    
C24   O6    A    
Cu1   Cu2   S    
C3    C9    A    
Cu2   O6    S    
C5    C8    A    
C1    O3    A    
C31   C32   S    
C3    C35   A    
C46   H10   S    
C12   C20   A    
C33   C39   A    
C45   H11   S    
C23   O7    A    
C8    F6    S    
C2    O4    A    
Cu2   O3    S    
C16   C18   A    
C12   C14   A    
C14   F7    S    
C54   H30   S    
C24   O8    A    
C4    C10   A    
C39   C53   S    
C47   H17   S    
C13   F8    S    
C52   H23   S    
C13   N1    A    
C58   H38   S    
Cu2   O2    S    
C7    C9    A    
C5    C41   A    
C3    C41   A    
C18   C22   A    
C10   C45   S    
C48   H13   S    
C35   F3    S    
C52   H25   S    
C16   H1    S    
C50   H20   S    
C51   H26   S    
C15   C17   A    
C6    C7    A    
C25   C27   A    
C55   C56   S    
C26   C28   A    
C57   H41   S    
C45   C46   S    
C36   C38   A    
C47   C48   S    
C29   C31   T    
C57   H42   S    
C11   C13   A    
Cu2   O7    S    
C43   C44   S    
C47   H16   S    
C56   H34   S    
C53   C54   S    
C17   C19   A    
C9    C43   S    
C24   C30   S    
C50   H18   S    
C49   H22   S    
Cu1   O8    S    
C12   F10   S    
C8    C10   A    
C46   H8    S    
C6    C42   A    
C7    F5    S    
C15   H2    S    
C1    O1    A    
C37   F2    S    
C58   H39   S    
C56   H35   S    
C17   C21   A    
