data_mof_unit_13027.cif
_audit_creation_date              2012-12-11T14:48:41-0500
_audit_creation_method            fapswitch 2.2
_symmetry_space_group_name_H-M    P1
_symmetry_Int_Tables_number       1
_space_group_crystal_system       triclinic
_cell_length_a                    7.256357
_cell_length_b                    19.359125
_cell_length_c                    18.7171
_cell_angle_alpha                 89.921491
_cell_angle_beta                  87.158454
_cell_angle_gamma                 89.949897
_cell_volume                      2626.08066726

loop_
_atom_site_label
_atom_site_type_symbol
_atom_type_description
_atom_site_fract_x
_atom_site_fract_y
_atom_site_fract_z
_atom_type_partial_charge
O1    O     O_R   0.350610 0.187000 0.656530 -0.506792
O2    O     O_R   0.649390 0.813000 0.343470 -0.511735
O3    O     O_R   0.149390 0.687000 0.343470 -0.507903
O4    O     O_R   0.850610 0.313000 0.656530 -0.507164
O5    O     O_R   0.655920 0.179060 0.799470 -0.544813
O6    O     O_R   0.344080 0.820940 0.200530 -0.544963
O7    O     O_R   0.844080 0.679060 0.200530 -0.545892
O8    O     O_R   0.155920 0.320940 0.799470 -0.546403
O9    O     O_R   0.826150 0.314000 0.799910 -0.543014
O10   O     O_R   0.173850 0.686000 0.200090 -0.543000
O11   O     O_R   0.673850 0.814000 0.200090 -0.541857
O12   O     O_R   0.326150 0.186000 0.799910 -0.541695
C1    C     C_R   0.485148 0.161394 0.822645 0.664848
C2    C     C_R   0.514853 0.838605 0.177353 0.664215
C3    C     C_R   0.014928 0.661422 0.177313 0.658094
C4    C     C_R   0.985073 0.338573 0.822693 0.656493
O13   O     O_R   0.680230 0.178680 0.657050 -0.517891
O14   O     O_R   0.319770 0.821320 0.342950 -0.513383
O15   O     O_R   0.819770 0.678680 0.342950 -0.514398
O16   O     O_R   0.180230 0.321320 0.657050 -0.513608
C5    C     C_R   0.515190 0.163609 0.631701 0.804412
C6    C     C_R   0.484847 0.836376 0.368077 0.806777
C7    C     C_R   0.985855 0.661121 0.365375 0.805225
C8    C     C_R   0.014528 0.339762 0.635584 0.803260
O17   O     O_3   0.504860 0.294770 0.728200 -0.380373
O18   O     O_3   0.495140 0.705230 0.271800 -0.380143
O19   O     O_3   0.995140 0.794770 0.271800 -0.376083
O20   O     O_3   0.004860 0.205230 0.728200 -0.375417
V1    V     V_3+5 0.779710 0.242290 0.728230 1.552797
V2    V     V_3+5 0.220290 0.757710 0.271770 1.555468
V3    V     V_3+5 0.720290 0.742290 0.271770 1.550058
V4    V     V_3+5 0.279710 0.257710 0.728230 1.553625
H1    H     H_    0.016199 0.479349 0.647684 0.125229
H2    H     H_    0.045479 0.523644 0.353922 0.124572
H3    H     H_    0.558784 0.971347 0.354787 0.124041
H4    H     H_    0.514254 0.025392 0.646494 0.125072
C9    C     C_1   0.029097 0.608832 0.121341 -0.159846
C10   C     C_1   0.970905 0.391165 0.878663 -0.159324
C11   C     C_1   0.471043 0.108705 0.878527 -0.160741
C12   C     C_1   0.528961 0.891294 0.121472 -0.160492
C13   C     C_2   0.069715 0.511794 0.019156 -0.137918
C14   C     C_2   0.930289 0.488206 0.980845 -0.137673
C15   C     C_2   0.430537 0.011341 0.980426 -0.136984
C16   C     C_2   0.569470 0.988659 0.019574 -0.137207
C17   C     C_1   0.956323 0.435171 0.925318 0.016213
C18   C     C_1   0.043681 0.564827 0.074684 0.016253
C19   C     C_1   0.543640 0.935432 0.074916 0.017006
C20   C     C_1   0.456365 0.064567 0.925083 0.016966
H5    H     H_    0.792327 0.508871 0.990994 0.137231
H6    H     H_    0.207677 0.491129 0.009007 0.137135
H7    H     H_    0.706685 0.010227 0.010280 0.137423
H8    H     H_    0.293321 0.989773 0.989720 0.137479
C21   C     C_R   0.016395 0.391678 0.576849 -0.174576
C22   C     C_R   0.989998 0.609803 0.424576 -0.171715
C23   C     C_R   0.488890 0.888008 0.427458 -0.172833
C24   C     C_R   0.515301 0.111056 0.572691 -0.176403
H9    H     H_    0.953535 0.597498 0.607146 0.167755
H10   H     H_    0.021833 0.403038 0.394409 0.170243
H11   H     H_    0.540858 0.092005 0.390176 0.162600
H12   H     H_    0.449661 0.906566 0.609965 0.162454
C25   C     C_R   0.979910 0.581759 0.552053 -0.199806
C26   C     C_R   0.028109 0.419710 0.449466 -0.205314
C27   C     C_R   0.541155 0.077601 0.446204 -0.190219
C28   C     C_R   0.478465 0.920310 0.554346 -0.188021
C29   C     C_R   0.954682 0.629476 0.496649 0.486858
C30   C     C_R   0.008160 0.370837 0.504939 0.486949
C31   C     C_R   0.509287 0.128544 0.498783 0.478104
C32   C     C_R   0.448815 0.871228 0.500690 0.477272
C33   C     C_R   0.027950 0.539964 0.409237 -0.261017
C34   C     C_R   0.020669 0.462707 0.592338 -0.264065
C35   C     C_R   0.520925 0.040363 0.590577 -0.250330
C36   C     C_R   0.536275 0.956724 0.410494 -0.247312
C37   C     C_R   0.029757 0.490530 0.464744 0.091051
C38   C     C_R   0.015651 0.512066 0.536811 0.093798
C39   C     C_R   0.518468 0.989045 0.536903 0.090041
C40   C     C_R   0.538796 0.007719 0.464286 0.089385
S1    S     S_3+6 0.909525 0.290935 0.485117 0.072732
O21   O     O_2   0.979037 0.233750 0.530986 -0.299213
O22   O     O_2   0.707951 0.300424 0.502701 -0.301161
O23   O     O_3   0.944383 0.271714 0.397869 -0.477405
H13   H     H_    0.894846 0.224414 0.392866 0.399905
S2    S     S_3+6 0.830427 0.705215 0.518312 0.070401
O24   O     O_2   0.883585 0.763842 0.468818 -0.303928
O25   O     O_2   0.631791 0.687553 0.509768 -0.299577
O26   O     O_3   0.860041 0.728062 0.603652 -0.481681
H14   H     H_    0.787985 0.771183 0.610744 0.395729
S3    S     S_3+6 0.319741 0.798463 0.529260 0.069857
O27   O     O_2   0.130610 0.824485 0.551353 -0.301094
O28   O     O_2   0.306011 0.745043 0.471703 -0.306570
O29   O     O_3   0.412066 0.763594 0.601632 -0.484951
H15   H     H_    0.324892 0.726670 0.617589 0.381877
S4    S     S_3+6 0.402972 0.203484 0.466940 0.074327
O30   O     O_2   0.225614 0.180267 0.436761 -0.305936
O31   O     O_2   0.363441 0.256024 0.524633 -0.298588
O32   O     O_3   0.533086 0.238102 0.399289 -0.482616
H16   H     H_    0.458398 0.276725 0.381423 0.379814

loop_
_geom_bond_atom_site_label_1
_geom_bond_atom_site_label_2
_ccdc_geom_bond_type
H10   C26   S    
C12   C19   T    
S3    O27   D    
C39   C40   A    
O1    C5    A    
O13   V1    S    
C37   C38   A    
O3    C7    A    
O32   H16   S    
C36   C40   A    
O15   V3    S    
C23   C32   A    
C29   S2    S    
C22   C29   A    
S1    O21   D    
C28   C32   A    
S4    O30   D    
O20   V1    S    
O9    C4    A    
O10   C3    A    
O4    C8    A    
O11   C2    A    
C15   H8    S    
C27   C40   A    
C13   C14   D    
C3    C9    S    
C10   C17   T    
O16   C8    A    
O2    C6    A    
C13   C18   S    
C26   C37   A    
C33   C37   A    
O14   V2    S    
C15   C20   S    
O5    C1    A    
C23   C36   A    
C16   C19   S    
O9    V1    S    
O17   V4    S    
O7    C3    A    
O11   V3    S    
O18   V3    S    
O8    C4    A    
O12   V4    S    
O19   V2    S    
C21   C34   A    
O5    V1    S    
S1    O22   D    
C27   C31   A    
O7    V3    S    
C26   C30   A    
O8    V4    S    
C8    C21   S    
O26   H14   S    
S4    O32   S    
O13   C5    A    
O2    V3    S    
C14   C17   S    
O3    V2    S    
O15   C7    A    
C15   C16   D    
C34   C38   A    
O6    C2    A    
O10   V2    S    
C24   C35   A    
S4    O31   D    
C21   C30   A    
H2    C33   S    
H1    C34   S    
C16   H7    S    
O6    V2    S    
H3    C36   S    
S2    O25   D    
S3    O28   D    
C24   C31   A    
C13   H6    S    
C7    C22   S    
O16   V4    S    
S1    O23   S    
C30   S1    S    
O14   C6    A    
O4    V1    S    
O23   H13   S    
C5    C24   S    
H4    C35   S    
H9    C25   S    
C6    C23   S    
C25   C38   A    
S2    O26   S    
H11   C27   S    
H12   C28   S    
C35   C39   A    
O29   H15   S    
C22   C33   A    
C31   S4    S    
C28   C39   A    
O1    V4    S    
C1    C11   S    
C14   H5    S    
C2    C12   S    
C25   C29   A    
O12   C1    A    
S2    O24   D    
S3    O29   S    
C32   S3    S    
C9    C18   T    
C4    C10   S    
C11   C20   T    
