data_mof_unit_61581.cif
_audit_creation_date              2012-12-10T17:06:38-0500
_audit_creation_method            fapswitch 2.2
_symmetry_space_group_name_H-M    P1
_symmetry_Int_Tables_number       1
_space_group_crystal_system       triclinic
_cell_length_a                    14.155537
_cell_length_b                    10.757998
_cell_length_c                    10.047291
_cell_angle_alpha                 89.911215
_cell_angle_beta                  89.858167
_cell_angle_gamma                 90.001303
_cell_volume                      1530.04758305

loop_
_atom_site_label
_atom_site_type_symbol
_atom_type_description
_atom_site_fract_x
_atom_site_fract_y
_atom_site_fract_z
_atom_type_partial_charge
Br1   Br    Br    0.412661 0.379109 0.907628 -0.433579
C1    C     C_R   0.501985 0.262715 0.499934 0.929051
C2    C     C_R   0.498075 0.737275 0.499865 0.917503
C3    C     C_R   0.670769 0.499997 0.499846 0.877956
C4    C     C_1   0.227744 0.499881 0.500397 -0.172699
C5    C     C_1   0.142498 0.499874 0.500363 0.006601
C6    C     C_1   0.042616 0.499883 0.500144 0.018490
C7    C     C_1   0.957375 0.499903 0.499907 0.015668
C8    C     C_1   0.857495 0.499937 0.499676 -0.006728
C9    C     C_1   0.772250 0.499967 0.499624 -0.199940
C10   C     C_2   0.503857 0.933215 0.387902 -0.153696
C11   C     C_2   0.489536 0.868766 0.499756 -0.324709
C12   C     C_2   0.498219 0.067041 0.387857 -0.149185
C13   C     C_2   0.510833 0.131231 0.500027 -0.324988
C14   C     C_2   0.572804 0.525962 0.927087 -0.033881
C15   C     C_2   0.575756 0.500785 0.074042 -0.102990
C16   C     C_R   0.329228 0.499904 0.500158 0.888678
H1    H     H_    0.518874 0.887665 0.293726 0.179073
H2    H     H_    0.468888 0.911256 0.593134 0.159382
H3    H     H_    0.484478 0.112785 0.293352 0.191311
H4    H     H_    0.530372 0.088542 0.593777 0.160411
H5    H     H_    0.635464 0.565415 0.881297 0.118211
H6    H     H_    0.644141 0.488710 0.120655 0.154035
H7    H     H_    0.440414 0.535953 0.105092 0.217724
N1    N     N_2   0.500930 0.501330 0.852150 0.015883
N2    N     N_2   0.500950 0.501360 0.147810 -0.166300
O1    O     O_R   0.499990 0.319060 0.613040 -0.571263
O2    O     O_R   0.500010 0.319100 0.386900 -0.599719
O3    O     O_R   0.373700 0.499980 0.613090 -0.555998
O4    O     O_R   0.373730 0.500020 0.386960 -0.596494
O5    O     O_R   0.499990 0.680900 0.613100 -0.614043
O6    O     O_R   0.500010 0.680940 0.386960 -0.612732
O7    O     O_R   0.626270 0.499980 0.613040 -0.606382
O8    O     O_R   0.626300 0.500020 0.386910 -0.603967
Zn1   Zn    Zn3+2 0.499980 0.499970 0.650990 1.016800
Zn2   Zn    Zn3+2 0.500020 0.500030 0.349010 0.962515

loop_
_geom_bond_atom_site_label_1
_geom_bond_atom_site_label_2
_ccdc_geom_bond_type
C2    O6    A    
Br1   N1    S    
C10   C11   D    
C10   H1    S    
C5    C6    S    
C16   O3    A    
C8    C9    T    
O3    Zn1   S    
O4    Zn2   S    
C6    C7    T    
C12   C13   D    
C2    O5    A    
C16   O4    A    
C10   C12   S    
O2    Zn2   S    
C1    O1    A    
N1    Zn1   S    
O6    Zn2   S    
C11   H2    S    
N2    Zn2   S    
O7    Zn1   S    
H7    N2    S    
C15   H6    S    
O8    Zn2   S    
C15   N2    D    
C4    C5    T    
C1    C13   S    
C3    O8    A    
C14   N1    D    
C4    C16   S    
C3    C9    S    
C14   C15   S    
C13   H4    S    
C1    O2    A    
C3    O7    A    
O5    Zn1   S    
C2    C11   S    
C12   H3    S    
O1    Zn1   S    
C14   H5    S    
C7    C8    S    
