data_mof_unit_57546.cif
_audit_creation_date              2012-12-10T17:35:37-0500
_audit_creation_method            fapswitch 2.2
_symmetry_space_group_name_H-M    P1
_symmetry_Int_Tables_number       1
_space_group_crystal_system       triclinic
_cell_length_a                    10.768657
_cell_length_b                    12.316418
_cell_length_c                    13.225643
_cell_angle_alpha                 116.374576
_cell_angle_beta                  78.098449
_cell_angle_gamma                 102.34644
_cell_volume                      1522.74659451

loop_
_atom_site_label
_atom_site_type_symbol
_atom_type_description
_atom_site_fract_x
_atom_site_fract_y
_atom_site_fract_z
_atom_type_partial_charge
C1    C     C_R   0.510979 0.853816 0.285659 0.877418
C2    C     C_3   0.120463 0.998982 0.499479 -0.008256
C3    C     C_3   0.055772 0.068073 0.622301 -0.421308
C4    C     C_3   0.046908 0.865377 0.449159 -0.006244
C5    C     C_R   0.461442 0.257884 0.029948 -0.160747
C6    C     C_R   0.498516 0.225060 0.832818 -0.071470
C7    C     C_R   0.571589 0.815764 0.078150 0.065832
C8    C     C_R   0.625091 0.737960 0.969355 0.434593
C9    C     C_R   0.616721 0.613953 0.940339 -0.198937
C10   C     C_R   0.550612 0.561540 0.014922 -0.025082
C11   C     C_R   0.501575 0.638908 0.126541 0.012096
C12   C     C_R   0.739920 0.000176 0.499297 0.799585
C13   C     C_R   0.528383 0.432723 0.980105 0.114284
C14   C     C_R   0.483108 0.384501 0.062298 0.110549
C15   C     C_R   0.440670 0.461476 0.172451 -0.248014
C16   C     C_R   0.430884 0.581384 0.197196 0.193056
C17   C     C_R   0.535139 0.350708 0.865084 -0.245795
C18   C     C_R   0.468442 0.178228 0.915341 -0.149460
C19   C     C_R   0.521941 0.768939 0.161817 -0.166197
C20   C     C_R   0.704247 0.350255 0.330948 -0.258239
C21   C     C_R   0.330549 0.758250 0.647866 0.676690
C22   C     C_R   0.294212 0.657990 0.676648 -0.298804
C23   C     C_R   0.490719 0.144685 0.712699 0.800444
C24   C     C_R   0.356250 0.554771 0.618838 -0.201531
C25   C     C_R   0.457550 0.548994 0.531178 0.000321
C26   C     C_R   0.491697 0.652733 0.503856 0.144055
C27   C     C_R   0.527573 0.445321 0.471392 -0.063752
C28   C     C_R   0.629336 0.446694 0.384280 0.055454
C29   C     C_R   0.657381 0.546509 0.354658 0.333134
C30   C     C_R   0.593759 0.648041 0.417065 -0.178133
C31   C     C_R   0.501939 0.339755 0.494711 0.063288
C32   C     C_R   0.675242 0.251119 0.359342 0.109724
C33   C     C_R   0.259391 0.999649 0.500013 0.817175
C34   C     C_3   0.963206 0.079847 0.438222 -0.335310
C35   C     C_3   0.105272 0.068042 0.428381 -0.003214
C36   C     C_3   0.909609 0.055056 0.621885 -0.473796
C37   C     C_3   0.910108 0.867805 0.432003 0.195117
C38   C     C_3   0.877739 0.000660 0.497700 0.071240
Cu1   Cu    Cu3+1 0.529690 0.098270 0.475420 0.971631
Cu2   Cu    Cu3+1 0.470310 0.901730 0.524580 1.015643
H1    H     H_    0.949070 0.177580 0.488894 0.152838
H2    H     H_    0.857966 0.994546 0.663987 0.211421
H3    H     H_    0.074463 0.033171 0.681336 0.225806
H4    H     H_    0.443824 0.080780 0.891739 0.192029
H5    H     H_    0.391200 0.422594 0.231629 0.167678
H6    H     H_    0.428913 0.220777 0.092948 0.177791
H7    H     H_    0.557388 0.383929 0.799559 0.157263
H8    H     H_    0.664381 0.559850 0.857873 0.167684
H9    H     H_    0.935074 0.052292 0.352929 0.225912
H10   H     H_    0.732676 0.177139 0.317839 0.140682
H11   H     H_    0.786984 0.351150 0.268915 0.165761
H12   H     H_    0.424794 0.329870 0.557601 0.116479
H13   H     H_    0.323541 0.481401 0.645531 0.146135
H14   H     H_    0.217673 0.659948 0.744694 0.157413
H15   H     H_    0.627486 0.720838 0.391830 0.230960
H16   H     H_    0.158503 0.162445 0.462811 0.145012
H17   H     H_    0.876961 0.146384 0.672172 0.180501
H18   H     H_    0.096692 0.166692 0.655543 0.169268
H19   H     H_    0.840551 0.807006 0.465540 0.153133
H20   H     H_    0.099057 0.812524 0.365851 0.188248
N1    N     N_R   0.574690 0.246280 0.438200 -0.182682
N2    N     N_R   0.426100 0.754320 0.561190 -0.200637
O1    O     O_R   0.537340 0.972510 0.318130 -0.542208
O2    O     O_R   0.487200 0.806530 0.359650 -0.596579
O3    O     O_R   0.707380 0.082980 0.479220 -0.598799
O4    O     O_R   0.657240 0.917000 0.520740 -0.621024
O5    O     O_R   0.512800 0.193470 0.640350 -0.605116
O6    O     O_R   0.462660 0.027490 0.681870 -0.536753
O7    O     O_R   0.342760 0.083000 0.479260 -0.590106
O8    O     O_R   0.292620 0.917020 0.520780 -0.501827
I1    I     I_    0.026961 0.765236 0.553987 -0.334407
I2    I     I_    0.552581 0.996736 0.103811 -0.372485
O9    O     O_3   0.686583 0.778873 0.887666 -0.706718
H21   H     H_    0.720971 0.866452 0.925456 0.348103
I3    I     I_    0.252617 0.627714 0.291467 -0.335892
O10   O     O_3   0.746920 0.549052 0.264350 -0.740454
H22   H     H_    0.740554 0.466150 0.201265 0.332198
O11   O     O_3   0.271520 0.861894 0.706778 -0.693203
H23   H     H_    0.206313 0.851339 0.767902 0.311042
I4    I     I_    0.186113 0.985047 0.251715 -0.314986
O12   O     O_3   0.899373 0.824940 0.315761 -0.718049
H24   H     H_    0.909996 0.737074 0.279335 0.381532

loop_
_geom_bond_atom_site_label_1
_geom_bond_atom_site_label_2
_ccdc_geom_bond_type
C2    C35   S    
C16   I3    S    
O9    H21   S    
C31   N1    A    
C36   H2    S    
C31   H12   S    
O12   H24   S    
C7    C8    A    
C22   H14   S    
C29   O10   S    
C3    H3    S    
C29   C30   A    
Cu2   O8    S    
C28   C29   A    
C32   N1    A    
C20   H11   S    
C20   C32   A    
C15   C16   A    
C35   I4    S    
Cu2   N2    S    
C34   C35   S    
C23   O5    A    
C8    C9    A    
C21   O11   S    
C9    C10   A    
C33   O7    A    
Cu2   O4    S    
C21   C22   A    
Cu1   O3    S    
C37   O12   S    
C34   H1    S    
C6    C18   A    
C1    O1    A    
C25   C26   A    
Cu1   N1    S    
C1    C19   S    
C27   C31   A    
O10   H22   S    
C36   H17   S    
Cu1   Cu2   S    
O11   H23   S    
C5    C18   A    
C20   C28   A    
C24   H13   S    
C12   O4    A    
C23   O6    A    
C2    C4    S    
C37   C38   S    
C18   H4    S    
C11   C16   A    
C11   C19   A    
C4    H20   S    
Cu1   O7    S    
C24   C25   A    
C32   H10   S    
C5    C14   A    
C37   H19   S    
C5    H6    S    
C33   O8    A    
C2    C33   S    
C26   C30   A    
C7    C19   A    
C22   C24   A    
C15   H5    S    
C1    O2    A    
C7    I2    S    
C12   O3    A    
C6    C17   A    
C34   H9    S    
C35   H16   S    
C34   C38   S    
Cu1   O5    S    
C17   H7    S    
C10   C13   A    
C25   C27   A    
Cu1   O1    S    
C30   H15   S    
Cu2   O2    S    
C13   C17   A    
C36   C38   S    
C2    C3    S    
C26   N2    A    
C3    C36   S    
C6    C23   S    
C8    O9    S    
C12   C38   S    
C10   C11   A    
C3    H18   S    
C4    C37   S    
C9    H8    S    
Cu2   O6    S    
C27   C28   A    
C14   C15   A    
C21   N2    A    
C13   C14   A    
C4    I1    S    
