data_mof_unit_39348.cif
_audit_creation_date              2012-12-10T18:41:00-0500
_audit_creation_method            fapswitch 2.2
_symmetry_space_group_name_H-M    P1
_symmetry_Int_Tables_number       1
_space_group_crystal_system       triclinic
_cell_length_a                    15.155952
_cell_length_b                    13.849551
_cell_length_c                    19.462873
_cell_angle_alpha                 90.097698
_cell_angle_beta                  89.739818
_cell_angle_gamma                 89.997295
_cell_volume                      4085.26989817

loop_
_atom_site_label
_atom_site_type_symbol
_atom_type_description
_atom_site_fract_x
_atom_site_fract_y
_atom_site_fract_z
_atom_type_partial_charge
C1    C     C_R   0.329882 0.500077 0.500394 0.840588
C2    C     C_R   0.670188 0.500076 0.499389 0.845062
C3    C     C_R   0.188534 0.574241 0.466176 -0.296590
C4    C     C_R   0.813651 0.418286 0.478217 -0.296985
C5    C     C_R   0.812232 0.584577 0.516871 -0.297164
C6    C     C_R   0.186257 0.429686 0.535991 -0.289964
C7    C     C_R   0.233487 0.500853 0.500596 -0.167073
C8    C     C_R   0.766708 0.500833 0.498071 -0.174163
C9    C     C_R   0.048654 0.503315 0.500068 -0.115658
C10   C     C_R   0.951594 0.502910 0.497087 -0.112835
C11   C     C_R   0.537104 0.107856 0.554406 -0.278358
C12   C     C_R   0.434394 0.892006 0.465487 -0.284603
C13   C     C_R   0.463713 0.107692 0.445086 -0.288762
C14   C     C_R   0.566176 0.892074 0.534045 -0.278067
C15   C     C_R   0.536834 0.209383 0.553273 0.096326
C16   C     C_R   0.435759 0.790482 0.465927 0.106013
C17   C     C_R   0.463584 0.209225 0.446497 0.101035
C18   C     C_R   0.564439 0.790562 0.533913 0.097670
C19   C     C_R   0.500432 0.054577 0.499711 0.130334
C20   C     C_R   0.500367 0.945233 0.499707 0.135838
C21   C     C_R   0.501374 0.499880 0.367767 0.858858
C22   C     C_R   0.501742 0.500033 0.631982 0.886807
C23   C     C_R   0.446769 0.446615 0.745590 0.386106
C24   C     C_R   0.460447 0.567718 0.253887 0.391257
C25   C     C_R   0.561888 0.430756 0.259368 0.389411
C26   C     C_R   0.577138 0.550242 0.738806 0.389950
C27   C     C_R   0.453117 0.447695 0.817536 -0.241591
C28   C     C_R   0.466288 0.565559 0.182039 -0.236782
C29   C     C_R   0.568754 0.431897 0.187432 -0.243071
C30   C     C_R   0.583941 0.547499 0.810690 -0.237144
C31   C     C_R   0.521597 0.497486 0.850351 0.006034
C32   C     C_R   0.520606 0.498360 0.148458 0.003933
C33   C     C_R   0.508043 0.499817 0.706816 -0.207693
C34   C     C_R   0.507580 0.499306 0.292482 -0.216937
C35   C     C_R   0.536163 0.584908 0.963459 -0.070383
C36   C     C_R   0.514292 0.409962 0.035284 -0.068650
C37   C     C_R   0.541354 0.583932 0.035548 -0.071910
C38   C     C_R   0.520902 0.409231 0.963247 -0.070753
C39   C     C_R   0.526121 0.497220 0.072102 0.016157
C40   C     C_R   0.527290 0.497206 0.926668 0.015912
C41   C     C_R   0.096778 0.574279 0.463196 0.465195
C42   C     C_R   0.905591 0.419118 0.475332 0.452760
C43   C     C_R   0.903922 0.585496 0.518858 0.433364
C44   C     C_R   0.094243 0.432542 0.538984 0.454808
Cu1   Cu    Cu3+1 0.500000 0.596430 0.500000 0.975629
Cu2   Cu    Cu3+1 0.500000 0.403570 0.500000 0.970628
H1    H     H_    0.405545 0.408571 0.848252 0.142916
H2    H     H_    0.428862 0.617174 0.152340 0.148341
H3    H     H_    0.610624 0.379802 0.161682 0.147125
H4    H     H_    0.637229 0.585165 0.835904 0.145295
H5    H     H_    0.224797 0.630714 0.439880 0.163994
H6    H     H_    0.778994 0.352819 0.464075 0.181867
H7    H     H_    0.776678 0.649009 0.532211 0.178450
H8    H     H_    0.220963 0.373157 0.563231 0.182130
H9    H     H_    0.564977 0.071850 0.598538 0.136163
H10   H     H_    0.381028 0.928037 0.439188 0.133639
H11   H     H_    0.436062 0.071551 0.400834 0.135644
H12   H     H_    0.619681 0.928134 0.560235 0.131975
H13   H     H_    0.566123 0.248573 0.595490 0.131363
H14   H     H_    0.384889 0.751006 0.439044 0.135703
H15   H     H_    0.434368 0.248296 0.404288 0.135853
H16   H     H_    0.615213 0.751178 0.560893 0.138812
N1    N     N_R   0.500000 0.258690 0.500000 -0.176076
N2    N     N_R   0.500000 0.741310 0.500000 -0.177393
O1    O     O_R   0.371460 0.581430 0.500010 -0.596602
O2    O     O_R   0.628540 0.418570 0.499990 -0.588777
O3    O     O_R   0.628540 0.581430 0.499990 -0.592797
O4    O     O_R   0.371460 0.418570 0.500010 -0.581772
O5    O     O_R   0.500020 0.581470 0.400190 -0.549818
O6    O     O_R   0.499980 0.418530 0.599810 -0.572430
O7    O     O_R   0.499980 0.581470 0.599810 -0.559729
O8    O     O_R   0.500020 0.418530 0.400190 -0.563473
O9    O     O_3   0.387523 0.387489 0.711068 -0.578575
C45   C     C_3   0.300648 0.393811 0.737470 0.069962
H17   H     H_    0.256518 0.409552 0.693678 0.148623
H18   H     H_    0.289729 0.453850 0.774812 0.089078
C46   C     C_3   0.273558 0.297314 0.769686 -0.369517
H19   H     H_    0.320780 0.277204 0.810697 0.224625
H20   H     H_    0.207343 0.305049 0.793777 0.173578
C47   C     C_3   0.270550 0.216318 0.716329 -0.726796
H21   H     H_    0.223597 0.234444 0.674639 0.234908
H22   H     H_    0.248438 0.148417 0.741284 0.226048
H23   H     H_    0.337079 0.204234 0.693723 0.280000
O10   O     O_3   0.414926 0.640893 0.287421 -0.570497
C48   C     C_3   0.324587 0.642011 0.269312 0.059272
H24   H     H_    0.285433 0.629293 0.316729 0.140416
H25   H     H_    0.304444 0.584495 0.232298 0.087068
C49   C     C_3   0.300357 0.740718 0.239547 -0.342308
H26   H     H_    0.343470 0.756777 0.194687 0.221177
H27   H     H_    0.231078 0.738868 0.221230 0.176841
C50   C     C_3   0.309723 0.821240 0.292762 -0.769811
H28   H     H_    0.267111 0.806565 0.338151 0.224709
H29   H     H_    0.289294 0.891000 0.269752 0.230431
H30   H     H_    0.379408 0.827647 0.309578 0.277017
O11   O     O_3   0.600502 0.358181 0.298173 -0.570613
C51   C     C_3   0.691718 0.347266 0.284367 0.075561
H31   H     H_    0.727729 0.358455 0.333274 0.148589
H32   H     H_    0.719799 0.400908 0.247602 0.084631
C52   C     C_3   0.709823 0.244880 0.258081 -0.369135
H33   H     H_    0.669889 0.230831 0.211394 0.224001
H34   H     H_    0.780485 0.238360 0.243575 0.179387
C53   C     C_3   0.688105 0.168822 0.312391 -0.720785
H35   H     H_    0.727602 0.181334 0.359516 0.228855
H36   H     H_    0.703988 0.095934 0.291974 0.227683
H37   H     H_    0.616816 0.170987 0.325828 0.276996
O12   O     O_3   0.632774 0.606964 0.698777 -0.580246
C54   C     C_3   0.723114 0.588378 0.711686 0.060312
H38   H     H_    0.755416 0.570046 0.662025 0.143979
H39   H     H_    0.735718 0.525452 0.746001 0.085234
C55   C     C_3   0.767437 0.678571 0.741329 -0.347340
H40   H     H_    0.736696 0.697878 0.791370 0.217529
H41   H     H_    0.838080 0.662407 0.750762 0.158277
C56   C     C_3   0.760510 0.764894 0.692849 -0.751601
H42   H     H_    0.787889 0.746686 0.641472 0.231143
H43   H     H_    0.798349 0.826571 0.714225 0.226048
H44   H     H_    0.690558 0.787278 0.687149 0.272326
C57   C     C_1   0.536295 0.677036 0.927909 0.241247
N3    N     N_1   0.536340 0.750512 0.899658 -0.265814
C58   C     C_1   0.491470 0.321125 0.070731 0.239161
N4    N     N_1   0.473209 0.250299 0.098897 -0.273360
C59   C     C_1   0.563917 0.672340 0.071703 0.243889
N5    N     N_1   0.581956 0.742792 0.100463 -0.266112
C60   C     C_1   0.522534 0.317317 0.927158 0.240077
N6    N     N_1   0.523874 0.244074 0.898443 -0.270934
O13   O     O_3   0.055775 0.651215 0.430864 -0.567481
C61   C     C_3   0.020214 0.622903 0.366830 0.095782
H45   H     H_    0.970010 0.677747 0.352693 0.182971
H46   H     H_    0.984767 0.552872 0.368797 0.107886
C62   C     C_3   0.091568 0.620760 0.310981 -0.417524
H47   H     H_    0.130447 0.688582 0.313593 0.235641
H48   H     H_    0.136269 0.558495 0.319918 0.196475
C63   C     C_3   0.051508 0.611490 0.239508 -0.912867
H49   H     H_    0.009090 0.546328 0.236378 0.260089
H50   H     H_    0.105090 0.605224 0.200657 0.250255
H51   H     H_    0.011280 0.676301 0.227528 0.262080
O14   O     O_3   0.948087 0.332869 0.460145 -0.571215
C64   C     C_3   0.990925 0.336661 0.395421 0.098633
H52   H     H_    0.034169 0.272059 0.391883 0.181215
H53   H     H_    0.035409 0.399729 0.390078 0.110465
C65   C     C_3   0.925043 0.333167 0.335962 -0.421355
H54   H     H_    0.878257 0.272570 0.344323 0.235126
H55   H     H_    0.887284 0.401867 0.334168 0.195508
C66   C     C_3   0.972250 0.318921 0.267271 -0.913553
H56   H     H_    0.023402 0.375338 0.259773 0.257980
H57   H     H_    0.923944 0.323893 0.224726 0.250335
H58   H     H_    0.004100 0.246726 0.265441 0.262297
O15   O     O_3   0.945672 0.669873 0.538826 -0.562507
C67   C     C_3   0.973011 0.661713 0.607829 0.044617
H59   H     H_    0.029430 0.610955 0.611823 0.146399
H60   H     H_    0.918194 0.636307 0.641549 0.118219
C68   C     C_3   0.004013 0.760424 0.633085 -0.290802
H61   H     H_    0.057397 0.787269 0.598717 0.238024
H62   H     H_    0.948250 0.812440 0.631271 0.218614
C69   C     C_3   0.038989 0.754978 0.706389 -0.931108
H63   H     H_    0.986379 0.730237 0.742084 0.253784
H64   H     H_    0.061473 0.827619 0.722996 0.262098
H65   H     H_    0.095699 0.704296 0.709050 0.259660
O16   O     O_3   0.051365 0.358862 0.574219 -0.570324
C70   C     C_3   0.005173 0.394064 0.632654 0.097051
H66   H     H_    0.960607 0.335444 0.650426 0.174860
H67   H     H_    0.961597 0.455923 0.621286 0.104773
C71   C     C_3   0.067590 0.419510 0.691543 -0.424433
H68   H     H_    0.105617 0.354148 0.705486 0.232052
H69   H     H_    0.113906 0.477216 0.675074 0.202319
C72   C     C_3   0.016789 0.455077 0.754535 -0.928309
H70   H     H_    0.978943 0.521385 0.741936 0.248061
H71   H     H_    0.063917 0.472301 0.796317 0.258743
H72   H     H_    0.970576 0.398449 0.773019 0.259286

loop_
_geom_bond_atom_site_label_1
_geom_bond_atom_site_label_2
_ccdc_geom_bond_type
C66   H58   S    
C72   H70   S    
C10   C42   A    
C44   O16   S    
O9    C45   S    
C14   C18   A    
O11   C51   S    
C67   C68   S    
C4    C8    A    
C26   O12   S    
C60   N6    T    
C29   H3    S    
Cu1   Cu2   S    
C64   H53   S    
C11   C19   A    
C71   H68   S    
C45   H18   S    
C4    H6    S    
C5    H7    S    
C35   C37   A    
C65   H55   S    
Cu2   O2    S    
C29   C32   A    
C3    C7    A    
C30   C31   A    
C68   C69   S    
Cu1   O7    S    
O12   C54   S    
C66   H56   S    
C51   C52   S    
C1    O4    A    
C31   C40   S    
C53   H37   S    
C42   O14   S    
C16   H14   S    
C32   C39   S    
C36   C58   S    
C55   H40   S    
O15   C67   S    
C17   H15   S    
C11   C15   A    
C28   H2    S    
C12   C16   A    
C63   H49   S    
C23   C33   A    
C45   C46   S    
C51   H32   S    
Cu1   O3    S    
C1    O1    A    
C68   H61   S    
C70   H67   S    
C23   C27   A    
C9    C10   S    
C69   H64   S    
C38   C60   S    
C46   H19   S    
C25   C34   A    
C62   C63   S    
C46   H20   S    
C30   H4    S    
C72   H71   S    
C6    C44   A    
C54   H39   S    
C15   H13   S    
C23   O9    S    
C47   H23   S    
C71   H69   S    
C48   H25   S    
C25   C29   A    
C14   H12   S    
C64   C65   S    
C45   H17   S    
C13   C19   A    
C21   O8    A    
C27   C31   A    
C41   O13   S    
C28   C32   A    
O10   C48   S    
C69   H65   S    
C47   H22   S    
C2    O3    A    
C50   H28   S    
C3    H5    S    
C18   H16   S    
C21   C34   S    
C61   C62   S    
C48   H24   S    
Cu1   O5    S    
C24   C34   A    
C21   O5    A    
Cu2   O4    S    
C14   C20   A    
C50   H29   S    
C71   C72   S    
C26   C33   A    
C70   H66   S    
C49   C50   S    
C54   H38   S    
C51   H31   S    
C12   C20   A    
C69   H63   S    
C70   C71   S    
C65   H54   S    
C65   C66   S    
C53   H36   S    
C55   C56   S    
C59   N5    T    
C12   H10   S    
C37   C59   S    
C52   H34   S    
C49   H27   S    
C6    H8    S    
C72   H72   S    
Cu1   O1    S    
O16   C70   S    
C54   C55   S    
C35   C57   S    
C22   O7    A    
C11   H9    S    
C56   H42   S    
C48   C49   S    
C27   H1    S    
C66   H57   S    
C22   C33   S    
C3    C41   A    
C9    C44   A    
C61   H46   S    
C10   C43   A    
C1    C7    S    
Cu2   O8    S    
C36   C39   A    
C2    C8    S    
C24   C28   A    
C67   H60   S    
C47   H21   S    
C2    O2    A    
C5    C8    A    
C58   N4    T    
C25   O11   S    
C6    C7    A    
C64   H52   S    
Cu1   N2    S    
C9    C41   A    
C52   H33   S    
C13   C17   A    
Cu2   N1    S    
C56   H44   S    
C19   C20   S    
C36   C38   A    
C35   C40   A    
C62   H47   S    
C37   C39   A    
C57   N3    T    
C17   N1    A    
C50   H30   S    
C38   C40   A    
C46   C47   S    
C18   N2    A    
O13   C61   S    
C4    C42   A    
C63   H51   S    
C67   H59   S    
C68   H62   S    
C24   O10   S    
C53   H35   S    
C55   H41   S    
Cu2   O6    S    
C43   O15   S    
C52   C53   S    
C13   H11   S    
C49   H26   S    
C63   H50   S    
C15   N1    A    
C5    C43   A    
C16   N2    A    
C62   H48   S    
C22   O6    A    
O14   C64   S    
C61   H45   S    
C56   H43   S    
C26   C30   A    
