data_mof_unit_9651.cif
_audit_creation_date              2012-12-11T17:04:48-0500
_audit_creation_method            fapswitch 2.2
_symmetry_space_group_name_H-M    P1
_symmetry_Int_Tables_number       1
_space_group_crystal_system       triclinic
_cell_length_a                    17.348457
_cell_length_b                    24.230385
_cell_length_c                    14.966211
_cell_angle_alpha                 90.147293
_cell_angle_beta                  125.722392
_cell_angle_gamma                 89.962784
_cell_volume                      5107.51966023

loop_
_atom_site_label
_atom_site_type_symbol
_atom_type_description
_atom_site_fract_x
_atom_site_fract_y
_atom_site_fract_z
_atom_type_partial_charge
C1    C     C_R   0.852029 0.652956 0.906879 -0.161550
C2    C     C_R   0.926634 0.502487 0.628346 -0.049686
C3    C     C_R   0.759369 0.046208 0.303117 -0.141029
C4    C     C_R   0.851799 0.348369 0.910005 -0.133400
C5    C     C_R   0.188393 0.374780 0.090025 -0.121390
C6    C     C_R   0.351087 0.848608 0.910273 -0.135000
C7    C     C_R   0.687960 0.873861 0.090809 -0.109944
C8    C     C_R   0.941824 0.653288 0.089547 -0.133392
C9    C     C_R   0.099063 0.626077 0.909769 -0.122237
C10   C     C_R   0.439482 0.152370 0.090249 -0.117674
C11   C     C_R   0.598178 0.129018 0.911200 -0.117592
C12   C     C_R   0.880820 0.685080 0.997412 0.080810
C13   C     C_R   0.574464 0.003043 0.371136 -0.065197
C14   C     C_R   0.189355 0.638859 0.003024 0.068895
C15   C     C_R   0.377906 0.184162 0.997976 0.074295
C16   C     C_R   0.688426 0.141210 0.004410 0.068382
C17   C     C_R   0.483714 0.002596 0.661854 -0.075457
C18   C     C_R   0.675538 0.500794 0.726872 0.070484
C19   C     C_R   0.308888 0.499942 0.360447 0.121801
C20   C     C_R   0.175495 0.000724 0.727495 0.057997
C21   C     C_R   0.808678 0.999991 0.360789 0.115289
C22   C     C_3   0.497102 0.461447 0.625029 -0.326701
C23   C     C_3   0.467956 0.449312 0.506938 -0.340353
C24   C     C_3   0.997527 0.960058 0.623930 -0.331898
C25   C     C_R   0.192022 0.623986 0.094004 -0.144556
C26   C     C_3   0.968670 0.949935 0.505396 -0.340553
C27   C     C_3   0.429188 0.511537 0.579878 0.627523
C28   C     C_3   0.544852 0.488854 0.526246 0.629929
C29   C     C_3   0.928583 0.009639 0.580942 0.620489
C30   C     C_3   0.044787 0.990677 0.526570 0.631693
C31   C     C_3   0.400964 0.499493 0.464535 0.060933
C32   C     C_3   0.574588 0.500805 0.642671 0.042667
C33   C     C_3   0.900672 0.999561 0.465140 0.062718
C34   C     C_3   0.074338 0.000678 0.643497 0.045463
C35   C     C_3   0.478815 0.538650 0.482773 -0.329666
C36   C     C_R   0.350549 0.152585 0.907150 -0.163172
C37   C     C_3   0.507565 0.551071 0.600323 -0.334344
C38   C     C_3   0.977793 0.039980 0.485289 -0.331640
C39   C     C_3   0.006293 0.050403 0.603357 -0.328172
C40   C     C_R   0.892403 0.234697 0.106310 0.129394
C41   C     C_R   0.235014 0.312020 0.893914 0.142661
C42   C     C_R   0.391628 0.734087 0.105434 0.139834
C43   C     C_R   0.736391 0.811953 0.894913 0.139076
C44   C     C_R   0.864586 0.258388 0.006343 0.041876
C45   C     C_R   0.257470 0.334269 0.993048 0.040643
C46   C     C_R   0.362309 0.758818 0.005847 0.040259
C47   C     C_R   0.691515 0.125132 0.094876 -0.146087
C48   C     C_R   0.757371 0.832773 0.994418 0.042847
C49   C     C_R   0.804482 0.227602 0.909322 -0.188560
C50   C     C_R   0.344924 0.319501 0.090934 -0.192964
C51   C     C_R   0.302271 0.728286 0.908296 -0.189888
C52   C     C_R   0.845117 0.818419 0.092179 -0.192521
C53   C     C_R   0.946825 0.348372 0.092453 -0.066102
C54   C     C_R   0.096419 0.377745 0.906071 -0.132612
C55   C     C_R   0.444291 0.849265 0.093239 -0.114948
C56   C     C_R   0.595993 0.875443 0.907298 -0.150010
C57   C     C_R   0.254206 0.682074 0.908947 -0.200238
C58   C     C_R   0.883642 0.316573 0.002159 0.023334
C59   C     C_R   0.895830 0.773461 0.092263 -0.201404
C60   C     C_R   0.754831 0.182412 0.910370 -0.202749
C61   C     C_R   0.393707 0.273211 0.091858 -0.202050
C62   C     C_R   0.265671 0.667050 0.006862 0.034126
C63   C     C_R   0.858655 0.743435 0.994385 0.032649
C64   C     C_R   0.764962 0.168813 0.008160 0.037460
C65   C     C_R   0.355270 0.242466 0.994569 0.034507
C66   C     C_R   0.343620 0.688952 0.106071 0.162356
C67   C     C_R   0.786835 0.767973 0.894999 0.164956
C68   C     C_R   0.842971 0.190508 0.107257 0.166092
C69   C     C_R   0.185045 0.362447 0.996892 0.045837
C70   C     C_R   0.283727 0.266842 0.894792 0.164192
C71   C     C_3   0.353902 0.709060 0.207434 -0.526023
C72   C     C_3   0.700776 0.743567 0.793120 -0.527778
C73   C     C_3   0.852125 0.211782 0.207194 -0.538246
C74   C     C_3   0.196517 0.242392 0.794346 -0.530357
C75   C     C_3   0.906422 0.259966 0.206318 -0.467921
C76   C     C_3   0.142917 0.291481 0.793581 -0.481636
C77   C     C_3   0.406903 0.758061 0.206892 -0.483953
C78   C     C_3   0.645406 0.791344 0.793123 -0.487656
C79   C     C_R   0.912439 0.556639 0.480732 0.157261
C80   C     C_R   0.381381 0.817219 0.002605 0.041182
C81   C     C_R   0.922091 0.556632 0.395931 0.166682
C82   C     C_R   0.544500 0.055810 0.576368 0.167395
C83   C     C_R   0.575061 0.057409 0.510201 0.170199
C84   C     C_R   0.894349 0.507298 0.514042 0.063465
C85   C     C_R   0.913436 0.507442 0.341860 0.061481
C86   C     C_R   0.534683 0.005343 0.613012 0.045065
C87   C     C_R   0.597505 0.007968 0.480870 0.091101
C88   C     C_R   0.860729 0.461955 0.441129 -0.172053
C89   C     C_R   0.868498 0.462585 0.353084 -0.249357
C90   C     C_R   0.583306 0.959494 0.611326 -0.252875
C91   C     C_R   0.684424 0.860345 0.998172 0.042299
C92   C     C_R   0.615336 0.960843 0.545065 -0.150867
C93   C     C_3   0.000961 0.598059 0.451710 -0.499597
C94   C     C_3   0.990805 0.598117 0.545063 -0.520829
C95   C     C_3   0.505684 0.103011 0.442419 -0.521920
C96   C     C_3   0.474639 0.101353 0.517570 -0.517180
C97   C     C_R   0.983770 0.547705 0.251114 -0.200133
C98   C     C_R   0.946237 0.547189 0.695256 -0.234797
C99   C     C_R   0.555800 0.047523 0.304928 -0.221876
C100  C     C_R   0.475635 0.047572 0.711645 -0.195386
C101  C     C_R   0.731284 0.454544 0.752475 -0.057211
C102  C     C_R   0.959546 0.502633 0.286281 -0.097801
C103  C     C_R   0.259319 0.454302 0.300306 -0.150035
C104  C     C_R   0.231298 0.954529 0.752729 -0.038227
C105  C     C_R   0.759256 0.954344 0.300488 -0.165267
C106  C     C_R   0.990800 0.455668 0.261119 0.536096
C107  C     C_R   0.944085 0.455906 0.691823 0.493082
C108  C     C_R   0.555080 0.956068 0.307318 0.519793
C109  C     C_R   0.472525 0.956063 0.707028 0.498767
C110  C     C_R   0.730790 0.546958 0.751194 -0.096517
C111  C     C_R   0.259465 0.546185 0.303030 -0.141621
C112  C     C_R   0.230735 0.046894 0.751467 -0.091822
H1    H     H_    0.819177 0.667074 0.823684 0.105755
H2    H     H_    0.524304 0.592006 0.641214 0.147691
H3    H     H_    0.969330 0.071594 0.426561 0.144938
H4    H     H_    0.022313 0.090760 0.646116 0.146714
H5    H     H_    0.786445 0.241937 0.830895 0.128460
H6    H     H_    0.369328 0.338571 0.168721 0.125441
H7    H     H_    0.283135 0.743319 0.829836 0.130561
H8    H     H_    0.868541 0.836637 0.170306 0.125939
H9    H     H_    0.199879 0.663298 0.830995 0.130283
H10   H     H_    0.956214 0.758602 0.170575 0.127943
H11   H     H_    0.700668 0.163312 0.832715 0.128903
H12   H     H_    0.251714 0.625695 0.178931 0.108178
H13   H     H_    0.453898 0.258299 0.170285 0.126452
H14   H     H_    0.399449 0.681467 0.279185 0.192595
H15   H     H_    0.678505 0.703443 0.807345 0.200927
H16   H     H_    0.896687 0.184517 0.279783 0.193781
H17   H     H_    0.173922 0.202997 0.810643 0.201314
H18   H     H_    0.285454 0.721247 0.192501 0.204096
H19   H     H_    0.705531 0.744290 0.722197 0.194507
H20   H     H_    0.783284 0.224536 0.190617 0.203848
H21   H     H_    0.200355 0.241608 0.722753 0.195410
H22   H     H_    0.982267 0.260314 0.278238 0.200858
H23   H     H_    0.317338 0.167041 0.824090 0.107470
H24   H     H_    0.090159 0.279572 0.809679 0.206762
H25   H     H_    0.483099 0.758425 0.277877 0.202422
H26   H     H_    0.592366 0.777819 0.807728 0.208267
H27   H     H_    0.868297 0.299781 0.189476 0.217666
H28   H     H_    0.115375 0.318679 0.721139 0.205911
H29   H     H_    0.368383 0.797545 0.191872 0.207127
H30   H     H_    0.617769 0.819327 0.721739 0.199359
H31   H     H_    0.837735 0.424181 0.456502 0.162641
H32   H     H_    0.849376 0.425954 0.302717 0.156041
H33   H     H_    0.589476 0.921446 0.652723 0.144220
H34   H     H_    0.751019 0.126998 0.179949 0.108920
H35   H     H_    0.642069 0.922969 0.535256 0.156803
H36   H     H_    0.980290 0.638013 0.407023 0.186803
H37   H     H_    0.054392 0.581206 0.622541 0.207468
H38   H     H_    0.447320 0.090474 0.357108 0.209921
H39   H     H_    0.495039 0.139144 0.569065 0.187147
H40   H     H_    0.998906 0.333363 0.174549 0.153339
H41   H     H_    0.070917 0.376846 0.821111 0.156488
H42   H     H_    0.493785 0.835267 0.176749 0.158560
H43   H     H_    0.571006 0.872119 0.823413 0.166492
H44   H     H_    0.070087 0.580991 0.475506 0.217827
H45   H     H_    0.505967 0.431110 0.685829 0.150283
H46   H     H_    0.964644 0.638162 0.554084 0.188988
H47   H     H_    0.541935 0.142241 0.449045 0.192465
H48   H     H_    0.399860 0.087617 0.475860 0.209156
H49   H     H_    0.969218 0.590545 0.254990 0.136615
H50   H     H_    0.926107 0.589504 0.669093 0.135291
H51   H     H_    0.576443 0.089899 0.330624 0.138748
H52   H     H_    0.469901 0.090232 0.689061 0.124238
H53   H     H_    0.708369 0.411972 0.736360 0.099783
H54   H     H_    0.272973 0.411963 0.328190 0.102587
H55   H     H_    0.208405 0.911955 0.736706 0.097405
H56   H     H_    0.452082 0.408264 0.466625 0.142705
H57   H     H_    0.772843 0.912033 0.328523 0.104928
H58   H     H_    0.708098 0.589547 0.734783 0.097359
H59   H     H_    0.273921 0.588183 0.333439 0.108172
H60   H     H_    0.207888 0.089453 0.734996 0.097823
H61   H     H_    0.773612 0.088190 0.333574 0.104865
H62   H     H_    0.812691 0.334014 0.825859 0.102800
H63   H     H_    0.246931 0.368206 0.174770 0.092706
H64   H     H_    0.312553 0.834040 0.826329 0.102935
H65   H     H_    0.746375 0.867620 0.175730 0.091913
H66   H     H_    0.988326 0.667800 0.173484 0.087529
H67   H     H_    0.006876 0.928563 0.683245 0.149141
H68   H     H_    0.072222 0.631654 0.824668 0.095975
H69   H     H_    0.484260 0.166288 0.174768 0.086715
H70   H     H_    0.571001 0.138882 0.827762 0.087569
H71   H     H_    0.998103 0.403708 0.362700 0.316350
H72   H     H_    0.837016 0.409643 0.600545 0.314632
H73   H     H_    0.658620 0.908669 0.404849 0.302988
H74   H     H_    0.427804 0.907347 0.583832 0.318201
H75   H     H_    0.402067 0.529357 0.683555 0.304938
H76   H     H_    0.568415 0.471045 0.419238 0.302907
H77   H     H_    0.900650 0.024155 0.685071 0.305733
H78   H     H_    0.953581 0.909467 0.463229 0.143897
H79   H     H_    0.068552 0.975746 0.418760 0.305091
H80   H     H_    0.470835 0.569113 0.422569 0.144941
N1    N     N_R   0.892620 0.603790 0.941770 -0.041250
N2    N     N_R   0.973690 0.529110 0.793240 -0.063465
N3    N     N_R   0.526310 0.029110 0.206760 -0.066415
N4    N     N_R   0.473690 0.029110 0.793240 -0.064982
N5    N     N_R   0.818570 0.472310 0.793020 -0.048225
N6    N     N_R   0.181430 0.472310 0.206980 -0.044056
N7    N     N_R   0.318570 0.972310 0.793020 -0.043059
N8    N     N_R   0.681430 0.972310 0.206980 -0.040838
N9    N     N_R   0.026930 0.472300 0.207330 -0.070371
N10   N     N_R   0.973070 0.472300 0.792670 -0.077078
N11   N     N_R   0.526930 0.972300 0.207330 -0.074895
N12   N     N_R   0.107380 0.603790 0.058230 -0.040055
N13   N     N_R   0.473070 0.972300 0.792670 -0.068331
N14   N     N_R   0.817960 0.529130 0.792460 -0.045975
N15   N     N_R   0.182040 0.529130 0.207540 -0.044572
N16   N     N_R   0.317960 0.029130 0.792460 -0.046108
N17   N     N_R   0.682040 0.029130 0.207540 -0.043476
N18   N     N_R   0.894850 0.397640 0.943830 -0.050131
N19   N     N_R   0.105150 0.397640 0.056170 -0.046480
N20   N     N_R   0.394850 0.897640 0.943830 -0.049886
N21   N     N_R   0.605150 0.897640 0.056170 -0.042366
N22   N     N_R   0.950040 0.603780 0.055950 -0.038791
N23   N     N_R   0.392620 0.103790 0.941770 -0.043317
N24   N     N_R   0.049960 0.603780 0.944050 -0.038604
N25   N     N_R   0.450040 0.103780 0.055950 -0.039627
N26   N     N_R   0.549960 0.103780 0.944050 -0.039982
N27   N     N_R   0.607380 0.103790 0.058230 -0.040845
N28   N     N_R   0.952270 0.397640 0.058010 -0.049173
N29   N     N_R   0.047730 0.397640 0.941990 -0.037228
N30   N     N_R   0.452270 0.897640 0.058010 -0.044071
N31   N     N_R   0.547730 0.897640 0.941990 -0.039278
N32   N     N_R   0.026310 0.529110 0.206760 -0.063260
Ni1   Ni    Ni4+2 0.934160 0.565860 0.869070 0.203757
Ni2   Ni    Ni4+2 0.065840 0.565860 0.130930 0.209066
Ni3   Ni    Ni4+2 0.434160 0.065860 0.869070 0.209716
Ni4   Ni    Ni4+2 0.565840 0.065860 0.130930 0.199609
Ni5   Ni    Ni4+2 0.067260 0.435560 0.132230 0.233930
Ni6   Ni    Ni4+2 0.932740 0.435560 0.867770 0.241107
Ni7   Ni    Ni4+2 0.567260 0.935560 0.132230 0.233103
Ni8   Ni    Ni4+2 0.432740 0.935560 0.867770 0.262313
O1    O     O_3   0.998140 0.402447 0.296720 -0.809096
O2    O     O_3   0.906623 0.404361 0.652412 -0.794521
O3    O     O_3   0.590101 0.904050 0.345295 -0.802184
O4    O     O_3   0.439181 0.905373 0.656798 -0.789059
O5    O     O_3   0.363598 0.523374 0.602891 -0.759182
O6    O     O_3   0.608425 0.477024 0.499966 -0.770827
O7    O     O_3   0.862537 0.019488 0.604105 -0.769836
O8    O     O_3   0.108509 0.980783 0.499737 -0.753982

loop_
_geom_bond_atom_site_label_1
_geom_bond_atom_site_label_2
_ccdc_geom_bond_type
C44   C49   A    
C3    N17   A    
C55   H42   S    
C83   C87   A    
C35   H80   S    
C38   H3    S    
C106  O1    S    
C29   C33   S    
C73   C75   S    
N26   Ni3   S    
C2    C84   S    
C95   C96   S    
C9    C14   A    
C25   N12   A    
C19   C31   S    
C54   H41   S    
C76   H24   S    
N6    Ni5   S    
N18   N28   A    
C57   C62   A    
N20   N30   A    
N5    Ni6   S    
C94   H37   S    
C1    C12   A    
C98   N2    A    
C93   C94   S    
C49   C60   A    
C105  H57   S    
N3    Ni4   S    
C95   H47   S    
C64   C68   A    
N2    Ni1   S    
C35   C37   S    
C77   H25   S    
C108  N11   A    
C8    N22   A    
C10   C15   A    
C78   H30   S    
C36   N23   A    
C38   C39   S    
N20   Ni8   S    
C101  N5    A    
N3    N11   A    
C65   C70   A    
C14   C62   S    
C74   H21   S    
C99   N3    A    
C2    C107  A    
C4    N18   A    
C7    H65   S    
C93   H36   S    
C50   H6    S    
C67   C72   S    
C42   C46   A    
N4    N13   A    
C24   C29   S    
C5    C69   A    
N15   Ni2   S    
C28   O6    S    
C20   C112  A    
C19   C103  A    
C3    H61   S    
C105  N8    A    
C49   H5    S    
C101  H53   S    
C28   C35   S    
C44   C58   S    
C56   C91   A    
C48   C91   S    
N29   Ni6   S    
C70   C74   S    
C53   H40   S    
C51   H7    S    
C13   C108  A    
C71   H14   S    
C51   C57   A    
N8    Ni7   S    
N27   Ni4   S    
C43   C48   A    
C88   H31   S    
C111  H59   S    
C97   C102  A    
N21   Ni7   S    
C81   C85   A    
N10   Ni6   S    
C20   C34   S    
C53   N28   A    
N9    Ni5   S    
N4    Ni3   S    
C83   C95   S    
C94   H46   S    
C4    H62   S    
C87   C92   A    
C92   H35   S    
C5    H63   S    
C29   C39   S    
N5    N14   A    
C112  H60   S    
C11   H70   S    
C1    H1    S    
C24   H67   S    
C56   H43   S    
C78   H26   S    
C16   C47   A    
C98   H50   S    
C22   H45   S    
C52   H8    S    
H74   O4    S    
C100  N4    A    
C9    N24   A    
C26   H78   S    
C103  H54   S    
C5    N19   A    
C63   C67   A    
C75   H22   S    
C82   C96   S    
C62   C66   A    
C72   H15   S    
C45   C69   S    
C34   C39   S    
C4    C58   A    
C84   C88   A    
C28   C32   S    
C112  N16   A    
C107  N10   A    
C100  H52   S    
H75   O5    S    
C30   O8    S    
C79   C81   A    
C12   C63   S    
C30   C34   S    
C54   N29   A    
C37   H2    S    
C68   C73   S    
C82   C86   A    
C96   H39   S    
C47   N27   A    
C46   C51   A    
C24   C34   S    
C17   C86   S    
N32   Ni2   S    
C43   C78   S    
C18   C101  A    
C23   C31   S    
C13   C99   A    
C60   H11   S    
C1    N1    A    
N7    Ni8   S    
N17   Ni4   S    
C52   C59   A    
C61   C65   A    
N19   N29   A    
C81   C93   S    
C11   C16   A    
C26   C33   S    
C90   C92   A    
C66   C71   S    
C40   C44   A    
C8    C12   A    
C7    C91   A    
C13   C87   S    
N14   Ni1   S    
N18   Ni6   S    
C110  N14   A    
C95   H38   S    
C32   C37   S    
C109  N13   A    
N11   Ni7   S    
C11   N26   A    
H72   O2    S    
C25   H12   S    
C7    N21   A    
C9    H68   S    
C22   C32   S    
C79   C94   S    
C55   N30   A    
C99   H51   S    
N28   Ni5   S    
C43   C67   A    
C96   H48   S    
C107  O2    S    
H71   O1    S    
N30   Ni7   S    
C82   C83   A    
C97   H49   S    
C22   C27   S    
C27   C31   S    
C86   C90   A    
C6    C80   A    
C104  N7    A    
C31   C35   S    
C3    C21   A    
C23   C28   S    
C74   C76   S    
C76   H28   S    
N12   Ni2   S    
H77   O7    S    
C36   H23   S    
C111  N15   A    
C15   C36   A    
C71   C77   S    
N31   Ni8   S    
C27   O5    S    
C72   H19   S    
H79   O8    S    
C50   C61   A    
C85   C89   A    
N19   Ni5   S    
N1    N22   A    
N6    N15   A    
H73   O3    S    
C93   H44   S    
C18   C110  A    
C24   C26   S    
N13   Ni8   S    
C17   C109  A    
C56   N31   A    
C61   H13   S    
C53   C58   A    
C40   C75   S    
C108  O3    S    
C20   C104  A    
N24   Ni1   S    
C19   C111  A    
C90   H33   S    
C89   H32   S    
N12   N24   A    
N2    N10   A    
C59   C63   A    
N8    N17   A    
N9    N32   A    
C97   N32   A    
C60   C64   A    
C21   C33   S    
N23   N25   A    
N1    Ni1   S    
N16   Ni3   S    
C2    C98   A    
C75   H27   S    
C106  N9    A    
C46   C80   S    
C55   C80   A    
N21   N31   A    
N26   N27   A    
C79   C84   A    
C54   C69   A    
C6    H64   S    
C45   C50   A    
C27   C37   S    
N7    N16   A    
C41   C76   S    
C18   C32   S    
C102  C106  A    
N23   Ni3   S    
C14   C25   A    
N22   Ni2   S    
C17   C100  A    
C77   H29   S    
C47   H34   S    
H76   O6    S    
N25   Ni4   S    
C57   H9    S    
C23   H56   S    
C109  O4    S    
C8    H66   S    
C71   H18   S    
C48   C52   A    
C6    N20   A    
C88   C89   A    
C110  H58   S    
C42   C77   S    
C73   H16   S    
C39   H4    S    
C40   C68   A    
C74   H17   S    
C72   C78   S    
C42   C66   A    
C10   H69   S    
C41   C45   A    
C22   C23   S    
C33   C38   S    
C73   H20   S    
C16   C64   S    
C30   C38   S    
C103  N6    A    
C59   H10   S    
C21   C105  A    
C85   C102  S    
C10   N25   A    
C29   O7    S    
C41   C70   A    
C104  H55   S    
C26   C30   S    
C15   C65   S    
