data_mof_unit_43257.cif
_audit_creation_date              2012-12-10T17:42:36-0500
_audit_creation_method            fapswitch 2.2
_symmetry_space_group_name_H-M    P1
_symmetry_Int_Tables_number       1
_space_group_crystal_system       triclinic
_cell_length_a                    9.937611
_cell_length_b                    10.690244
_cell_length_c                    13.189997
_cell_angle_alpha                 92.254642
_cell_angle_beta                  70.514155
_cell_angle_gamma                 89.519998
_cell_volume                      1319.62138797

loop_
_atom_site_label
_atom_site_type_symbol
_atom_type_description
_atom_site_fract_x
_atom_site_fract_y
_atom_site_fract_z
_atom_type_partial_charge
Br1   Br    Br    0.937721 0.738484 0.900418 -0.552831
C1    C     C_R   0.505639 0.737590 0.484037 0.896273
C2    C     C_R   0.373511 0.470699 0.818832 -0.123598
C3    C     C_R   0.256515 0.884410 0.464123 -0.137948
C4    C     C_R   0.421666 0.489781 0.702914 0.862765
C5    C     C_R   0.122854 0.942954 0.508790 -0.165237
C6    C     C_R   0.109337 0.055105 0.568343 -0.121087
C7    C     C_R   0.231230 0.113963 0.574750 -0.124673
C8    C     C_R   0.368737 0.060142 0.521449 0.087008
C9    C     C_R   0.378509 0.936726 0.481003 0.102031
C10   C     C_R   0.509004 0.869855 0.462620 -0.185764
C11   C     C_R   0.636698 0.934781 0.444986 -0.012054
C12   C     C_R   0.437725 0.464864 0.980834 0.086222
C13   C     C_R   0.629801 0.062528 0.464200 -0.245566
C14   C     C_R   0.497199 0.125252 0.504638 -0.144662
C15   C     C_R   0.784089 0.643492 0.654505 -0.200282
C16   C     C_R   0.497670 0.259858 0.505616 0.869299
C17   C     C_R   0.797836 0.683398 0.750586 -0.226696
C18   C     C_R   0.928356 0.673950 0.764211 0.230683
C19   C     C_R   0.049734 0.636119 0.675955 -0.117889
C20   C     C_R   0.033803 0.568782 0.582367 0.081297
C21   C     C_R   0.890914 0.570169 0.578036 0.171008
C22   C     C_R   0.962931 0.434000 0.424421 -0.115521
C23   C     C_R   0.472700 0.437430 0.869814 0.066127
C24   C     C_R   0.105923 0.434944 0.423798 -0.101054
C25   C     C_R   0.579114 0.500744 0.296427 0.861523
C26   C     C_R   0.795983 0.412378 0.011128 -0.149001
C27   C     C_R   0.627230 0.489513 0.179870 -0.043754
C28   C     C_R   0.231308 0.499342 0.881039 -0.157295
C29   C     C_R   0.190729 0.506902 0.992455 -0.115316
C30   C     C_R   0.292875 0.493214 0.042347 -0.186821
C31   C     C_1   0.171996 0.701162 0.683381 0.367975
C32   C     C_1   0.855475 0.332731 0.788227 0.154168
C33   C     C_1   0.775995 0.873991 0.401187 0.202316
C34   C     C_R   0.548706 0.462078 0.025797 0.062792
C35   C     C_R   0.688155 0.416902 0.963588 0.125598
C36   C     C_R   0.715069 0.374660 0.856636 -0.023022
C37   C     C_R   0.606465 0.379854 0.812482 -0.234703
C38   C     C_R   0.525126 0.506669 0.130783 -0.230615
C39   C     C_R   0.764420 0.445584 0.119641 -0.176907
H1    H     H_    0.845102 0.432581 0.157050 0.146044
H2    H     H_    0.187354 0.381309 0.361519 0.148596
H3    H     H_    0.902986 0.377983 0.966377 0.147533
H4    H     H_    0.425563 0.552623 0.177541 0.151911
H5    H     H_    0.152127 0.518563 0.843632 0.182010
H6    H     H_    0.254473 0.501774 0.129093 0.128938
H7    H     H_    0.080730 0.528634 0.040280 0.166034
H8    H     H_    0.628247 0.337956 0.732434 0.181602
H9    H     H_    0.263041 0.798961 0.415877 0.164649
H10   H     H_    0.029392 0.899621 0.499713 0.158172
H11   H     H_    0.004705 0.097746 0.606882 0.161053
H12   H     H_    0.216947 0.200455 0.622534 0.175530
H13   H     H_    0.728707 0.113062 0.446282 0.171521
H14   H     H_    0.937355 0.379595 0.362635 0.136673
H15   H     H_    0.686493 0.670111 0.644266 0.229084
H16   H     H_    0.707767 0.727816 0.812900 0.194069
N1    N     N_R   0.856860 0.501200 0.500990 -0.110347
N2    N     N_R   0.142450 0.501280 0.501020 -0.111809
N3    N     N_1   0.262971 0.758183 0.698101 -0.188211
N4    N     N_1   0.968758 0.300908 0.733709 -0.241839
N5    N     N_1   0.887161 0.825051 0.365627 -0.212989
O1    O     O_R   0.385310 0.683220 0.500000 -0.633914
O2    O     O_R   0.614640 0.683250 0.500010 -0.626001
O3    O     O_R   0.328400 0.499950 0.653610 -0.620122
O4    O     O_R   0.557730 0.499970 0.653620 -0.634476
O5    O     O_R   0.385360 0.316750 0.499990 -0.616661
O6    O     O_R   0.614690 0.316780 0.500000 -0.623232
O7    O     O_R   0.442270 0.500030 0.346380 -0.628661
O8    O     O_R   0.671600 0.500050 0.346390 -0.613448
Zn1   Zn    Zn3+2 0.346880 0.499980 0.499990 0.942600
Zn2   Zn    Zn3+2 0.653120 0.500020 0.500010 0.940900

loop_
_geom_bond_atom_site_label_1
_geom_bond_atom_site_label_2
_ccdc_geom_bond_type
C24   H2    S    
C18   C19   A    
C23   C37   A    
C10   C11   A    
C7    C8    A    
C38   H4    S    
O3    Zn1   S    
C26   C35   A    
C1    O2    A    
C8    C9    A    
C7    H12   S    
C25   C27   S    
C34   C35   A    
C27   C38   A    
C17   H16   S    
C26   C39   A    
C25   O7    A    
C13   H13   S    
C21   N1    A    
C2    C23   A    
C3    H9    S    
C6    H11   S    
C20   N2    A    
O5    Zn1   S    
C20   C21   A    
N1    Zn2   S    
O1    Zn1   S    
C2    C28   A    
C16   O5    A    
C28   C29   A    
C19   C31   S    
C22   N1    A    
C1    C10   S    
C15   C17   A    
C39   H1    S    
C36   C37   A    
O2    Zn2   S    
C4    O4    A    
C12   C34   A    
C32   N4    T    
O6    Zn2   S    
C22   C24   A    
C8    C14   A    
C29   C30   A    
C3    C9    A    
C32   C36   S    
C15   H15   S    
C3    C5    A    
Br1   C18   S    
C24   N2    A    
C27   C39   A    
C16   O6    A    
C11   C33   S    
C26   H3    S    
C29   H7    S    
C6    C7    A    
C34   C38   A    
C19   C20   A    
C12   C23   A    
C22   H14   S    
O7    Zn1   S    
C17   C18   A    
C9    C10   A    
C28   H5    S    
C14   C16   S    
C25   O8    A    
C13   C14   A    
C35   C36   A    
C15   C21   A    
C5    H10   S    
C31   N3    T    
O4    Zn2   S    
C37   H8    S    
C12   C30   A    
C33   N5    T    
N2    Zn1   S    
C5    C6    A    
C1    O1    A    
C4    O3    A    
C11   C13   A    
O8    Zn2   S    
C2    C4    S    
C30   H6    S    
