data_mof_unit_23898.cif
_audit_creation_date              2012-12-11T15:34:05-0500
_audit_creation_method            fapswitch 2.2
_symmetry_space_group_name_H-M    P1
_symmetry_Int_Tables_number       1
_space_group_crystal_system       triclinic
_cell_length_a                    15.016678
_cell_length_b                    15.061448
_cell_length_c                    34.892825
_cell_angle_alpha                 90.352433
_cell_angle_beta                  89.70153
_cell_angle_gamma                 60.246658
_cell_volume                      6850.99347039

loop_
_atom_site_label
_atom_site_type_symbol
_atom_type_description
_atom_site_fract_x
_atom_site_fract_y
_atom_site_fract_z
_atom_type_partial_charge
C1    C     C_R   0.301735 0.608218 0.555664 0.559402
C2    C     C_R   0.646668 0.646725 0.671830 0.040865
C3    C     C_R   0.286119 0.621232 0.265074 -0.123388
C4    C     C_R   0.198861 0.664575 0.288920 0.026174
C5    C     C_R   0.100946 0.715241 0.273138 -0.101837
C6    C     C_R   0.090159 0.719686 0.233617 -0.099540
C7    C     C_R   0.176934 0.676025 0.209546 0.046505
C8    C     C_R   0.257161 0.554586 0.345774 -0.120763
C9    C     C_R   0.277404 0.541623 0.384734 -0.125157
C10   C     C_R   0.200295 0.725534 0.393094 -0.122309
C11   C     C_R   0.178020 0.738516 0.354141 -0.118721
C12   C     C_R   0.210140 0.652719 0.330281 0.027512
C13   C     C_R   0.555691 0.712454 0.652583 -0.105578
C14   C     C_R   0.253054 0.626706 0.408375 0.025628
C15   C     C_R   0.735565 0.027050 0.943602 0.570092
C16   C     C_R   0.745137 0.722138 0.945383 0.560904
C17   C     C_R   0.039748 0.733392 0.948594 0.555226
C18   C     C_R   0.721607 0.041036 0.052449 0.574253
C19   C     C_R   0.732888 0.734230 0.054554 0.555353
C20   C     C_R   0.030117 0.743445 0.057266 0.574432
C21   C     C_R   0.546890 0.699383 0.613516 -0.120854
C22   C     C_R   0.657480 0.658098 0.791472 0.350074
C23   C     C_R   0.650851 0.650916 0.713945 0.341241
C24   C     C_R   0.734113 0.587379 0.854678 -0.132195
C25   C     C_R   0.755294 0.599966 0.892636 0.093469
C26   C     C_R   0.635688 0.782232 0.887870 -0.126805
C27   C     C_R   0.614247 0.769299 0.850043 0.264860
C28   C     C_R   0.666044 0.671429 0.832849 0.020462
C29   C     C_R   0.610450 0.588089 0.555365 0.542852
C30   C     C_R   0.709879 0.699429 0.908982 -0.013434
C31   C     C_R   0.721329 0.078367 0.906291 0.049360
C32   C     C_R   0.642663 0.086174 0.882500 -0.171859
C33   C     C_R   0.640032 0.110963 0.844237 -0.157014
C34   C     C_R   0.714977 0.129622 0.828827 -0.010028
C35   C     C_R   0.787370 0.133271 0.852923 -0.100055
C36   C     C_R   0.792572 0.106241 0.892077 0.276809
C37   C     C_R   0.711856 0.226934 0.770650 -0.121031
C38   C     C_R   0.702854 0.239279 0.730983 -0.126193
C39   C     C_R   0.702692 0.163238 0.707535 0.051568
C40   C     C_R   0.590152 0.300557 0.553696 0.571404
C41   C     C_R   0.716894 0.072054 0.723796 0.133618
C42   C     C_R   0.724639 0.060781 0.763434 -0.079395
C43   C     C_R   0.719553 0.138881 0.787077 0.008228
C44   C     C_R   0.575787 0.223007 0.654672 0.106348
C45   C     C_R   0.550808 0.252001 0.616662 -0.143822
C46   C     C_R   0.727466 0.206686 0.602759 0.261057
C47   C     C_R   0.753003 0.173749 0.640783 -0.114114
C48   C     C_R   0.677120 0.185105 0.666940 0.012398
C49   C     C_R   0.624899 0.247289 0.590677 0.013784
C50   C     C_R   0.095973 0.696916 0.911714 0.030484
C51   C     C_R   0.300780 0.609933 0.446050 0.546487
C52   C     C_R   0.107341 0.768345 0.889360 -0.134248
C53   C     C_R   0.132476 0.749919 0.850710 -0.087295
C54   C     C_R   0.148439 0.659088 0.833780 0.067875
C55   C     C_R   0.148806 0.582455 0.856323 -0.062073
C56   C     C_R   0.123473 0.600141 0.895347 0.086632
C57   C     C_R   0.256557 0.592871 0.775234 0.260324
C58   C     C_R   0.266212 0.590103 0.735251 -0.095833
C59   C     C_R   0.179059 0.639854 0.712221 -0.039731
C60   C     C_R   0.081494 0.692551 0.729097 -0.094088
C61   C     C_R   0.070731 0.696084 0.768914 0.067566
C62   C     C_R   0.607877 0.589513 0.445110 0.546323
C63   C     C_R   0.158612 0.647828 0.792056 0.039621
C64   C     C_R   0.160579 0.725306 0.649435 -0.080219
C65   C     C_R   0.189365 0.719714 0.610836 0.088469
C66   C     C_R   0.272849 0.534215 0.613948 -0.144114
C67   C     C_R   0.244953 0.540662 0.652216 -0.121301
C68   C     C_R   0.191948 0.635777 0.670482 0.006511
C69   C     C_R   0.249970 0.622804 0.593163 0.026070
C70   C     C_R   0.689603 0.717984 0.090094 0.011607
C71   C     C_R   0.612322 0.802130 0.110353 -0.114203
C72   C     C_R   0.587985 0.790867 0.147935 -0.110973
C73   C     C_R   0.588149 0.302745 0.443703 0.547405
C74   C     C_R   0.640145 0.695507 0.165615 0.060449
C75   C     C_R   0.709651 0.608819 0.144209 0.132806
C76   C     C_R   0.734100 0.620528 0.106584 -0.065085
C77   C     C_R   0.556911 0.680859 0.225109 -0.108815
C78   C     C_R   0.553690 0.674817 0.264950 -0.133104
C79   C     C_R   0.629234 0.678329 0.287364 0.019824
C80   C     C_R   0.706279 0.690724 0.269779 -0.048003
C81   C     C_R   0.709151 0.698167 0.230031 0.100714
C82   C     C_R   0.635166 0.691301 0.207483 0.049228
C83   C     C_R   0.547787 0.730971 0.351753 -0.169954
C84   C     C_R   0.628845 0.620129 0.593043 0.022303
C85   C     C_R   0.544098 0.711386 0.390550 -0.141105
C86   C     C_R   0.709874 0.557431 0.384730 -0.107715
C87   C     C_R   0.713129 0.575822 0.345572 0.271806
C88   C     C_R   0.631148 0.662776 0.328959 0.026008
C89   C     C_R   0.623610 0.622736 0.407171 -0.023381
C90   C     C_R   0.694124 0.107287 0.087266 -0.020897
C91   C     C_R   0.758740 0.144436 0.100697 0.039138
C92   C     C_R   0.746442 0.183433 0.137955 -0.106363
C93   C     C_R   0.674113 0.182069 0.162917 0.043030
C94   C     C_R   0.606406 0.150216 0.149382 0.292034
C95   C     C_R   0.722809 0.560542 0.611534 -0.133083
C96   C     C_R   0.609420 0.123250 0.110665 0.068001
C97   C     C_R   0.584079 0.275819 0.222862 0.290729
C98   C     C_R   0.581750 0.281453 0.263112 -0.145108
C99   C     C_R   0.666995 0.213602 0.284612 -0.066699
C100  C     C_R   0.759056 0.146415 0.265817 -0.123806
C101  C     C_R   0.763702 0.140872 0.225795 0.219749
C102  C     C_R   0.675328 0.203677 0.204222 0.082281
C103  C     C_R   0.732763 0.216453 0.350076 -0.126599
C104  C     C_R   0.714122 0.236548 0.389296 -0.127556
C105  C     C_R   0.551499 0.240629 0.382845 -0.128204
C106  C     C_R   0.731594 0.573555 0.650641 -0.116988
C107  C     C_R   0.569660 0.221789 0.343685 -0.119409
C108  C     C_R   0.658018 0.214566 0.326730 0.039056
C109  C     C_R   0.621063 0.253518 0.405672 0.024126
C110  C     C_R   0.091727 0.705356 0.092509 -0.005508
C111  C     C_R   0.076468 0.639494 0.116895 0.229326
C112  C     C_R   0.109762 0.627649 0.154577 -0.144761
C113  C     C_R   0.162442 0.675863 0.168063 -0.060001
C114  C     C_R   0.191080 0.729910 0.142711 0.098992
C115  C     C_R   0.157616 0.742702 0.104384 0.074736
C116  C     C_R   0.275171 0.627293 0.225403 -0.093167
Cr1   Cr    Cr6+3 0.421670 0.426920 0.499620 1.023326
Cr2   Cr    Cr6+3 0.427030 0.651190 0.500980 1.045883
Cr3   Cr    Cr6+3 0.651280 0.421870 0.499380 1.018109
Cr4   Cr    Cr6+3 0.910810 0.908010 0.001130 1.094676
Cr5   Cr    Cr6+3 0.682800 0.909890 0.998370 1.061829
Cr6   Cr    Cr6+3 0.908370 0.682300 0.002180 1.092342
H1    H     H_    0.787770 0.499846 0.596323 0.122541
H2    H     H_    0.831520 0.141343 0.650263 0.129126
H3    H     H_    0.691729 0.309888 0.718653 0.122420
H4    H     H_    0.707803 0.287833 0.788568 0.119382
H5    H     H_    0.580812 0.112798 0.826176 0.119808
H6    H     H_    0.731860 0.992019 0.775998 0.148805
H7    H     H_    0.471586 0.284230 0.608140 0.152430
H8    H     H_    0.840926 0.153681 0.840611 0.099479
H9    H     H_    0.473591 0.746964 0.600026 0.150879
H10   H     H_    0.089863 0.842031 0.900982 0.133477
H11   H     H_    0.268368 0.471030 0.668082 0.156063
H12   H     H_    0.341826 0.551538 0.722097 0.132771
H13   H     H_    0.134287 0.808718 0.833536 0.131973
H14   H     H_    0.013988 0.730177 0.711334 0.170286
H15   H     H_    0.117940 0.799269 0.663489 0.144865
H16   H     H_    0.165034 0.510488 0.843233 0.135520
H17   H     H_    0.318233 0.458688 0.601385 0.142927
H18   H     H_    0.575985 0.877921 0.098233 0.166192
H19   H     H_    0.791515 0.554272 0.090964 0.146628
H20   H     H_    0.494134 0.664515 0.278256 0.116231
H21   H     H_    0.499510 0.675935 0.208009 0.157247
H22   H     H_    0.533704 0.857696 0.164151 0.122843
H23   H     H_    0.764387 0.694069 0.286994 0.154549
H24   H     H_    0.803437 0.523053 0.664518 0.138844
H25   H     H_    0.484099 0.797778 0.339194 0.124236
H26   H     H_    0.476370 0.763041 0.407016 0.144906
H27   H     H_    0.771942 0.488480 0.396803 0.138299
H28   H     H_    0.512280 0.217603 0.326284 0.100670
H29   H     H_    0.513302 0.338284 0.277903 0.097683
H30   H     H_    0.489462 0.770948 0.667971 0.148465
H31   H     H_    0.797215 0.210036 0.148190 0.197607
H32   H     H_    0.826425 0.095763 0.282092 0.131625
H33   H     H_    0.802314 0.209202 0.337663 0.098430
H34   H     H_    0.769549 0.245299 0.406246 0.125894
H35   H     H_    0.479497 0.252419 0.394607 0.127320
H36   H     H_    0.140865 0.814744 0.342263 0.115631
H37   H     H_    0.772139 0.511465 0.841946 0.153810
H38   H     H_    0.362287 0.581652 0.277206 0.104885
H39   H     H_    0.342824 0.591865 0.207159 0.152732
H40   H     H_    0.089952 0.584112 0.174024 0.161791
H41   H     H_    0.033211 0.748107 0.291371 0.119308
H42   H     H_    0.014038 0.755207 0.221763 0.134589
H43   H     H_    0.281208 0.487991 0.327466 0.104181
H44   H     H_    0.319012 0.464492 0.395691 0.130665
H45   H     H_    0.181154 0.792035 0.410824 0.132703
H46   H     H_    0.597541 0.858999 0.899851 0.149777
H47   H     H_    0.586192 0.066959 0.892779 0.147425
N1    N     N_R   0.741199 0.590488 0.770958 -0.224142
N2    N     N_R   0.737820 0.586687 0.732926 -0.225019
N3    N     N_R   0.566554 0.716919 0.734567 -0.233076
N4    N     N_R   0.569910 0.720672 0.772568 -0.158933
O1    O     O_R   0.502070 0.323090 0.541280 -0.526390
O2    O     O_R   0.520720 0.641670 0.461580 -0.497053
O3    O     O_R   0.674120 0.502090 0.457500 -0.523436
O4    O     O_R   0.640110 0.338380 0.459630 -0.501276
O5    O     O_3   0.499990 0.499990 0.499990 -0.251118
O6    O     O_R   0.017640 0.822070 0.960410 -0.525099
O7    O     O_R   0.822000 0.989470 0.960340 -0.447348
O8    O     O_R   0.666920 0.007430 0.955290 -0.527263
O9    O     O_R   0.694410 0.812480 0.959650 -0.513940
O10   O     O_R   0.831550 0.656950 0.958960 -0.458201
O11   O     O_R   0.998590 0.685540 0.963930 -0.468917
O12   O     O_R   0.338340 0.520690 0.539540 -0.511134
O13   O     O_R   0.008220 0.831200 0.045060 -0.482351
O14   O     O_R   0.813270 0.997930 0.038810 -0.469200
O15   O     O_R   0.657500 0.016560 0.039940 -0.478577
O16   O     O_R   0.685680 0.820940 0.038120 -0.494760
O17   O     O_R   0.822130 0.666070 0.043610 -0.496922
O18   O     O_R   0.989860 0.694000 0.042400 -0.456338
O19   O     O_3   0.833990 0.833400 0.000560 -0.275357
O20   O     O_R   0.324760 0.674070 0.543580 -0.475955
O21   O     O_R   0.522400 0.640310 0.540110 -0.497609
O22   O     O_R   0.675940 0.500630 0.542210 -0.532220
O23   O     O_R   0.641790 0.337020 0.538150 -0.462193
O24   O     O_R   0.500260 0.324550 0.456580 -0.518555
O25   O     O_R   0.336660 0.522040 0.461020 -0.503934
O26   O     O_R   0.322940 0.675540 0.458880 -0.509870
O27   O     O_3   0.860809 0.111092 0.917831 -0.532122
C117  C     C_3   0.956073 0.086250 0.900835 -0.010446
H48   H     H_    0.949632 0.153618 0.885467 0.151973
H49   H     H_    0.983828 0.019617 0.880806 0.115461
C118  C     C_3   0.035266 0.058611 0.932210 -0.328064
H50   H     H_    0.042610 0.992625 0.948768 0.182893
H51   H     H_    0.110939 0.037806 0.919263 0.109360
H52   H     H_    0.011653 0.124785 0.951996 0.192436
I1    I     I_    0.722437 0.951240 0.690341 -0.337664
I2    I     I_    0.455462 0.245756 0.692900 -0.460843
O28   O     O_3   0.802531 0.195241 0.576695 -0.529174
C119  C     C_3   0.845941 0.255493 0.588328 0.005122
H53   H     H_    0.900397 0.218293 0.612223 0.130490
H54   H     H_    0.785843 0.333887 0.597434 0.131480
C120  C     C_3   0.905275 0.265799 0.554827 -0.333450
H55   H     H_    0.853208 0.302524 0.530299 0.176960
H56   H     H_    0.939154 0.313649 0.563527 0.090446
H57   H     H_    0.967923 0.189135 0.545711 0.170606
I3    I     I_    0.129474 0.476271 0.926335 -0.299148
O29   O     O_3   0.342402 0.550889 0.798271 -0.548205
C121  C     C_3   0.394863 0.443390 0.794164 -0.010756
H58   H     H_    0.436775 0.419723 0.766261 0.157312
H59   H     H_    0.341459 0.412103 0.796341 0.138359
C122  C     C_3   0.472718 0.397083 0.826074 -0.347491
H60   H     H_    0.433260 0.419368 0.854412 0.177343
H61   H     H_    0.513556 0.312688 0.823295 0.118665
H62   H     H_    0.529369 0.423971 0.824196 0.167153
I4    I     I_    0.920065 0.774036 0.792590 -0.435823
I5    I     I_    0.854112 0.463170 0.922331 -0.287971
I6    I     I_    0.137821 0.860607 0.582090 -0.344991
O30   O     O_3   0.795228 0.507054 0.323260 -0.555786
C123  C     C_3   0.777877 0.426558 0.312225 -0.013285
H63   H     H_    0.702746 0.455986 0.297542 0.146790
H64   H     H_    0.779691 0.381548 0.337664 0.122385
C124  C     C_3   0.861837 0.355639 0.284404 -0.339882
H65   H     H_    0.937731 0.321918 0.298501 0.158194
H66   H     H_    0.847875 0.292994 0.275072 0.119991
H67   H     H_    0.862301 0.398942 0.258835 0.206991
I7    I     I_    0.826819 0.719822 0.205684 -0.488489
I8    I     I_    0.785901 0.460481 0.168305 -0.384353
I9    I     I_    0.875355 0.149146 0.067270 -0.260095
I10   I     I_    0.477312 0.118040 0.090372 -0.338696
O31   O     O_3   0.501083 0.342398 0.200643 -0.530458
C125  C     C_3   0.407377 0.354112 0.214888 0.017272
H68   H     H_    0.375786 0.414274 0.237515 0.112244
H69   H     H_    0.415982 0.281807 0.226859 0.155541
C126  C     C_3   0.330657 0.386998 0.182346 -0.338369
H70   H     H_    0.356809 0.325113 0.160433 0.209421
H71   H     H_    0.254538 0.403814 0.193647 0.092419
H72   H     H_    0.323103 0.456559 0.168553 0.162656
O32   O     O_3   0.855606 0.075114 0.207715 -0.555027
C127  C     C_3   0.861942 0.979313 0.201841 -0.017676
H73   H     H_    0.787702 0.985942 0.193123 0.128917
H74   H     H_    0.887810 0.934084 0.228594 0.145202
C128  C     C_3   0.938983 0.922518 0.169804 -0.344166
H75   H     H_    0.016168 0.907759 0.178385 0.196159
H76   H     H_    0.941812 0.848825 0.163591 0.126610
H77   H     H_    0.916158 0.968595 0.143275 0.185181
O33   O     O_3   0.535990 0.147037 0.174341 -0.547975
C129  C     C_3   0.564676 0.044525 0.183138 -0.016050
H78   H     H_    0.637751 0.985309 0.169365 0.126805
H79   H     H_    0.502922 0.030005 0.173233 0.175848
C130  C     C_3   0.573753 0.030001 0.226352 -0.387472
H80   H     H_    0.500407 0.085151 0.240647 0.151519
H81   H     H_    0.591731 0.951009 0.233367 0.129289
H82   H     H_    0.635966 0.042301 0.237374 0.145906
O34   O     O_3   0.019310 0.595070 0.105527 -0.515677
C131  C     C_3   0.087560 0.490824 0.097062 0.006154
H83   H     H_    0.133615 0.449860 0.122597 0.127382
H84   H     H_    0.140335 0.482907 0.073042 0.144839
C132  C     C_3   0.026722 0.439496 0.085006 -0.325210
H85   H     H_    0.981039 0.476957 0.059142 0.182741
H86   H     H_    0.079995 0.357564 0.078244 0.129625
H87   H     H_    0.974570 0.444749 0.108669 0.184897
I11   I     I_    0.211974 0.813141 0.064380 -0.238323
I12   I     I_    0.273439 0.802357 0.163609 -0.359996
O35   O     O_3   0.542134 0.853130 0.830139 -0.536449
C133  C     C_3   0.591326 0.901045 0.812087 -0.008832
H88   H     H_    0.656936 0.846315 0.793704 0.177116
H89   H     H_    0.619938 0.934758 0.833854 0.128029
C134  C     C_3   0.514518 0.985771 0.786564 -0.335832
H90   H     H_    0.450104 0.044420 0.804192 0.159951
H91   H     H_    0.552224 0.022660 0.771186 0.129141
H92   H     H_    0.483792 0.953537 0.765050 0.204970

loop_
_geom_bond_atom_site_label_1
_geom_bond_atom_site_label_2
_ccdc_geom_bond_type
Cr1   O1    S    
C8    C9    A    
C40   O1    A    
C55   C56   A    
C45   H7    S    
C101  C102  A    
Cr2   O20   S    
C131  H84   S    
C41   C42   A    
C39   C48   S    
C75   I8    S    
C101  O32   S    
C53   H13   S    
C85   H26   S    
C32   H47   S    
C129  C130  S    
C22   N4    A    
C20   O18   A    
C56   I3    S    
C97   C98   A    
C90   C91   A    
C122  H62   S    
C127  H73   S    
C39   C41   A    
C94   O33   S    
C77   C78   A    
C58   H12   S    
C99   C108  S    
C105  C107  A    
C46   C49   A    
C26   H46   S    
C26   C27   A    
C61   I4    S    
C55   H16   S    
Cr1   O5    S    
C100  C101  A    
C5    H41   S    
C9    H44   S    
C67   H11   S    
Cr4   O6    S    
C134  H91   S    
Cr3   O23   S    
C3    C116  A    
Cr4   O19   S    
Cr5   O16   S    
C5    C6    A    
C34   C35   A    
C131  C132  S    
C120  H56   S    
C127  H74   S    
C66   C69   A    
C54   C63   S    
C95   H1    S    
C40   C49   S    
C62   C89   S    
C18   O14   A    
C33   H5    S    
C132  H86   S    
C81   I7    S    
C15   C31   S    
C44   I2    S    
C117  H48   S    
C24   H37   S    
C61   C63   A    
C2    C13   A    
C110  C111  A    
C112  C113  A    
C128  H76   S    
C115  I11   S    
C8    H43   S    
C97   O31   S    
C54   C55   A    
C107  H28   S    
C21   H9    S    
C66   H17   S    
C14   C51   S    
C10   H45   S    
C125  H69   S    
C73   O24   A    
C91   I9    S    
C50   C52   A    
C107  C108  A    
C134  H92   S    
C57   C63   A    
C70   C71   A    
Cr3   O5    S    
C47   H2    S    
C4    C12   S    
C24   C28   A    
C29   O21   A    
C60   H14   S    
C130  H80   S    
Cr3   O22   S    
C97   C102  A    
C42   H6    S    
C126  H70   S    
C73   O4    A    
C76   H19   S    
C17   O6    A    
Cr6   O11   S    
C66   C67   A    
C37   H4    S    
C77   C82   A    
C59   C60   A    
C22   C28   S    
C15   O7    A    
C117  H49   S    
C132  H87   S    
C126  H72   S    
C124  H66   S    
C130  H82   S    
Cr2   O26   S    
C121  H59   S    
C121  H58   S    
C103  C104  A    
C114  I12   S    
Cr6   O17   S    
C21   C84   A    
C126  H71   S    
C64   H15   S    
Cr5   O19   S    
C105  H35   S    
C16   O10   A    
C44   C45   A    
C74   C75   A    
C23   N3    A    
C67   C68   A    
C18   C90   S    
C36   O27   S    
C116  H39   S    
Cr6   O18   S    
C24   C25   A    
C111  O34   S    
C122  H60   S    
C72   C74   A    
C10   C14   A    
C86   H27   S    
C91   C92   A    
C9    C14   A    
C85   C89   A    
C120  H55   S    
O27   C117  S    
C127  C128  S    
C130  H81   S    
C57   O29   S    
C128  H77   S    
C58   C59   A    
C53   C54   A    
C90   C96   A    
C2    C106  A    
C81   C82   A    
C3    C4    A    
C51   O26   A    
C86   C89   A    
C60   C61   A    
C124  H67   S    
C52   H10   S    
C7    C116  A    
C37   C43   A    
C1    O20   A    
C75   C76   A    
C77   H21   S    
C119  H53   S    
C37   C38   A    
C51   O25   A    
Cr3   O3    S    
C31   C36   A    
C29   O22   A    
C124  H65   S    
C47   C48   A    
C118  H52   S    
C45   C49   A    
C8    C12   A    
C125  C126  S    
C62   O3    A    
C2    C23   S    
O31   C125  S    
C13   C21   A    
C123  H64   S    
C93   C94   A    
C22   N1    A    
C52   C53   A    
C134  H90   S    
C94   C96   A    
C35   H8    S    
C6    C7    A    
C79   C88   S    
C29   C84   S    
C20   C110  S    
Cr2   O5    S    
C103  H33   S    
C80   H23   S    
C83   C85   A    
C19   O16   A    
Cr2   O2    S    
C98   C99   A    
C133  H89   S    
C70   C76   A    
C3    H38   S    
C19   C70   S    
C117  C118  S    
C83   H25   S    
C104  H34   S    
C42   C43   A    
C129  H78   S    
Cr4   O14   S    
C64   C68   A    
O29   C121  S    
C38   H3    S    
Cr1   O24   S    
N3    N4    A    
C86   C87   A    
Cr5   O8    S    
C113  C114  A    
C40   O23   A    
C100  H32   S    
C25   C30   A    
C72   H22   S    
C105  C109  A    
C46   C47   A    
Cr6   O10   S    
C111  C112  A    
C119  H54   S    
C132  H85   S    
C93   C102  S    
C31   C32   A    
C34   C43   S    
C92   H31   S    
C13   H30   S    
C6    H42   S    
C80   C81   A    
C129  H79   S    
C120  H57   S    
Cr4   O13   S    
C17   C50   S    
C95   C106  A    
C11   C12   A    
C122  H61   S    
C114  C115  A    
C71   H18   S    
C1    O12   A    
C87   O30   S    
C112  H40   S    
C25   I5    S    
C106  H24   S    
C99   C100  A    
C65   I6    S    
C131  H83   S    
C32   C33   A    
C7    C113  S    
C128  H75   S    
C78   H20   S    
O33   C129  S    
O32   C127  S    
C98   H29   S    
C46   O28   S    
C50   C56   A    
C64   C65   A    
Cr5   O15   S    
C118  H51   S    
O35   C133  S    
C78   C79   A    
C17   O11   A    
C57   C58   A    
C38   C39   A    
Cr6   O19   S    
C41   I1    S    
C26   C30   A    
C65   C69   A    
C62   O2    A    
C15   O8    A    
C18   O15   A    
C92   C93   A    
C33   C34   A    
C83   C88   A    
C123  C124  S    
C16   O9    A    
C73   C109  S    
Cr4   O7    S    
O30   C123  S    
Cr2   O21   S    
C1    C69   S    
C96   I10   S    
C103  C108  A    
C10   C11   A    
C19   O17   A    
C20   O13   A    
C79   C80   A    
C44   C48   A    
C4    C5    A    
C119  C120  S    
C71   C72   A    
C118  H50   S    
C87   C88   A    
O28   C119  S    
N1    N2    A    
C133  C134  S    
O34   C131  S    
C123  H63   S    
C104  C109  A    
Cr5   O9    S    
C59   C68   S    
Cr1   O12   S    
C35   C36   A    
Cr3   O4    S    
C133  H88   S    
C16   C30   S    
C110  C115  A    
C84   C95   A    
C121  C122  S    
C74   C82   S    
Cr1   O25   S    
C125  H68   S    
C11   H36   S    
C27   O35   S    
C27   C28   A    
C23   N2    A    
