data_mof_unit_38683.cif
_audit_creation_date              2012-12-11T16:27:21-0500
_audit_creation_method            fapswitch 2.2
_symmetry_space_group_name_H-M    P1
_symmetry_Int_Tables_number       1
_space_group_crystal_system       triclinic
_cell_length_a                    8.508507
_cell_length_b                    17.763875
_cell_length_c                    18.843189
_cell_angle_alpha                 96.967054
_cell_angle_beta                  91.75403
_cell_angle_gamma                 97.503567
_cell_volume                      2799.67421326

loop_
_atom_site_label
_atom_site_type_symbol
_atom_type_description
_atom_site_fract_x
_atom_site_fract_y
_atom_site_fract_z
_atom_type_partial_charge
Ba1   Ba    Ba6+2 0.848080 0.535720 0.465810 1.762365
Ba2   Ba    Ba6+2 0.341750 0.464340 0.534200 1.782878
C1    C     C_3   0.716374 0.794706 0.238047 0.332693
C2    C     C_3   0.397259 0.563903 0.251025 -0.090035
C3    C     C_2   0.357744 0.545753 0.170877 0.373934
C4    C     C_3   0.164386 0.711003 0.270439 0.326582
C5    C     C_2   0.206820 0.512220 0.148839 -0.125788
C6    C     C_2   0.103276 0.478739 0.204269 -0.167410
C7    C     C_1   0.160862 0.477024 0.270806 0.044907
C8    C     C_R   0.037069 0.500000 0.932495 0.486710
C9    C     C_R   0.143593 0.508926 0.072515 0.453224
C10   C     C_R   0.081763 0.527997 0.804637 -0.089624
C11   C     C_R   0.032525 0.519846 0.731642 0.025011
C12   C     C_3   0.677953 0.729337 0.283079 0.245808
C13   C     C_R   0.783306 0.444037 0.757966 -0.073916
C14   C     C_R   0.832082 0.452623 0.830807 -0.051823
C15   C     C_R   0.983142 0.493369 0.855073 0.014270
C16   C     C_3   0.120046 0.720682 0.193219 0.316001
C17   C     C_R   0.887119 0.477040 0.710937 -0.183688
C18   C     C_R   0.426591 0.716774 0.460761 -0.351386
C19   C     C_R   0.572743 0.744154 0.498681 0.013305
C20   C     C_R   0.625620 0.826314 0.505605 0.371895
C21   C     C_R   0.527992 0.875530 0.475846 -0.046097
C22   C     C_R   0.380047 0.845229 0.443305 -0.096128
C23   C     C_3   0.378144 0.288852 0.311172 0.704217
C24   C     C_R   0.327600 0.767024 0.436801 -0.045960
C25   C     C_R   0.578336 0.162046 0.472798 -0.074983
C26   C     C_R   0.637021 0.240450 0.477861 0.056193
C27   C     C_R   0.880811 0.217993 0.538899 -0.074830
C28   C     C_3   0.214900 0.690424 0.603612 0.269494
C29   C     C_R   0.823606 0.139064 0.532558 -0.138746
C30   C     C_R   0.672675 0.110358 0.498661 0.009915
C31   C     C_1   0.616656 0.028069 0.489101 0.121859
C32   C     C_1   0.573597 0.959105 0.482005 0.220281
C33   C     C_R   0.789617 0.265732 0.506677 0.236311
C34   C     C_3   0.281857 0.209851 0.315448 0.351807
C35   C     C_3   0.250632 0.777752 0.610359 -0.406893
C36   C     C_3   0.868913 0.297891 0.294206 0.671845
C37   C     C_3   0.893292 0.269584 0.215727 -0.301646
C38   C     C_3   0.644282 0.708249 0.707617 0.897855
C39   C     C_3   0.531040 0.757881 0.747647 0.427867
C40   C     C_3   0.889030 0.182932 0.343668 0.262692
C41   C     C_3   0.921104 0.746987 0.736069 0.260050
C42   C     C_3   0.664796 0.582201 0.686631 0.365263
C43   C     C_3   0.682396 0.165154 0.901813 0.294734
C44   C     C_3   0.535559 0.519128 0.086526 0.263434
C45   C     C_3   0.015909 0.221934 0.709517 0.679945
C46   C     C_3   0.842875 0.384327 0.560820 0.443844
C47   C     C_3   0.984029 0.138361 0.723648 -0.152836
C48   C     C_3   0.582207 0.266777 0.751674 0.774497
C49   C     C_3   0.582847 0.242986 0.827251 0.328752
C50   C     C_2   0.308679 0.505057 0.291640 -0.187951
H1    H     H_    0.749154 0.742077 0.334596 0.096399
H2    H     H_    0.483932 0.728588 0.793018 0.034789
H3    H     H_    0.428457 0.762160 0.713531 -0.029851
H4    H     H_    0.550160 0.724990 0.294432 -0.048717
H5    H     H_    0.312261 0.334315 0.336149 -0.108670
H6    H     H_    0.257623 0.203504 0.371948 -0.070632
H7    H     H_    0.168401 0.208795 0.286174 -0.023254
H8    H     H_    0.643546 0.782383 0.187067 0.097919
H9    H     H_    0.904313 0.238922 0.688753 -0.104337
H10   H     H_    0.887695 0.130468 0.761193 0.171528
H11   H     H_    0.949758 0.100323 0.673052 0.097668
H12   H     H_    0.206578 0.804665 0.660801 0.142009
H13   H     H_    0.090304 0.119720 0.747808 0.163691
H14   H     H_    0.705329 0.287795 0.739454 -0.132949
H15   H     H_    0.628328 0.294428 0.865718 -0.022966
H16   H     H_    0.142833 0.648752 0.275111 -0.108355
H17   H     H_    0.459613 0.222594 0.840218 0.110002
H18   H     H_    0.980091 0.456517 0.189822 0.111135
H19   H     H_    0.195994 0.560525 0.821752 0.108713
H20   H     H_    0.751417 0.429482 0.868464 0.076847
H21   H     H_    0.369600 0.482676 0.334387 0.065784
H22   H     H_    0.843047 0.481643 0.659229 -0.075240
H23   H     H_    0.379799 0.796474 0.608810 0.088671
H24   H     H_    0.462308 0.141307 0.447526 0.120629
H25   H     H_    0.302746 0.883179 0.424283 0.156594
H26   H     H_    0.897008 0.100067 0.552254 0.130407
H27   H     H_    0.291944 0.732582 0.281638 0.008642
H28   H     H_    0.381827 0.656405 0.455931 0.071068
H29   H     H_    0.183346 0.682576 0.156466 0.007806
H30   H     H_    0.990993 0.702955 0.181940 0.030563
H31   H     H_    0.314281 0.664704 0.578326 0.010163
H32   H     H_    0.106367 0.673600 0.568425 0.102554
H33   H     H_    0.818059 0.139093 0.370752 0.076698
H34   H     H_    0.193809 0.799611 0.564965 0.136329
H35   H     H_    0.990707 0.207879 0.381011 0.026469
H36   H     H_    0.923688 0.151610 0.293353 0.065794
H37   H     H_    0.918554 0.809282 0.737840 0.132555
H38   H     H_    0.949167 0.721844 0.682194 0.069040
H39   H     H_    0.017650 0.738825 0.774105 0.074534
H40   H     H_    0.778320 0.601587 0.662179 -0.107484
H41   H     H_    0.608015 0.533746 0.649548 0.108734
H42   H     H_    0.689335 0.568472 0.741042 0.033775
H43   H     H_    0.789875 0.901793 0.869266 0.372879
H44   H     H_    0.704001 0.000752 0.259061 0.382134
H45   H     H_    0.780008 0.337041 0.290929 0.128464
H46   H     H_    0.257910 0.335392 0.134371 0.363994
H47   H     H_    0.332517 0.052180 0.177653 0.385416
H48   H     H_    0.388935 0.883819 0.147548 0.393371
H49   H     H_    0.125865 0.376573 0.731144 0.309457
H50   H     H_    0.591314 0.078851 0.649227 0.380954
H51   H     H_    0.757436 0.118818 0.903962 0.100532
H52   H     H_    0.561711 0.143230 0.917692 0.056120
H53   H     H_    0.736430 0.214760 0.940552 0.065569
H54   H     H_    0.619653 0.545196 0.049676 0.080582
H55   H     H_    0.448576 0.475688 0.053582 0.033169
H56   H     H_    0.926599 0.319068 0.186095 0.093587
H57   H     H_    0.604740 0.490096 0.123107 0.086604
H58   H     H_    0.984094 0.861896 0.628948 0.344167
H59   H     H_    0.842591 0.356328 0.610896 -0.257047
H60   H     H_    0.748827 0.418528 0.561746 0.065686
H61   H     H_    0.939193 0.428892 0.561196 0.127248
H62   H     H_    0.781030 0.237357 0.190486 0.173903
H63   H     H_    0.985475 0.231292 0.209746 0.152609
H64   H     H_    0.842900 0.799868 0.225233 0.105119
N1    N     N_R   0.164548 0.550882 0.959089 -0.227903
N2    N     N_R   0.215707 0.555459 0.027345 -0.183059
N3    N     N_R   0.014070 0.458895 0.046302 -0.241491
N4    N     N_R   0.962095 0.454574 0.977969 -0.221577
O1    O     O_2   0.870670 0.457200 0.328780 -0.467651
O2    O     O_2   0.201285 0.229494 0.532090 -0.416600
O3    O     O_3   0.139800 0.229253 0.662014 -0.534381
O4    O     O_3   0.123190 0.458470 0.416160 -0.466737
O5    O     O_3   0.570980 0.591910 0.535630 -0.520576
O6    O     O_2   0.357950 0.313790 0.466200 -0.477753
O7    O     O_3   0.528893 0.295723 0.344668 -0.620294
O8    O     O_2   0.465578 0.465326 0.754379 -0.443972
O9    O     O_3   0.478091 0.321847 0.748737 -0.556431
O10   O     O_3   0.645490 0.595990 0.371560 -0.492690
O11   O     O_2   0.700552 0.515492 0.249416 -0.427398
O12   O     O_3   0.686309 0.734246 0.641340 -0.629357
O13   O     O_3   0.012529 0.333226 0.331745 -0.655634
O14   O     O_3   0.716804 0.661667 0.244857 -0.612963
O15   O     O_2   0.831760 0.686240 0.533840 -0.427680
O16   O     O_3   0.064740 0.635370 0.406810 -0.503169
O17   O     O_2   0.001571 0.772217 0.451517 -0.387625
O18   O     O_3   0.792608 0.238788 0.330381 -0.622493
O19   O     O_3   0.777012 0.709880 0.757327 -0.680709
O20   O     O_3   0.559766 0.635593 0.694037 -0.702734
O21   O     O_2   0.699340 0.893513 0.729024 -0.251368
O22   O     O_2   0.484670 0.895516 0.812269 -0.258254
O23   O     O_3   0.071377 0.751165 0.318076 -0.558072
O24   O     O_3   0.744277 0.847957 0.853388 -0.483509
O25   O     O_2   0.508964 0.880383 0.301652 -0.282391
O26   O     O_2   0.784269 0.903081 0.351056 -0.268264
O27   O     O_3   0.723726 0.952674 0.230323 -0.447931
O28   O     O_2   0.512929 0.380818 0.220803 -0.353317
O29   O     O_2   0.476947 0.244443 0.178084 -0.223533
O30   O     O_3   0.230151 0.315723 0.180009 -0.579816
O31   O     O_2   0.541263 0.140338 0.279732 -0.269543
O32   O     O_2   0.312193 0.062107 0.320820 -0.265465
O33   O     O_3   0.292858 0.101309 0.193097 -0.431927
O34   O     O_2   0.319030 0.542820 0.671260 -0.411076
O35   O     O_2   0.072485 0.829909 0.111251 -0.245968
O36   O     O_2   0.148236 0.873304 0.237660 -0.194197
O37   O     O_3   0.365148 0.829009 0.153875 -0.479998
O38   O     O_2   0.936720 0.298490 0.834010 -0.333431
O39   O     O_2   0.182430 0.242569 0.836605 -0.269060
O40   O     O_3   0.178465 0.364754 0.775139 -0.447109
O41   O     O_2   0.365963 0.142404 0.712608 -0.273405
O42   O     O_2   0.470665 0.214883 0.617816 -0.300016
O43   O     O_3   0.649348 0.127689 0.673298 -0.556476
O44   O     O_3   0.678575 0.184412 0.831440 -0.621329
O45   O     O_3   0.066510 0.541590 0.583850 -0.553383
O46   O     O_3   0.461893 0.577735 0.124097 -0.628033
O47   O     O_2   0.907174 0.910504 0.496499 -0.243970
O48   O     O_2   0.763398 0.939465 0.603179 -0.299433
O49   O     O_3   0.914967 0.823441 0.595379 -0.495848
O50   O     O_3   0.856029 0.337456 0.497101 -0.675908
O51   O     O_3   0.544220 0.404070 0.628440 -0.495949
O52   O     O_3   0.191999 0.665482 0.671249 -0.647901
O53   O     O_3   0.618730 0.408150 0.464380 -0.463649
O54   O     O_3   0.124970 0.364690 0.593190 -0.481799
P1    P     P_3+3 0.041170 0.434790 0.339740 1.020989
P2    P     P_3+3 0.658290 0.675180 0.554960 1.037229
P3    P     P_3+3 0.119607 0.732399 0.404555 1.014342
P4    P     P_3+3 0.148540 0.565270 0.660270 0.974064
P5    P     P_3+3 0.080087 0.261669 0.582266 1.077755
P6    P     P_3+3 0.613987 0.582925 0.278616 1.030014
P7    P     P_3+3 0.530919 0.312010 0.438556 1.042307
P8    P     P_3+3 0.573420 0.407168 0.722696 0.997157
S1    S     S_3+6 0.615754 0.852417 0.784915 -0.041763
S2    S     S_3+6 0.680347 0.884303 0.283715 -0.039314
S3    S     S_3+6 0.404186 0.307213 0.220238 -0.073412
S4    S     S_3+6 0.363643 0.126466 0.278143 -0.005914
S5    S     S_3+6 0.173405 0.816806 0.174262 0.000237
S6    S     S_3+6 0.077439 0.281809 0.791971 -0.034379
S7    S     S_3+6 0.511221 0.186395 0.686890 -0.030282
S8    S     S_3+6 0.805522 0.875234 0.550843 -0.027091

loop_
_geom_bond_atom_site_label_1
_geom_bond_atom_site_label_2
_ccdc_geom_bond_type
O27   S2    S    
O31   S4    D    
C12   H4    S    
O9    P8    S    
C13   P8    S    
Ba1   P2    S    
O29   S3    D    
C47   H11   S    
C40   O18   S    
O51   P8    S    
C14   H20   S    
C34   H7    S    
C9    N3    A    
O30   S3    S    
C5    C6    S    
C45   C47   S    
O4    P1    S    
O1    P1    D    
C13   C17   A    
O25   S2    D    
Ba1   O53   S    
C41   H37   S    
C47   H13   S    
C2    C50   S    
C43   H52   S    
C43   O44   S    
Ba1   O5    S    
C7    P1    S    
C34   H6    S    
C1    H64   S    
Ba2   O53   S    
C36   C37   S    
O36   S5    D    
O33   S4    S    
C8    C15   S    
C13   C14   A    
C38   O19   S    
H47   O33   S    
C16   S5    S    
C16   H29   S    
O48   S8    D    
Ba1   Ba2   S    
O12   P2    S    
C36   O13   S    
C28   H31   S    
H44   O27   S    
C48   S7    S    
C39   H3    S    
C42   H41   S    
C43   H51   S    
H48   O37   S    
H49   O40   S    
H50   O43   S    
C10   C15   A    
C21   C22   A    
C41   O19   S    
C20   S8    S    
Ba1   O16   S    
C1    S2    S    
C42   H40   S    
Ba2   O51   S    
C1    H8    S    
C37   H62   S    
C4    H16   S    
O22   S1    D    
C35   H23   S    
O24   S1    S    
O53   P7    S    
H43   O24   S    
Ba2   O34   S    
C19   C20   A    
C28   H32   S    
O45   P4    S    
C37   H56   S    
C7    C50   D    
C23   H5    S    
O49   S8    S    
C2    P6    S    
C36   H45   S    
C43   H53   S    
C48   C49   S    
O2    P5    D    
C4    C16   S    
C41   H38   S    
C18   H28   S    
C35   H34   S    
O8    P8    D    
C26   C33   A    
O3    P5    S    
Ba1   O10   S    
C3    C5    D    
C11   C17   A    
C6    C7    D    
C12   O14   S    
O28   S3    D    
O16   P3    S    
C4    O23   S    
C41   H39   S    
C28   C35   S    
O21   S1    D    
O39   S6    D    
C5    C9    S    
C26   P7    S    
H58   O49   S    
C48   O9    S    
O13   P1    S    
C45   O3    S    
C29   C30   A    
Ba1   O45   S    
O11   P6    D    
C19   P2    S    
C44   H55   S    
C46   H59   S    
C31   C32   T    
C36   O18   S    
C49   O44   S    
O43   S7    S    
C40   H33   S    
C49   H15   S    
C3    O46   S    
C10   C11   A    
C48   H14   S    
Ba2   O45   S    
C28   O52   S    
C1    C12   S    
C23   S3    S    
C46   O50   S    
Ba2   O6    S    
O32   S4    D    
C38   C39   S    
C46   H60   S    
C10   H19   S    
C50   H21   S    
C37   H63   S    
O34   P4    D    
O7    P7    S    
C40   H36   S    
O40   S6    S    
C25   H24   S    
C35   H12   S    
C29   H26   S    
C42   H42   S    
H46   O30   S    
C24   P3    S    
O52   P4    S    
O47   S8    D    
Ba1   P1    S    
C21   C32   S    
C47   H10   S    
C44   O46   S    
C25   C30   A    
C17   H22   S    
O37   S5    S    
C22   C24   A    
C2    C3    S    
O38   S6    D    
C45   H9    S    
N3    N4    A    
Ba2   O4    S    
Ba2   P4    S    
C27   C33   A    
C6    H18   S    
O26   S2    D    
O15   P2    D    
O41   S7    D    
C23   O7    S    
Ba1   O4    S    
C27   C29   A    
C8    N1    A    
O35   S5    D    
N1    N2    A    
C30   C31   S    
C9    N2    A    
C4    H27   S    
C14   C15   A    
C18   C24   A    
C44   H54   S    
C16   H30   S    
C38   O20   S    
C34   S4    S    
O23   P3    S    
C38   O12   S    
Ba1   O1    S    
C39   H2    S    
C8    N4    A    
C23   C34   S    
Ba2   O5    S    
C22   H25   S    
O10   P6    S    
C12   H1    S    
O17   P3    D    
C18   C19   A    
C42   O20   S    
C27   P5    S    
C44   H57   S    
C25   C26   A    
C33   O50   S    
C20   C21   A    
C39   S1    S    
O6    P7    D    
C40   H35   S    
C49   H17   S    
O14   P6    S    
C45   S6    S    
Ba1   O15   S    
O5    P2    S    
O54   P5    S    
O42   S7    D    
Ba2   O54   S    
C11   P4    S    
C46   H61   S    
