data_mof_unit_6003.cif
_audit_creation_date              2012-12-10T18:09:38-0500
_audit_creation_method            fapswitch 2.2
_symmetry_space_group_name_H-M    P1
_symmetry_Int_Tables_number       1
_space_group_crystal_system       triclinic
_cell_length_a                    15.018927
_cell_length_b                    16.026081
_cell_length_c                    9.441236
_cell_angle_alpha                 89.521005
_cell_angle_beta                  91.242319
_cell_angle_gamma                 89.940871
_cell_volume                      2271.83873985

loop_
_atom_site_label
_atom_site_type_symbol
_atom_type_description
_atom_site_fract_x
_atom_site_fract_y
_atom_site_fract_z
_atom_type_partial_charge
C1    C     C_R   0.122425 0.381807 0.500985 0.869266
C2    C     C_R   0.123966 0.616932 0.500377 0.864954
C3    C     C_R   0.622425 0.881807 0.500985 0.869266
C4    C     C_R   0.623966 0.116932 0.500377 0.864954
C5    C     C_3   0.090386 0.480615 0.085864 -0.184947
C6    C     C_3   0.086653 0.470535 0.920287 -0.166708
C7    C     C_3   0.590386 0.980615 0.085864 -0.184947
C8    C     C_3   0.586653 0.970535 0.920287 -0.166707
C9    C     C_R   0.881113 0.379090 0.499432 0.960995
C10   C     C_R   0.879257 0.619519 0.499354 0.959693
C11   C     C_R   0.381113 0.879091 0.499432 0.960995
C12   C     C_R   0.379257 0.119519 0.499354 0.959693
C13   C     C_3   0.824289 0.254682 0.631168 -0.423883
C14   C     C_3   0.822816 0.253474 0.367204 -0.408203
C15   C     C_3   0.843299 0.761888 0.591018 -0.403998
C16   C     C_3   0.790567 0.721358 0.347633 -0.417306
C17   C     C_3   0.324288 0.754682 0.631168 -0.423883
C18   C     C_3   0.322817 0.753474 0.367204 -0.408204
C19   C     C_3   0.343299 0.261888 0.591018 -0.403998
C20   C     C_3   0.290567 0.221358 0.347633 -0.417306
C21   C     C_3   0.268501 0.674761 0.616254 -0.004872
C22   C     C_3   0.245163 0.690017 0.356295 -0.016660
C23   C     C_3   0.282566 0.338888 0.568607 -0.036957
C24   C     C_3   0.213189 0.285115 0.345719 -0.010412
C25   C     C_3   0.768501 0.174761 0.616254 -0.004872
C26   C     C_3   0.745163 0.190017 0.356295 -0.016660
C27   C     C_3   0.782566 0.838888 0.568607 -0.036957
C28   C     C_3   0.713189 0.785115 0.345719 -0.010412
C29   C     C_3   0.714704 0.346887 0.499581 0.594797
C30   C     C_3   0.719447 0.656728 0.567084 0.601730
C31   C     C_3   0.214703 0.846887 0.499581 0.594797
C32   C     C_3   0.219447 0.156728 0.567084 0.601730
C33   C     C_3   0.811895 0.310536 0.498507 -0.197006
C34   C     C_3   0.809233 0.687698 0.500782 -0.210616
C35   C     C_3   0.311895 0.810536 0.498507 -0.197006
C36   C     C_3   0.309233 0.187699 0.500782 -0.210616
C37   C     C_3   0.191862 0.687461 0.499475 -0.200692
C38   C     C_3   0.189793 0.311251 0.502396 -0.203168
C39   C     C_3   0.691862 0.187461 0.499475 -0.200692
C40   C     C_3   0.689793 0.811251 0.502396 -0.203168
C41   C     C_3   0.144291 0.773947 0.520953 0.577898
C42   C     C_3   0.153978 0.233212 0.586701 0.595153
C43   C     C_3   0.644290 0.273947 0.520953 0.577898
C44   C     C_3   0.653978 0.733212 0.586701 0.595153
C45   C     C_3   0.973335 0.581793 0.081861 -0.177758
C46   C     C_3   0.983275 0.584319 0.915889 -0.159572
C47   C     C_3   0.937437 0.438137 0.082383 -0.183769
C48   C     C_3   0.932385 0.443034 0.915038 -0.172253
C49   C     C_3   0.473335 0.081793 0.081861 -0.177757
C50   C     C_3   0.483275 0.084319 0.915889 -0.159572
C51   C     C_3   0.437437 0.938137 0.082383 -0.183769
C52   C     C_3   0.432385 0.943034 0.915038 -0.172254
Cu1   Cu    Cu3+1 0.000100 0.500000 0.642410 1.012919
Cu2   Cu    Cu3+1 0.000100 0.500000 0.357590 0.975484
Cu3   Cu    Cu3+1 0.500100 0.000000 0.642410 1.012919
Cu4   Cu    Cu3+1 0.500100 0.000000 0.357590 0.975484
H1    H     H_    0.804732 0.290260 0.726120 0.248779
H2    H     H_    0.827789 0.291036 0.268397 0.239797
H3    H     H_    0.845853 0.743325 0.704710 0.249546
H4    H     H_    0.775966 0.669630 0.273177 0.252030
H5    H     H_    0.304732 0.790260 0.726120 0.248779
H6    H     H_    0.327788 0.791036 0.268397 0.239797
H7    H     H_    0.345853 0.243325 0.704710 0.249546
H8    H     H_    0.275966 0.169630 0.273177 0.252030
H9    H     H_    0.894411 0.237659 0.651730 0.259982
H10   H     H_    0.886659 0.218765 0.376268 0.241165
H11   H     H_    0.911798 0.779033 0.564531 0.266910
H12   H     H_    0.851691 0.752065 0.307656 0.221572
H13   H     H_    0.394411 0.737659 0.651730 0.259982
H14   H     H_    0.386659 0.718765 0.376268 0.241165
H15   H     H_    0.411798 0.279033 0.564531 0.266910
H16   H     H_    0.351691 0.252065 0.307656 0.221572
H17   H     H_    0.312913 0.623728 0.580518 0.182669
H18   H     H_    0.274155 0.627042 0.338962 0.147334
H19   H     H_    0.315047 0.381369 0.491409 0.172489
H20   H     H_    0.237067 0.341737 0.288923 0.145619
H21   H     H_    0.812913 0.123728 0.580519 0.182670
H22   H     H_    0.774155 0.127042 0.338962 0.147334
H23   H     H_    0.815047 0.881369 0.491409 0.172489
H24   H     H_    0.737067 0.841737 0.288923 0.145619
H25   H     H_    0.011246 0.632805 0.131920 0.213448
H26   H     H_    0.037571 0.628019 0.887698 0.219585
H27   H     H_    0.957292 0.374070 0.116351 0.182036
H28   H     H_    0.941087 0.378985 0.872978 0.186355
H29   H     H_    0.511246 0.132805 0.131920 0.213448
H30   H     H_    0.537571 0.128019 0.887698 0.219585
H31   H     H_    0.457292 0.874070 0.116351 0.182036
H32   H     H_    0.441088 0.878985 0.872978 0.186355
H33   H     H_    0.902578 0.594597 0.107169 0.169700
H34   H     H_    0.920948 0.610671 0.869304 0.202018
H35   H     H_    0.869753 0.448898 0.124253 0.200903
H36   H     H_    0.864862 0.464295 0.879734 0.219645
H37   H     H_    0.402578 0.094597 0.107169 0.169700
H38   H     H_    0.420948 0.110671 0.869304 0.202019
H39   H     H_    0.369753 0.948897 0.124253 0.200903
H40   H     H_    0.364862 0.964295 0.879734 0.219645
H41   H     H_    0.138697 0.530196 0.115422 0.180642
H42   H     H_    0.141603 0.503440 0.871748 0.203788
H43   H     H_    0.117116 0.422229 0.132671 0.183329
H44   H     H_    0.096844 0.403855 0.895476 0.223138
H45   H     H_    0.638697 0.030196 0.115422 0.180642
H46   H     H_    0.641603 0.003440 0.871748 0.203788
H47   H     H_    0.617116 0.922229 0.132671 0.183329
H48   H     H_    0.596844 0.903855 0.895476 0.223138
N1    N     N_3   0.001260 0.500000 0.143650 -0.162449
N2    N     N_3   0.001260 0.500000 0.856350 -0.174384
N3    N     N_3   0.501260 1.000000 0.143650 -0.162449
N4    N     N_3   0.501260 1.000000 0.856350 -0.174384
O1    O     O_R   0.091250 0.408820 0.620260 -0.546248
O2    O     O_R   0.091250 0.408820 0.379740 -0.606413
O3    O     O_R   0.091250 0.591180 0.620260 -0.550433
O4    O     O_R   0.091250 0.591180 0.379740 -0.578984
O5    O     O_R   0.591250 0.908820 0.620260 -0.546248
O6    O     O_R   0.591250 0.908820 0.379740 -0.606413
O7    O     O_R   0.591250 0.091180 0.620260 -0.550433
O8    O     O_R   0.591250 0.091180 0.379740 -0.578984
O9    O     O_R   0.908940 0.408800 0.620260 -0.577397
O10   O     O_R   0.908940 0.408800 0.379740 -0.584971
O11   O     O_R   0.908940 0.591200 0.620260 -0.564381
O12   O     O_R   0.908940 0.591200 0.379740 -0.584546
O13   O     O_R   0.408940 0.908800 0.620260 -0.577397
O14   O     O_R   0.408940 0.908800 0.379740 -0.584971
O15   O     O_R   0.408940 0.091200 0.620260 -0.564380
O16   O     O_R   0.408940 0.091200 0.379740 -0.584546
I1    I     I_    0.246400 0.636463 0.827904 -0.245343
I2    I     I_    0.174898 0.715257 0.159323 -0.186213
I3    I     I_    0.292066 0.412414 0.756709 -0.223701
I4    I     I_    0.107339 0.242318 0.203100 -0.153164
I5    I     I_    0.746400 0.136463 0.827904 -0.245343
I6    I     I_    0.674898 0.215257 0.159323 -0.186213
I7    I     I_    0.792066 0.912414 0.756709 -0.223702
I8    I     I_    0.607339 0.742318 0.203100 -0.153164
Cl1   Cl    Cl    0.705875 0.421472 0.638729 -0.394838
Cl2   Cl    Cl    0.696434 0.403919 0.335804 -0.410686
Cl3   Cl    Cl    0.738869 0.602855 0.734090 -0.448564
Cl4   Cl    Cl    0.671502 0.580893 0.450309 -0.369151
Cl5   Cl    Cl    0.205875 0.921472 0.638729 -0.394838
Cl6   Cl    Cl    0.196434 0.903918 0.335804 -0.410686
Cl7   Cl    Cl    0.238870 0.102855 0.734090 -0.448564
Cl8   Cl    Cl    0.171502 0.080893 0.450309 -0.369151
Cl9   Cl    Cl    0.093865 0.774511 0.693299 -0.493077
Cl10  Cl    Cl    0.048168 0.787075 0.405585 -0.530864
Cl11  Cl    Cl    0.139814 0.258157 0.771047 -0.508453
Cl12  Cl    Cl    0.042134 0.208526 0.533454 -0.552328
Cl13  Cl    Cl    0.593865 0.274511 0.693299 -0.493077
Cl14  Cl    Cl    0.548168 0.287075 0.405585 -0.530864
Cl15  Cl    Cl    0.639814 0.758157 0.771047 -0.508453
Cl16  Cl    Cl    0.542134 0.708526 0.533454 -0.552328

loop_
_geom_bond_atom_site_label_1
_geom_bond_atom_site_label_2
_ccdc_geom_bond_type
C16   C28   S    
C29   Cl1   S    
Cu3   Cu4   S    
Cu3   O13   S    
C17   H13   S    
Cu2   O12   S    
C9    O9    A    
C4    O7    A    
C19   H15   S    
C5    N1    S    
C25   I5    S    
C14   C33   S    
C7    C8    S    
C49   N3    S    
C13   H9    S    
C45   C46   S    
C13   C33   S    
C2    O4    A    
C26   H22   S    
C25   H21   S    
C32   C36   S    
C32   Cl8   S    
C27   H23   S    
C19   C36   S    
C5    C6    S    
Cu1   O9    S    
C26   C39   S    
C22   I2    S    
C13   H1    S    
C28   C40   S    
C21   H17   S    
C44   Cl15  S    
C27   I7    S    
Cu2   O2    S    
C16   H4    S    
C20   C24   S    
C10   O11   A    
C17   H5    S    
C46   H26   S    
Cu1   N2    S    
C48   N2    S    
C5    H43   S    
C29   C33   S    
C19   H7    S    
C47   N1    S    
C24   C38   S    
C16   H12   S    
C47   H27   S    
C12   C36   S    
C45   H33   S    
C18   C35   S    
C15   C34   S    
C26   I6    S    
C1    O1    A    
Cu1   O3    S    
C29   Cl2   S    
C7    H47   S    
C29   C43   S    
C9    C33   S    
C9    O10   A    
C30   C44   S    
C11   O13   A    
C47   H35   S    
C8    N4    S    
C45   N1    S    
C14   H10   S    
C14   H2    S    
Cu3   O15   S    
C2    O3    A    
C30   C34   S    
C51   C52   S    
C6    H42   S    
C49   H29   S    
C52   H32   S    
C32   Cl7   S    
C3    O5    A    
C51   H31   S    
C4    O8    A    
C24   H20   S    
C39   C43   S    
Cu3   O5    S    
Cu1   Cu2   S    
C22   C37   S    
C17   C21   S    
C48   H28   S    
C28   I8    S    
Cu4   O14   S    
C20   H8    S    
C19   C23   S    
Cu4   N3    S    
C41   Cl9   S    
C16   C34   S    
C43   Cl13  S    
C1    O2    A    
C8    H48   S    
C15   C27   S    
C47   C48   S    
C12   O16   A    
C4    C39   S    
C27   C40   S    
C15   H11   S    
Cu4   O8    S    
Cu2   O4    S    
C10   C34   S    
C14   C26   S    
C31   Cl6   S    
C6    N2    S    
C1    C38   S    
C5    H41   S    
C3    C40   S    
C49   C50   S    
C30   Cl4   S    
Cu2   O10   S    
C42   Cl12  S    
C31   C35   S    
C11   O14   A    
C31   Cl5   S    
C22   H18   S    
C21   I1    S    
Cu4   O16   S    
C23   I3    S    
Cu1   O1    S    
C32   C42   S    
C31   C41   S    
Cu2   N1    S    
C18   C22   S    
C15   H3    S    
C50   N4    S    
C45   H25   S    
C23   H19   S    
C13   C25   S    
C3    O6    A    
Cu1   O11   S    
C38   C42   S    
C46   H34   S    
C23   C38   S    
C50   H38   S    
C18   H14   S    
Cu3   N4    S    
C11   C35   S    
C41   Cl10  S    
C43   Cl14  S    
C25   C39   S    
C2    C37   S    
C12   O15   A    
Cu3   O7    S    
C46   N2    S    
C44   Cl16  S    
C52   H40   S    
C7    N3    S    
C37   C41   S    
C28   H24   S    
C10   O12   A    
C48   H36   S    
C50   H30   S    
C20   C36   S    
C40   C44   S    
C21   C37   S    
C52   N4    S    
C51   N3    S    
C30   Cl3   S    
C7    H45   S    
C51   H39   S    
C42   Cl11  S    
C24   I4    S    
Cu4   O6    S    
C20   H16   S    
C18   H6    S    
C17   C35   S    
C49   H37   S    
C8    H46   S    
C6    H44   S    
