data_mof_unit_47160.cif
_audit_creation_date              2012-12-11T19:54:02-0500
_audit_creation_method            fapswitch 2.2
_symmetry_space_group_name_H-M    P1
_symmetry_Int_Tables_number       1
_space_group_crystal_system       triclinic
_cell_length_a                    8.218058
_cell_length_b                    16.029664
_cell_length_c                    17.321834
_cell_angle_alpha                 111.904593
_cell_angle_beta                  82.708483
_cell_angle_gamma                 96.451498
_cell_volume                      2094.74962825

loop_
_atom_site_label
_atom_site_type_symbol
_atom_type_description
_atom_site_fract_x
_atom_site_fract_y
_atom_site_fract_z
_atom_type_partial_charge
Ba1   Ba    Ba6+2 0.325860 0.460280 0.530510 1.640358
Ba2   Ba    Ba6+2 0.863950 0.539650 0.469460 1.647981
C1    C     C_3   0.026381 0.148476 0.693776 -0.369642
C2    C     C_3   0.028715 0.232019 0.671649 0.374392
C3    C     C_3   0.981905 0.668561 0.735475 0.293975
C4    C     C_3   0.920646 0.693584 0.827466 -0.406301
C5    C     C_3   0.708444 0.721655 0.296503 0.351501
C6    C     C_3   0.717168 0.748255 0.220475 -0.377413
C7    C     C_3   0.208455 0.770344 0.341375 0.332874
C8    C     C_3   0.205784 0.864093 0.339097 -0.358268
C9    C     C_2   0.744155 0.476755 0.716865 -0.242289
C10   C     C_3   0.807731 0.417461 0.755006 -0.043555
C11   C     C_2   0.762903 0.444974 0.847389 -0.108604
C12   C     C_3   0.499773 0.263964 0.704554 0.354758
C13   C     C_2   0.640391 0.500045 0.885420 0.016527
C14   C     C_2   0.564443 0.541415 0.834771 -0.135915
C15   C     C_1   0.622155 0.528821 0.755959 0.050297
C16   C     C_R   0.404948 0.537102 0.146392 -0.128538
C17   C     C_R   0.344460 0.549080 0.228662 0.012302
C18   C     C_R   0.567293 0.469456 0.242213 0.063183
C19   C     C_R   0.627484 0.456365 0.159039 -0.118748
C20   C     C_R   0.549052 0.491728 0.110804 0.009057
C21   C     C_2   0.578908 0.520686 0.975639 -0.074771
C22   C     C_2   0.613481 0.473655 0.021889 -0.072952
C23   C     C_3   0.455312 0.236453 0.780076 -0.374134
C24   C     C_R   0.428664 0.518184 0.276961 -0.282873
C25   C     C_2   0.395226 0.766102 0.529975 -0.272959
C26   C     C_R   0.806519 0.247851 0.481444 -0.292779
C27   C     C_2   0.229286 0.889642 0.621992 -0.141353
C28   C     C_2   0.247302 0.800920 0.586583 0.023433
C29   C     C_2   0.526866 0.821226 0.522464 0.021573
C30   C     C_3   0.527753 0.920869 0.576080 -0.045017
C31   C     C_3   0.354375 0.956155 0.601927 0.008735
C32   C     C_2   0.648064 0.979476 0.541691 -0.073100
C33   C     C_2   0.602208 0.035148 0.507834 -0.072598
C34   C     C_3   0.668201 0.261857 0.319141 0.310897
C35   C     C_R   0.875321 0.069387 0.441642 0.004233
C36   C     C_R   0.722515 0.098525 0.483497 -0.039425
C37   C     C_R   0.990101 0.127913 0.417077 -0.140329
C38   C     C_R   0.955509 0.217395 0.436727 0.072013
C39   C     C_R   0.686585 0.188175 0.501426 -0.007193
C40   C     C_3   0.658718 0.159522 0.278979 -0.391001
C41   C     C_3   0.425366 0.748562 0.765633 0.370274
C42   C     C_3   0.373229 0.751367 0.854756 -0.381032
C43   C     C_3   0.202030 0.332047 0.267339 0.313399
C44   C     C_3   0.222023 0.302370 0.172572 -0.392882
H1    H     H_    0.104822 0.221515 0.611540 0.095901
H2    H     H_    0.756135 0.137843 0.226354 0.124805
H3    H     H_    0.676084 0.129560 0.325319 0.062072
H4    H     H_    0.536433 0.134310 0.255098 0.123866
H5    H     H_    0.326263 0.716702 0.724738 0.055369
H6    H     H_    0.307820 0.686508 0.853089 0.103739
H7    H     H_    0.287591 0.805092 0.888238 0.087016
H8    H     H_    0.482448 0.764757 0.890526 0.101903
H9    H     H_    0.324928 0.348525 0.290864 0.009420
H10   H     H_    0.129922 0.392641 0.293112 0.066993
H11   H     H_    0.152465 0.135234 0.700222 0.149950
H12   H     H_    0.298062 0.243337 0.145271 0.123390
H13   H     H_    0.283056 0.357729 0.153450 0.063139
H14   H     H_    0.099510 0.283668 0.147776 0.126715
H15   H     H_    0.900448 0.239017 0.662677 -0.084986
H16   H     H_    0.974075 0.089057 0.643618 0.066536
H17   H     H_    0.877784 0.637190 0.697165 0.043605
H18   H     H_    0.076262 0.619131 0.719608 0.067467
H19   H     H_    0.807751 0.730715 0.841717 0.126070
H20   H     H_    0.893242 0.632002 0.842860 0.077590
H21   H     H_    0.015533 0.736885 0.867469 0.123567
H22   H     H_    0.949156 0.157767 0.753451 0.103748
H23   H     H_    0.531701 0.278558 0.831175 0.069134
H24   H     H_    0.798173 0.670263 0.283830 0.106696
H25   H     H_    0.582488 0.692053 0.306127 -0.048865
H26   H     H_    0.842468 0.777847 0.208954 0.138311
H27   H     H_    0.689223 0.687886 0.164638 0.079113
H28   H     H_    0.626087 0.798486 0.230879 0.112112
H29   H     H_    0.338319 0.756794 0.340300 -0.053662
H30   H     H_    0.139693 0.769963 0.400734 0.084166
H31   H     H_    0.263078 0.914746 0.393883 0.069065
H32   H     H_    0.076969 0.880246 0.341171 0.147732
H33   H     H_    0.468719 0.334874 0.722224 0.064739
H34   H     H_    0.275774 0.867537 0.281017 0.110566
H35   H     H_    0.692129 0.418194 0.994357 0.067145
H36   H     H_    0.459777 0.581192 0.863309 0.071138
H37   H     H_    0.335540 0.560214 0.110160 0.073643
H38   H     H_    0.500395 0.576323 0.003904 0.070130
H39   H     H_    0.826031 0.414559 0.880256 0.067114
H40   H     H_    0.734056 0.417713 0.131654 0.082081
H41   H     H_    0.783817 0.464725 0.651690 0.072192
H42   H     H_    0.380501 0.527470 0.340472 0.072795
H43   H     H_    0.121031 0.914545 0.663936 0.075767
H44   H     H_    0.633519 0.258374 0.687406 -0.057784
H45   H     H_    0.104807 0.103170 0.382305 0.096196
H46   H     H_    0.397556 0.694048 0.495487 0.068310
H47   H     H_    0.779791 0.316984 0.496186 0.067756
H48   H     H_    0.777269 0.978375 0.548370 0.095340
H49   H     H_    0.473076 0.038379 0.502761 0.101144
H50   H     H_    0.323894 0.246367 0.802883 0.144298
H51   H     H_    0.478251 0.164511 0.763183 0.113155
H52   H     H_    0.791464 0.285963 0.340792 0.008842
H53   H     H_    0.572867 0.281547 0.372916 0.065709
O1    O     O_2   0.351410 0.559500 0.703710 -0.487491
O2    O     O_3   0.121191 0.261041 0.288689 -0.635322
O3    O     O_3   0.411484 0.206742 0.638155 -0.600692
O4    O     O_2   0.838300 0.440470 0.296230 -0.462403
O5    O     O_3   0.567380 0.446810 0.395500 -0.499327
O6    O     O_3   0.111820 0.604620 0.376600 -0.484384
O7    O     O_3   0.642373 0.297010 0.259385 -0.636703
O8    O     O_3   0.149150 0.609060 0.561440 -0.481871
O9    O     O_3   0.701290 0.652490 0.425560 -0.484505
O10   O     O_2   0.869682 0.809172 0.500252 -0.486551
O11   O     O_3   0.746822 0.798213 0.366373 -0.606442
O12   O     O_3   0.622300 0.553110 0.604480 -0.463384
O13   O     O_3   0.040530 0.390860 0.438530 -0.491123
O14   O     O_2   0.927940 0.718960 0.581060 -0.426126
O15   O     O_3   0.049176 0.746662 0.721780 -0.650084
O16   O     O_2   0.004107 0.540263 0.225773 -0.489955
O17   O     O_3   0.134852 0.706633 0.272141 -0.600581
O18   O     O_3   0.077860 0.395310 0.623380 -0.483583
O19   O     O_2   0.138422 0.485190 0.781899 -0.484732
O20   O     O_3   0.569298 0.703158 0.732518 -0.627448
O21   O     O_3   0.094558 0.307864 0.735334 -0.591493
O22   O     O_2   0.261760 0.281010 0.418880 -0.462992
O23   O     O_3   0.488390 0.347430 0.574410 -0.483947
O24   O     O_2   0.351985 0.185392 0.487829 -0.496645
P1    P     P_3+3 0.533580 0.585010 0.696460 0.982140
P2    P     P_3+3 0.097450 0.292710 0.397510 0.982948
P3    P     P_3+3 0.484783 0.231134 0.549056 0.936329
P4    P     P_3+3 0.656110 0.414920 0.303520 0.979812
P5    P     P_3+3 0.711201 0.770077 0.455886 0.967577
P6    P     P_3+3 0.031694 0.404455 0.726579 0.958506
P7    P     P_3+3 0.097454 0.720746 0.614403 0.950381
P8    P     P_3+3 0.148161 0.599008 0.273727 0.941838
C45   C     C_3   0.460581 0.844561 0.766526 -0.355888
H54   H     H_    0.508908 0.842607 0.703177 0.094216
H55   H     H_    0.346170 0.880977 0.785517 0.081423
H56   H     H_    0.554176 0.882066 0.810438 0.118462

loop_
_geom_bond_atom_site_label_1
_geom_bond_atom_site_label_2
_ccdc_geom_bond_type
C3    O15   S    
Ba2   O8    S    
C34   C40   S    
C1    H22   S    
C41   C42   S    
C5    H24   S    
C27   H43   S    
C8    H32   S    
C5    C6    S    
O6    P8    S    
O16   P8    D    
O20   P1    S    
C10   C11   S    
O5    P4    S    
Ba2   O13   S    
C35   C36   A    
C41   C45   S    
Ba1   P2    S    
C16   C17   A    
Ba1   O13   S    
C5    H25   S    
C3    C4    S    
C44   H13   S    
Ba2   O14   S    
C12   O3    S    
C26   C38   A    
C13   C14   S    
C27   C31   S    
C26   C39   A    
C3    H17   S    
Ba1   Ba2   S    
C17   C24   A    
Ba1   O23   S    
C12   H44   S    
O10   P5    D    
C42   H7    S    
C4    H19   S    
C43   H10   S    
C9    H41   S    
C14   C15   D    
O2    P2    S    
C21   C22   D    
C7    H30   S    
O18   P6    S    
C7    C8    S    
Ba2   P4    S    
C42   H6    S    
C13   C21   S    
C19   C20   A    
C44   H12   S    
C25   C28   S    
O15   P7    S    
C29   P5    S    
O8    P7    S    
Ba1   O1    S    
C37   H45   S    
C8    H31   S    
C17   P8    S    
Ba2   O12   S    
C6    H26   S    
O14   P7    D    
C25   C29   D    
O21   P6    S    
C33   C36   S    
C36   C39   A    
C10   P6    S    
C37   C38   A    
C8    H34   S    
C45   H54   S    
O24   P3    D    
C40   H2    S    
C21   H38   S    
C28   P7    S    
C34   O7    S    
O7    P4    S    
C3    H18   S    
C26   H47   S    
O1    P1    D    
C30   C32   S    
O23   P3    S    
C22   H35   S    
O22   P2    D    
C27   C28   D    
C15   P1    S    
C29   C30   S    
Ba2   O5    S    
C32   C33   D    
C6    H28   S    
C16   H37   S    
C25   H46   S    
Ba1   O18   S    
C12   H33   S    
O9    P5    S    
Ba1   O5    S    
O13   P2    S    
C43   O2    S    
C40   H4    S    
C45   H55   S    
C1    H11   S    
C23   H51   S    
C4    H21   S    
Ba1   O8    S    
C11   C13   D    
C20   C22   S    
C43   C44   S    
C23   H23   S    
C1    C2    S    
O4    P4    D    
C18   P4    S    
C1    H16   S    
C19   H40   S    
C9    C15   D    
C44   H14   S    
O12   P1    S    
C16   C20   A    
C7    O17   S    
C39   P3    S    
C32   H48   S    
O3    P3    S    
C9    C10   S    
C33   H49   S    
Ba2   O6    S    
C5    O11   S    
C30   C31   S    
Ba1   P1    S    
C35   C37   A    
O19   P6    D    
Ba1   O12   S    
C41   H5    S    
O17   P8    S    
C18   C24   A    
Ba2   O4    S    
C45   H56   S    
C38   P2    S    
C2    H15   S    
Ba2   O9    S    
C6    H27   S    
O11   P5    S    
C34   H53   S    
C12   C23   S    
Ba1   O22   S    
C40   H3    S    
C42   H8    S    
C4    H20   S    
C18   C19   A    
C43   H9    S    
C23   H50   S    
C24   H42   S    
C14   H36   S    
C11   H39   S    
C2    O21   S    
C34   H52   S    
C7    H29   S    
C41   O20   S    
C2    H1    S    
