data_mof_unit_59663.cif
_audit_creation_date              2013-03-05T16:13:45-0500
_audit_creation_method            fapswitch 2.2
_symmetry_space_group_name_H-M    P1
_symmetry_Int_Tables_number       1
_space_group_crystal_system       triclinic
_cell_length_a                    8.29921
_cell_length_b                    17.322171
_cell_length_c                    19.040681
_cell_angle_alpha                 101.068911
_cell_angle_beta                  93.59045
_cell_angle_gamma                 97.695527
_cell_volume                      2651.17504324

loop_
_atom_site_label
_atom_site_type_symbol
_atom_site_description
_atom_site_fract_x
_atom_site_fract_y
_atom_site_fract_z
_atom_type_partial_charge
P1    P     P_3+3 0.032830 0.432130 0.335280 0.448974
O1    O     O_2   0.865200 0.455450 0.325860 -0.354284
O2    O     O_3   0.117880 0.456770 0.413320 -0.395445
O3    O     O_3   0.657770 0.599920 0.378120 -0.405780
O4    O     O_2   0.699336 0.520738 0.246712 -0.365039
O5    O     O_3   0.969592 0.328885 0.315000 -0.580035
O6    O     O_3   0.711903 0.674556 0.261149 -0.446772
H1    H     H_    0.754362 0.745639 0.363183 0.127762
C1    C     C_3   0.727399 0.816424 0.283071 -0.832310
H2    H     H_    0.860768 0.826956 0.278729 0.295230
H3    H     H_    0.660942 0.811503 0.229556 0.268877
P2    P     P_3+3 0.680690 0.682340 0.566920 0.523684
P3    P     P_3+3 0.141951 0.742324 0.423970 0.539215
O7    O     O_2   0.855570 0.693850 0.546560 -0.298507
O8    O     O_3   0.082050 0.640900 0.416060 -0.361464
O9    O     O_2   0.031778 0.786733 0.475230 -0.323126
O10   O     O_3   0.728645 0.703140 0.660332 -0.541270
O11   O     O_3   0.089266 0.762986 0.339486 -0.551429
C2    C     C_3   0.159054 0.711594 0.287288 0.254423
H4    H     H_    0.080412 0.652797 0.272941 0.156916
H5    H     H_    0.280197 0.701513 0.308178 -0.065444
C3    C     C_3   0.188897 0.748429 0.221108 0.134170
H6    H     H_    0.205200 0.814381 0.236429 0.106538
C4    C     C_3   0.097585 0.709334 0.725812 0.254355
H7    H     H_    0.018753 0.736318 0.691696 0.221068
H8    H     H_    0.014937 0.669241 0.750448 -0.032723
C5    C     C_3   0.191068 0.774048 0.786673 0.127190
H9    H     H_    0.315767 0.793501 0.773312 0.169214
H10   H     H_    0.203635 0.750337 0.836520 0.061036
Ba1   Ba    Ba6+2 0.852650 0.537180 0.468240 1.614090
C6    C     C_3   0.102985 0.287892 0.305891 0.344176
H11   H     H_    0.078154 0.233703 0.328906 0.104478
H12   H     H_    0.214654 0.323023 0.335685 0.131167
C7    C     C_3   0.123388 0.262046 0.226235 -0.955996
H13   H     H_    0.006708 0.228680 0.197506 0.269973
H14   H     H_    0.218775 0.222716 0.219263 0.255931
H15   H     H_    0.160170 0.314525 0.202324 0.234483
C8    C     C_3   0.617971 0.655773 0.692033 0.416553
H16   H     H_    0.633125 0.592231 0.675474 0.100740
H17   H     H_    0.493754 0.665919 0.676487 0.167603
C9    C     C_3   0.647557 0.679725 0.773494 -0.917648
H18   H     H_    0.777477 0.682290 0.791636 0.260144
H19   H     H_    0.577167 0.634853 0.798383 0.221360
H20   H     H_    0.609737 0.738771 0.792439 0.288699
P4    P     P_3+3 0.156880 0.567940 0.664730 0.510883
O12   O     O_2   0.324510 0.544570 0.674190 -0.382860
O13   O     O_3   0.071830 0.543290 0.586690 -0.347199
O14   O     O_3   0.531950 0.400150 0.621890 -0.365351
O15   O     O_3   0.207739 0.671825 0.681955 -0.548478
P5    P     P_3+3 0.074369 0.254388 0.567815 0.437854
O16   O     O_3   0.606980 0.404400 0.458100 -0.414992
O17   O     O_3   0.107660 0.359170 0.583950 -0.396829
O18   O     O_2   0.228445 0.223053 0.538823 -0.376799
O19   O     O_3   0.066194 0.226018 0.650968 -0.603172
Ba2   Ba    Ba6+2 0.337190 0.462880 0.531770 1.572945
P6    P     P_3+3 0.613851 0.588803 0.285213 0.481631
C10   C     C_3   0.681065 0.740829 0.311214 0.459500
H21   H     H_    0.549958 0.736949 0.320312 -0.028455
H22   H     H_    0.694170 0.868089 0.320523 0.188045
O20   O     O_3   0.582730 0.595670 0.541910 -0.419252
C11   C     C_3   0.526113 0.344942 0.297764 0.376413
H23   H     H_    0.421363 0.373779 0.283575 0.029480
H24   H     H_    0.614523 0.390872 0.332634 0.166107
C12   C     C_3   0.599135 0.313700 0.228430 -0.850255
H25   H     H_    0.503420 0.274302 0.189524 0.237412
H26   H     H_    0.650001 0.363834 0.203999 0.242701
H27   H     H_    0.697608 0.279039 0.239283 0.274877
P7    P     P_3+3 0.508935 0.305448 0.424209 0.427336
O21   O     O_2   0.334130 0.306180 0.453490 -0.370362
O22   O     O_3   0.473111 0.280725 0.329982 -0.594854
H28   H     H_    0.304745 0.732274 0.200363 0.062212
C13   C     C_3   0.921803 0.242586 0.682275 1.045413
H29   H     H_    0.841882 0.272790 0.650551 -0.068123
C14   C     C_3   0.969100 0.297537 0.755547 -0.991227
H30   H     H_    0.037397 0.354761 0.748571 0.215475
H31   H     H_    0.858580 0.309737 0.782995 0.273244
H32   H     H_    0.047709 0.270087 0.790053 0.263288
P8    P     P_3+3 0.567617 0.413962 0.716007 0.431004
C15   C     C_3   0.402475 0.275686 0.714497 0.513298
H33   H     H_    0.406164 0.247365 0.657344 0.154392
O23   O     O_2   0.428363 0.453160 0.751881 -0.423248
O24   O     O_3   0.554375 0.320879 0.740211 -0.565650
H34   H     H_    0.302455 0.312291 0.720371 0.129687
H35   H     H_    0.467212 0.174117 0.755629 0.313106
C16   C     C_3   0.367996 0.211121 0.758057 -0.813619
H36   H     H_    0.251720 0.171808 0.736556 0.268659
H37   H     H_    0.358715 0.238728 0.815053 0.237416
N1    N     N_R   0.198749 0.518458 0.957136 -0.061122
N2    N     N_R   0.247022 0.518893 0.025374 -0.064210
C17   C     C_2   0.298553 0.511220 0.295350 -0.403127
C18   C     C_3   0.389004 0.570529 0.258225 0.118369
C19   C     C_2   0.342165 0.552212 0.178015 -0.207518
C20   C     C_2   0.194081 0.509961 0.150833 0.037453
C21   C     C_2   0.090114 0.473243 0.201821 -0.231368
C22   C     C_1   0.149179 0.476477 0.269564 0.268699
N3    N     N_R   0.976386 0.486351 0.048063 -0.040536
N4    N     N_R   0.928129 0.486595 0.979576 -0.065243
C23   C     C_R   0.038188 0.503844 0.932356 0.167833
C24   C     C_R   0.137365 0.503340 0.072798 0.220772
C25   C     C_R   0.090106 0.537008 0.807046 0.138020
C26   C     C_R   0.036749 0.525916 0.732124 0.247983
C27   C     C_R   0.769687 0.466566 0.754267 0.300604
C28   C     C_R   0.822320 0.472063 0.826905 -0.309183
C29   C     C_R   0.984310 0.504681 0.854623 0.014950
C30   C     C_R   0.877992 0.490501 0.707528 -0.517289
H38   H     H_    0.420139 0.581634 0.144331 0.174075
H39   H     H_    0.969614 0.440704 0.182269 0.163700
H40   H     H_    0.737598 0.448084 0.861046 0.179099
H41   H     H_    0.352935 0.502875 0.346253 0.152489
H42   H     H_    0.836394 0.483119 0.651270 0.171274
C31   C     C_2   0.428350 0.757684 0.525064 0.289141
C32   C     C_3   0.367253 0.766480 0.450708 -0.011947
C33   C     C_2   0.447695 0.844822 0.437225 -0.213426
C34   C     C_2   0.599427 0.873913 0.470205 0.109411
C35   C     C_2   0.678668 0.823815 0.515406 -0.199121
C36   C     C_1   0.589034 0.760707 0.532254 0.084004
C37   C     C_R   0.823478 0.130288 0.503958 -0.217582
C38   C     C_R   0.887944 0.209906 0.508713 0.192674
C39   C     C_R   0.630321 0.234756 0.456438 0.303872
C40   C     C_R   0.564495 0.154876 0.452496 -0.274527
C41   C     C_R   0.662786 0.101043 0.473373 0.130124
C42   C     C_2   0.677969 0.956408 0.470590 -0.165927
C43   C     C_2   0.590296 0.016411 0.467367 -0.069423
C44   C     C_R   0.797077 0.259848 0.479011 -0.202242
H43   H     H_    0.457952 0.003595 0.461041 0.148832
H44   H     H_    0.796785 0.847439 0.544812 0.197354
H45   H     H_    0.896733 0.093113 0.527459 0.181122
H46   H     H_    0.810086 0.967904 0.478259 0.140212
H47   H     H_    0.384587 0.876093 0.402416 0.142128
H48   H     H_    0.438318 0.134411 0.431729 0.149868
S1    S     S_3+6 0.089047 0.859294 0.805187 0.030715
O25   O     O_2   0.925842 0.836482 0.831399 -0.266089
O26   O     O_2   0.191281 0.921800 0.862199 -0.216261
O27   O     O_3   0.062938 0.895576 0.730101 -0.486053
H49   H     H_    0.002450 0.940909 0.743992 0.392078
S2    S     S_3+6 0.806932 0.150309 0.692109 -0.027082
O28   O     O_2   0.774341 0.152115 0.769161 -0.262816
O29   O     O_2   0.647197 0.136319 0.646514 -0.342459
O30   O     O_3   0.912597 0.075298 0.664733 -0.520880
H50   H     H_    0.831600 0.026303 0.657369 0.381024
C45   C     C_3   0.250475 0.588053 0.837261 -0.891698
H51   H     H_    0.303352 0.623009 0.799590 0.237758
H52   H     H_    0.231603 0.632181 0.885478 0.239877
H53   H     H_    0.340898 0.550942 0.851893 0.279543
S3    S     S_3+6 0.348460 0.814934 0.598252 0.016131
O31   O     O_2   0.173995 0.781693 0.601577 -0.238151
O32   O     O_2   0.447444 0.814510 0.666882 -0.311817
O33   O     O_3   0.357140 0.909386 0.587198 -0.503664
H54   H     H_    0.310376 0.937390 0.629746 0.403985
C46   C     C_3   0.883392 0.337150 0.467043 -0.569157
H55   H     H_    0.830844 0.350619 0.417481 0.243198
H56   H     H_    0.874681 0.385931 0.513177 0.237380
H57   H     H_    0.012277 0.332738 0.457278 0.241577
S4    S     S_3+6 0.031989 0.714774 0.148260 -0.001021
O34   O     O_2   0.930921 0.638253 0.154984 -0.265456
O35   O     O_2   0.923573 0.777321 0.146600 -0.247614
O36   O     O_3   0.121610 0.699978 0.070969 -0.517965
H58   H     H_    0.031014 0.677639 0.033125 0.372216

loop_
_geom_bond_atom_site_label_1
_geom_bond_atom_site_label_2
_geom_bond_distance
_ccdc_geom_bond_type
C11   O22   1.404274 S    
O14   Ba2   2.752595 S    
C8    H17   1.100710 S    
Ba1   O16   2.829963 S    
C20   C21   1.512150 S    
C5    H10   1.108680 S    
C7    H15   1.108538 S    
C5    S1    1.787166 S    
C9    H18   1.103859 S    
O4    P6    1.545362 D    
C31   C32   1.516056 S    
C4    C5    1.535283 S    
C30   H42   1.082702 S    
S1    O27   1.681860 S    
N4    C23   1.365601 A    
C17   C18   1.502484 S    
C17   C22   1.323091 D    
P4    O12   1.509701 D    
O36   H58   0.990672 S    
C35   H44   1.085233 S    
C14   H31   1.108450 S    
P3    O11   1.755529 S    
N2    C24   1.358988 A    
C40   H48   1.083272 S    
C19   C20   1.359373 D    
C2    H5    1.105944 S    
C4    H8    1.100285 S    
O11   C2    1.409331 S    
P3    C32   1.876156 S    
C25   C45   1.509238 S    
C31   S3    1.768100 S    
P7    C39   1.852696 S    
C16   H36   1.109069 S    
C8    H16   1.111538 S    
C7    H13   1.110567 S    
P2    C36   1.847926 S    
C43   H43   1.085372 S    
P8    C27   1.832010 S    
C35   C36   1.340911 D    
N3    C24   1.362344 A    
C25   C29   1.438012 A    
C27   C30   1.383434 A    
P1    O1    1.509254 D    
O14   P8    1.762470 S    
C11   H24   1.091786 S    
C37   C41   1.408124 A    
C25   C26   1.435585 A    
O2    Ba2   2.784467 S    
P6    C18   1.872333 S    
C2    H4    1.109373 S    
P7    O21   1.587196 D    
C46   H57   1.107205 S    
Ba1   O20   2.909986 S    
O12   Ba2   2.822999 S    
P5    O17   1.762413 S    
C6    H12   1.096172 S    
C4    H7    1.101702 S    
C31   C36   1.324957 D    
C1    H2    1.108340 S    
C20   C24   1.508295 S    
S4    O35   1.501701 D    
C11   H23   1.103159 S    
O17   Ba2   2.801621 S    
O10   C8    1.392482 S    
P4    O13   1.559754 S    
O5    C6    1.395420 S    
Ba2   O20   2.829428 S    
O3    P6    1.751855 S    
C9    H19   1.106578 S    
C21   C22   1.339008 D    
O6    P6    1.750115 S    
O7    Ba1   2.830792 S    
S2    O30   1.682679 S    
C32   C33   1.505264 S    
S3    O32   1.501126 D    
S3    O31   1.494732 D    
C16   H37   1.110614 S    
C26   C30   1.388373 A    
O30   H50   0.990716 S    
C21   H39   1.085472 S    
P5    O18   1.547162 D    
C14   H30   1.109504 S    
P1    O5    1.755297 S    
C12   H27   1.108590 S    
Ba1   O13   2.783824 S    
C2    C3    1.536841 S    
H35   C16   1.107131 S    
C8    C9    1.521896 S    
C13   C14   1.525775 S    
C45   H53   1.107171 S    
C18   C19   1.513553 S    
S2    O28   1.503643 D    
O16   Ba2   2.909011 S    
C39   C44   1.407694 A    
C14   H32   1.110291 S    
C1    H22   1.109595 S    
C12   H26   1.109194 S    
P2    O10   1.754588 S    
O2    Ba1   2.903281 S    
H1    C10   1.111542 S    
C37   H45   1.079785 S    
P8    O24   1.751709 S    
C6    H11   1.110423 S    
P4    O15   1.754031 S    
P1    C22   1.846597 S    
N3    N4    1.340933 A    
C6    C7    1.523547 S    
C38   C44   1.395033 A    
O33   H54   0.990540 S    
C1    H3    1.110589 S    
S4    O34   1.502597 D    
Ba2   O21   2.830800 S    
C33   H47   1.085067 S    
S4    O36   1.681688 S    
S2    O29   1.502945 D    
P2    O7    1.522875 D    
P3    O8    1.735379 S    
C9    H20   1.110532 S    
C46   H56   1.109127 S    
S1    O25   1.502294 D    
C3    H28   1.111712 S    
C15   C16   1.523426 S    
S3    O33   1.681939 S    
C40   C41   1.413666 A    
O8    Ba1   2.801064 S    
O13   Ba2   2.904193 S    
C33   C34   1.357761 D    
C3    S4    1.794306 S    
C19   H38   1.085842 S    
C4    O15   1.414789 S    
C44   C46   1.496274 S    
P2    Ba1   3.372319 S    
P5    C38   1.839445 S    
C13   H29   1.114756 S    
S1    O26   1.502639 D    
C15   O24   1.397506 S    
C39   C40   1.404012 A    
C34   C35   1.514934 S    
O27   H49   0.990493 S    
Ba1   Ba2   4.545902 S    
C46   H55   1.093364 S    
O1    Ba1   2.822385 S    
C12   H25   1.110192 S    
C45   H52   1.110105 S    
P5    O19   1.748195 S    
C45   H51   1.099429 S    
C11   C12   1.522060 S    
C15   H34   1.108582 S    
P8    O23   1.547317 D    
C10   H21   1.107677 S    
C23   C29   1.522466 S    
C34   C42   1.487570 S    
P1    Ba1   3.374993 S    
C7    H14   1.109645 S    
C1    C10   1.519913 S    
O16   P7    1.775526 S    
C42   H46   1.083289 S    
C27   C28   1.405486 A    
O3    Ba1   2.753295 S    
C41   C43   1.488287 S    
C13   S2    1.796685 S    
C15   H33   1.108627 S    
P2    O20   1.578536 S    
O19   C13   1.410525 S    
N1    N2    1.333782 A    
P4    Ba2   3.375680 S    
P7    O22   1.759204 S    
P3    O9    1.546706 D    
C28   C29   1.413626 A    
C3    H6    1.110968 S    
C28   H40   1.082689 S    
C17   H41   1.086490 S    
P1    O2    1.559749 S    
C42   C43   1.354612 D    
C37   C38   1.394594 A    
O6    C10   1.407537 S    
N1    C23   1.359188 A    
C5    H9    1.105337 S    
P4    C26   1.869530 S    
