data_mof_unit_13800.cif
_audit_creation_date              2013-03-05T16:12:26-0500
_audit_creation_method            fapswitch 2.2
_symmetry_space_group_name_H-M    P1
_symmetry_Int_Tables_number       1
_space_group_crystal_system       triclinic
_cell_length_a                    10.714604
_cell_length_b                    9.891405
_cell_length_c                    23.323802
_cell_angle_alpha                 89.923818
_cell_angle_beta                  90.842706
_cell_angle_gamma                 90.010096
_cell_volume                      2471.64497684

loop_
_atom_site_label
_atom_site_type_symbol
_atom_site_description
_atom_site_fract_x
_atom_site_fract_y
_atom_site_fract_z
_atom_type_partial_charge
O1    O     O_R   0.316770 0.614620 0.500000 -0.601745
O2    O     O_R   0.683230 0.385380 0.500000 -0.590126
O3    O     O_R   0.683230 0.614620 0.500000 -0.606177
O4    O     O_R   0.316770 0.385380 0.500000 -0.594349
C1    C     C_R   0.260017 0.500017 0.499354 0.973373
C2    C     C_R   0.739981 0.500016 0.500084 0.952255
O5    O     O_R   0.499970 0.614690 0.416160 -0.578466
O6    O     O_R   0.500030 0.385310 0.583840 -0.554512
O7    O     O_R   0.500030 0.614690 0.583840 -0.578274
O8    O     O_R   0.499970 0.385310 0.416160 -0.551226
C3    C     C_R   0.500266 0.500112 0.389680 1.031991
C4    C     C_R   0.499793 0.500003 0.610339 1.032375
Zn1   Zn    Zn3+2 0.500000 0.653120 0.500000 1.094891
Zn2   Zn    Zn3+2 0.500000 0.346880 0.500000 1.117128
C5    C     C_R   0.513258 0.640769 0.879980 0.651508
C6    C     C_R   0.411500 0.420632 0.119602 0.654237
N1    N     N_R   0.480568 0.525341 0.851904 -0.344301
N2    N     N_R   0.451094 0.532224 0.148640 -0.344463
C7    C     C_R   0.435022 0.414884 0.879456 0.646583
C8    C     C_R   0.486788 0.647635 0.121529 0.645083
C9    C     C_R   0.416384 0.418127 0.938979 -0.148796
C10   C     C_R   0.491660 0.652090 0.061168 -0.148878
C11   C     C_R   0.457302 0.534191 0.969742 -0.071365
C12   C     C_R   0.449948 0.536716 0.030106 -0.074041
C13   C     C_R   0.506602 0.647098 0.940146 -0.172653
C14   C     C_R   0.402832 0.422542 0.059514 -0.169926
C15   C     C_R   0.357674 0.310680 0.968476 0.370420
C16   C     C_R   0.538909 0.765421 0.031063 0.369504
C17   C     C_R   0.351388 0.312794 0.028345 0.243912
C18   C     C_R   0.546748 0.762416 0.971200 0.243459
O9    O     O_2   0.551383 0.748230 0.849154 -0.425361
O10   O     O_2   0.384532 0.307377 0.149295 -0.424678
O11   O     O_2   0.410426 0.302358 0.848741 -0.414954
O12   O     O_2   0.518295 0.755883 0.153638 -0.417042
C19   C     C_R   0.581124 0.511312 0.234330 -0.164377
C20   C     C_R   0.378988 0.538410 0.758655 -0.160437
H1    H     H_    0.661683 0.508476 0.206827 0.220912
H2    H     H_    0.291858 0.556871 0.780308 0.220578
C21   C     C_R   0.596338 0.498877 0.293560 0.231597
C22   C     C_R   0.380471 0.526575 0.699302 0.246725
C23   C     C_R   0.488905 0.501075 0.327879 -0.296331
C24   C     C_R   0.494898 0.500871 0.672276 -0.303074
C25   C     C_R   0.368870 0.514690 0.303041 0.308992
C26   C     C_R   0.605987 0.485805 0.704611 0.303796
C27   C     C_R   0.355757 0.527379 0.243632 0.431905
C28   C     C_R   0.602265 0.494810 0.764424 0.425715
C29   C     C_R   0.462330 0.525064 0.209580 0.050694
C30   C     C_R   0.488308 0.521466 0.790989 0.053792
C31   C     C_R   0.063764 0.376799 0.497692 -0.072359
C32   C     C_R   0.936181 0.623314 0.500620 -0.098585
C33   C     C_R   0.936035 0.376784 0.498052 -0.069308
C34   C     C_R   0.063911 0.623324 0.500279 -0.077565
H3    H     H_    0.112089 0.280666 0.496631 0.199511
H4    H     H_    0.887867 0.719456 0.501728 0.200614
H5    H     H_    0.887599 0.280639 0.497084 0.199031
H6    H     H_    0.112347 0.719463 0.501293 0.198413
C35   C     C_R   0.872505 0.500037 0.499654 -0.020871
C36   C     C_R   0.127446 0.500056 0.498951 -0.003398
C37   C     C_R   0.578071 0.071687 0.536012 0.316370
C38   C     C_R   0.421994 0.928296 0.463951 0.314915
C39   C     C_R   0.421997 0.071953 0.463946 0.316071
C40   C     C_R   0.578013 0.928034 0.536047 0.313118
N3    N     N_R   0.500000 0.857200 0.500000 -0.202854
N4    N     N_R   0.500000 0.142800 0.500000 -0.202590
Cl1   Cl    Cl    0.279016 0.176809 0.932415 -0.318715
Cl2   Cl    Cl    0.596941 0.912668 0.065822 -0.325686
N5    N     N_R   0.285274 0.206496 0.056842 0.280417
O13   O     O_R   0.326039 0.082720 0.054989 -0.230717
O14   O     O_R   0.179864 0.232244 0.081584 -0.238535
N6    N     N_R   0.601115 0.876046 0.942654 0.279017
O15   O     O_R   0.537703 0.987305 0.936270 -0.234384
O16   O     O_R   0.718386 0.873329 0.929021 -0.234278
N7    N     N_R   0.720398 0.485802 0.317751 0.229159
O17   O     O_R   0.815708 0.534286 0.290522 -0.263555
O18   O     O_R   0.740815 0.413950 0.363689 -0.382090
N8    N     N_R   0.265270 0.537866 0.667316 0.223565
O19   O     O_R   0.178726 0.620387 0.684227 -0.286957
O20   O     O_R   0.238374 0.450630 0.627356 -0.391293
Cl3   Cl    Cl    0.234572 0.516415 0.346301 -0.411521
Cl4   Cl    Cl    0.749806 0.458528 0.670225 -0.382735
Cl5   Cl    Cl    0.206784 0.548578 0.211501 -0.347486
Cl6   Cl    Cl    0.738853 0.471508 0.806458 -0.361592
Cl7   Cl    Cl    0.679952 0.158633 0.582859 -0.413921
Cl8   Cl    Cl    0.320410 0.841308 0.416955 -0.425129
Cl9   Cl    Cl    0.320567 0.159312 0.416874 -0.427558
Cl10  Cl    Cl    0.679456 0.840638 0.583112 -0.432389

loop_
_geom_bond_atom_site_label_1
_geom_bond_atom_site_label_2
_geom_bond_distance
_ccdc_geom_bond_type
C15   C17   1.399185 A    
N7    O18   1.300804 A    
N7    O17   1.301654 A    
C16   Cl2   1.775719 S    
N1    C30   1.424974 S    
O3    C2    1.286459 A    
C19   C29   1.396453 A    
N2    C29   1.426336 S    
C21   C23   1.411869 A    
O5    C3    1.291439 A    
C40   Cl10  1.759658 S    
C37   N4    1.370390 A    
C32   H4    1.083348 S    
C1    C36   1.420340 S    
C38   N3    1.370401 A    
O1    C1    1.286289 A    
N8    O20   1.300171 A    
C7    C9    1.405907 A    
C37   Cl7   1.758476 S    
C5    C13   1.407634 A    
C25   Cl3   1.769651 S    
O7    Zn1   1.991571 S    
C4    C24   1.446370 S    
C17   N5    1.435555 S    
C31   C33   1.368716 A    
C32   C34   1.368720 A    
C11   C12   1.411532 A    
C3    C23   1.444803 S    
N6    O15   1.300683 A    
C33   C35   1.397221 A    
N2    C8    1.361739 A    
O3    Zn1   1.999895 S    
C8    O12   1.347529 S    
C22   C24   1.410111 A    
C9    C15   1.417432 A    
C10   C16   1.419202 A    
C23   C25   1.409194 A    
C2    C35   1.420123 S    
O2    C2    1.286563 A    
C24   C26   1.407509 A    
C18   N6    1.433560 S    
C26   C28   1.399173 A    
C27   C29   1.400697 A    
C6    C14   1.403293 A    
C34   C36   1.397161 A    
C28   C30   1.402523 A    
N5    O13   1.300959 A    
C28   Cl6   1.764482 S    
C26   Cl4   1.768522 S    
N8    O19   1.301374 A    
C7    O11   1.348325 S    
C31   C36   1.397161 A    
C22   N8    1.437141 S    
C38   C39   1.420978 A    
N5    O14   1.301212 A    
C39   N4    1.370194 A    
C19   C21   1.393944 A    
C40   N3    1.370091 A    
C15   Cl1   1.775618 S    
Zn1   N3    2.018638 S    
C20   C22   1.389755 A    
O6    C4    1.292651 A    
Zn2   N4    2.018638 S    
C25   C27   1.396184 A    
C39   Cl9   1.759502 S    
C8    C10   1.410224 A    
C9    C11   1.420485 A    
O8    Zn2   1.991573 S    
C10   C12   1.421080 A    
O1    Zn1   1.999765 S    
C13   C18   1.415483 A    
C5    N1    1.360211 A    
C37   C40   1.420931 A    
O6    Zn2   1.992563 S    
C19   H1    1.083354 S    
C32   C35   1.397213 A    
C27   Cl5   1.765768 S    
C12   C14   1.417264 A    
O4    C1    1.286742 A    
C5    O9    1.349109 S    
C6    O10   1.349732 S    
C20   H2    1.083572 S    
C38   Cl8   1.758870 S    
C31   H3    1.083293 S    
C16   C18   1.400340 A    
N1    C7    1.360893 A    
C20   C30   1.393757 A    
C33   H5    1.083417 S    
C21   N7    1.442152 S    
O4    Zn2   1.999896 S    
O2    Zn2   1.999764 S    
O7    C4    1.291156 A    
O8    C3    1.291944 A    
O5    Zn1   1.992566 S    
C11   C13   1.418202 A    
C14   C17   1.414523 A    
C6    N2    1.360310 A    
N6    O16   1.300943 A    
C34   H6    1.083383 S    
