data_mof_unit_53058.cif
_audit_creation_date              2012-12-10T17:57:25-0500
_audit_creation_method            fapswitch 2.2
_symmetry_space_group_name_H-M    P1
_symmetry_Int_Tables_number       1
_space_group_crystal_system       triclinic
_cell_length_a                    9.544345
_cell_length_b                    10.830798
_cell_length_c                    13.40667
_cell_angle_alpha                 89.816128
_cell_angle_beta                  72.552527
_cell_angle_gamma                 90.6341
_cell_volume                      1322.01254757

loop_
_atom_site_label
_atom_site_type_symbol
_atom_type_description
_atom_site_fract_x
_atom_site_fract_y
_atom_site_fract_z
_atom_type_partial_charge
C1    C     C_R   0.501379 0.737874 0.497654 0.837623
C2    C     C_R   0.428285 0.502738 0.982075 0.004261
C3    C     C_R   0.456969 0.540857 0.876891 -0.031946
C4    C     C_R   0.540643 0.525293 0.031009 0.048004
C5    C     C_R   0.672535 0.593585 0.977203 0.014806
C6    C     C_R   0.682875 0.646521 0.877634 0.090006
C7    C     C_R   0.565267 0.631462 0.836763 0.154002
C8    C     C_R   0.529716 0.474779 0.129675 -0.172935
C9    C     C_R   0.754976 0.571077 0.132540 -0.156230
C10   C     C_R   0.371872 0.492490 0.815589 -0.127389
C11   C     C_R   0.624223 0.937781 0.505790 -0.115451
C12   C     C_R   0.421130 0.499882 0.700409 0.839543
C13   C     C_R   0.623193 0.065340 0.506921 -0.156451
C14   C     C_R   0.499880 0.128378 0.498267 -0.028976
C15   C     C_R   0.377862 0.062751 0.487891 -0.165492
C16   C     C_R   0.379083 0.934966 0.486517 -0.150478
C17   C     C_R   0.502165 0.871913 0.495831 -0.019699
C18   C     C_R   0.953295 0.586097 0.443030 0.288244
C19   C     C_R   0.100398 0.586132 0.444580 0.024216
C20   C     C_R   0.048882 0.415048 0.557460 -0.012901
C21   C     C_R   0.900084 0.415320 0.557745 -0.029268
C22   C     C_R   0.499585 0.262183 0.499672 0.781371
C23   C     C_R   0.578777 0.498096 0.299510 0.824149
C24   C     C_R   0.783137 0.609068 0.029074 0.169124
C25   C     C_R   0.624949 0.510580 0.184977 -0.123305
C26   C     C_R   0.246742 0.421548 0.863011 -0.193307
C27   C     C_R   0.200680 0.402665 0.970211 0.184780
C28   C     C_R   0.286774 0.447277 0.031953 0.117882
Cu1   Cu    Cu3+1 0.359340 0.499980 0.500000 0.980577
Cu2   Cu    Cu3+1 0.640660 0.500020 0.500000 0.999373
H1    H     H_    0.834969 0.591823 0.172674 0.211131
H2    H     H_    0.718462 0.114276 0.515520 0.156929
H3    H     H_    0.281762 0.109864 0.480748 0.159184
H4    H     H_    0.283539 0.885836 0.478601 0.163116
H5    H     H_    0.177859 0.653862 0.399179 0.151893
H6    H     H_    0.084402 0.346845 0.603520 0.125597
H7    H     H_    0.823896 0.347418 0.604080 0.132195
H8    H     H_    0.449100 0.405404 0.165239 0.179644
H9    H     H_    0.182152 0.382021 0.816615 0.172128
H10   H     H_    0.719268 0.891075 0.514988 0.189127
N1    N     N_R   0.147940 0.499970 0.499970 -0.173951
N2    N     N_R   0.852060 0.500060 0.499990 -0.171703
O1    O     O_R   0.381250 0.680340 0.500010 -0.589233
O2    O     O_R   0.618820 0.680370 0.500010 -0.552719
O3    O     O_R   0.323240 0.499950 0.650980 -0.573498
O4    O     O_R   0.560810 0.499980 0.650980 -0.564947
O5    O     O_R   0.381180 0.319630 0.499990 -0.592413
O6    O     O_R   0.618750 0.319660 0.499990 -0.592305
O7    O     O_R   0.439190 0.500020 0.349020 -0.562260
O8    O     O_R   0.676760 0.500050 0.349020 -0.559510
I1    I     I_    0.910385 0.722941 0.342872 -0.365562
I2    I     I_    0.868288 0.742896 0.773521 -0.370413
N3    N     N_3   0.923340 0.666508 0.983488 -0.563259
H11   H     H_    0.981212 0.618374 0.916741 0.259982
H12   H     H_    0.910042 0.759851 0.969528 0.268157
I3    I     I_    0.170522 0.460567 0.195161 -0.426736
N4    N     N_3   0.065219 0.336489 0.014483 -0.577083
H13   H     H_    0.989079 0.395511 0.063055 0.255189
H14   H     H_    0.084283 0.262647 0.058932 0.249150
I4    I     I_    0.507855 0.783689 0.755724 -0.311962

loop_
_geom_bond_atom_site_label_1
_geom_bond_atom_site_label_2
_ccdc_geom_bond_type
C22   O6    A    
C9    C24   A    
C6    C7    A    
C2    C3    A    
C2    C28   A    
C13   H2    S    
C1    C17   S    
C4    C8    A    
Cu1   N1    S    
C10   C26   A    
N3    H12   S    
C22   O5    A    
N4    H13   S    
C9    C25   A    
C3    C10   A    
Cu1   O7    S    
C13   C14   A    
Cu1   O1    S    
C8    C25   A    
C11   C13   A    
C14   C22   S    
C26   C27   A    
Cu1   Cu2   S    
C5    C24   A    
C8    H8    S    
Cu1   O5    S    
C5    C6    A    
C2    C4    A    
C10   C12   S    
Cu2   O6    S    
Cu2   O4    S    
C18   I1    S    
C20   N1    A    
C3    C7    A    
Cu2   O2    S    
C18   N2    A    
C28   I3    S    
C11   H10   S    
Cu2   O8    S    
C26   H9    S    
N4    H14   S    
Cu1   O3    S    
C23   O7    A    
C9    H1    S    
C15   C16   A    
C20   H6    S    
C6    I2    S    
C7    I4    S    
C4    C5    A    
C23   C25   S    
C21   H7    S    
C20   C21   A    
C12   O4    A    
C18   C19   A    
C27   N4    S    
C19   N1    A    
C27   C28   A    
C14   C15   A    
C16   C17   A    
C23   O8    A    
C19   H5    S    
C1    O2    A    
C16   H4    S    
C24   N3    S    
N3    H11   S    
C1    O1    A    
Cu2   N2    S    
C21   N2    A    
C15   H3    S    
C12   O3    A    
C11   C17   A    
