data_mof_unit_58528.cif
_audit_creation_date              2012-12-10T16:58:56-0500
_audit_creation_method            fapswitch 2.2
_symmetry_space_group_name_H-M    P1
_symmetry_Int_Tables_number       1
_space_group_crystal_system       triclinic
_cell_length_a                    9.72305
_cell_length_b                    10.918406
_cell_length_c                    17.324914
_cell_angle_alpha                 90.327303
_cell_angle_beta                  86.276206
_cell_angle_gamma                 89.880565
_cell_volume                      1835.29788468

loop_
_atom_site_label
_atom_site_type_symbol
_atom_type_description
_atom_site_fract_x
_atom_site_fract_y
_atom_site_fract_z
_atom_type_partial_charge
C1    C     C_R   0.500146 0.734376 0.497235 0.811531
C2    C     C_R   0.364657 0.433536 0.776504 0.426328
C3    C     C_R   0.416320 0.471642 0.146803 -0.108592
C4    C     C_R   0.414290 0.464616 0.226503 -0.291936
C5    C     C_R   0.638632 0.563468 0.224288 0.418270
C6    C     C_R   0.644195 0.565701 0.143242 0.325456
C7    C     C_R   0.531145 0.519579 0.104420 0.032416
C8    C     C_2   0.497226 0.430060 0.976426 0.434775
C9    C     C_2   0.527454 0.527034 0.020206 -0.302450
C10   C     C_R   0.525338 0.508781 0.265838 -0.215099
C11   C     C_2   0.607180 0.066706 0.487714 -0.196102
C12   C     C_R   0.482464 0.498038 0.649833 0.825467
C13   C     C_2   0.498106 0.133479 0.515078 0.270637
C14   C     C_2   0.612092 0.933293 0.494342 -0.142656
C15   C     C_2   0.498645 0.865771 0.488489 -0.249481
C16   C     C_2   0.075027 0.587418 0.532406 0.646481
C17   C     C_2   0.922673 0.597116 0.512325 0.068699
C18   C     C_R   0.499661 0.265512 0.503339 0.711719
C19   C     C_R   0.517646 0.502131 0.350244 0.816515
C20   C     C_R   0.476863 0.488669 0.734208 -0.115465
C21   C     C_R   0.592329 0.527012 0.772456 -0.234776
C22   C     C_R   0.599104 0.507314 0.850952 -0.218633
C23   C     C_R   0.490371 0.449095 0.892727 -0.011476
C24   C     C_R   0.373732 0.412084 0.855638 -0.251051
Cu1   Cu    Cu3+1 0.361370 0.499980 0.499980 1.016427
Cu2   Cu    Cu3+1 0.638630 0.500020 0.500020 0.974321
H1    H     H_    0.678999 0.570642 0.741301 0.162122
H2    H     H_    0.697449 0.110951 0.460161 0.124790
H3    H     H_    0.711492 0.890565 0.501306 0.147544
H4    H     H_    0.401496 0.907123 0.475087 0.196138
H5    H     H_    0.875379 0.686564 0.509435 0.022415
H6    H     H_    0.324979 0.424863 0.257475 0.189596
H7    H     H_    0.553365 0.614475 0.993321 0.125305
H8    H     H_    0.290170 0.366016 0.888055 0.160727
H9    H     H_    0.327078 0.440139 0.118099 0.193603
H10   H     H_    0.690299 0.535810 0.878975 0.135597
N1    N     N_2   0.152990 0.501340 0.500850 -0.026327
N2    N     N_2   0.846850 0.501370 0.500880 0.003616
O1    O     O_R   0.382960 0.678040 0.499990 -0.543638
O2    O     O_R   0.617100 0.678080 0.500010 -0.605146
O3    O     O_R   0.369350 0.500000 0.613580 -0.519542
O4    O     O_R   0.603500 0.500040 0.613610 -0.608808
O5    O     O_R   0.382900 0.321920 0.499990 -0.626366
O6    O     O_R   0.617040 0.321960 0.500010 -0.607579
O7    O     O_R   0.396500 0.499960 0.386390 -0.585518
O8    O     O_R   0.630650 0.500000 0.386420 -0.525387
O9    O     O_3   0.761411 0.613305 0.105147 -0.718201
H11   H     H_    0.762396 0.594069 0.049289 0.316994
O10   O     O_3   0.389980 0.079183 0.558216 -0.747661
H12   H     H_    0.324729 0.143432 0.578281 0.335290
O11   O     O_3   0.134859 0.665043 0.584979 -0.590143
C25   C     C_3   0.048760 0.763043 0.610700 -0.041555
H13   H     H_    0.953061 0.728456 0.641971 0.138731
H14   H     H_    0.023479 0.821767 0.561226 0.144304
C26   C     C_3   0.125001 0.842226 0.666385 -0.717604
H15   H     H_    0.221603 0.877808 0.636973 0.277586
H16   H     H_    0.059074 0.920835 0.686396 0.200176
H17   H     H_    0.150958 0.787710 0.717377 0.224384
O12   O     O_3   0.107713 0.462884 0.432371 -0.500155
C27   C     C_3   0.135442 0.336767 0.422686 0.279479
H18   H     H_    0.127081 0.286218 0.478534 0.156647
H19   H     H_    0.238796 0.323125 0.393198 0.148860
C28   C     C_3   0.032563 0.281600 0.369739 -0.832415
H20   H     H_    0.040306 0.328435 0.312869 0.253665
H21   H     H_    0.055186 0.182665 0.360480 0.185750
H22   H     H_    0.925748 0.291471 0.395735 0.285408
O13   O     O_3   0.898432 0.399001 0.530832 -0.686539
H23   H     H_    0.819646 0.354052 0.555183 0.369275
O14   O     O_3   0.746593 0.612448 0.262450 -0.526138
C29   C     C_3   0.717606 0.737328 0.278126 0.120536
H24   H     H_    0.620077 0.748238 0.315057 0.100756
H25   H     H_    0.709347 0.789396 0.223480 0.155301
C30   C     C_3   0.833976 0.792440 0.321347 -0.749572
H26   H     H_    0.932610 0.785555 0.285473 0.254594
H27   H     H_    0.811614 0.890387 0.334616 0.182708
H28   H     H_    0.844150 0.742817 0.376347 0.246302
O15   O     O_3   0.253938 0.387819 0.739361 -0.575513
C31   C     C_3   0.138984 0.465021 0.755861 0.065862
H29   H     H_    0.160903 0.559263 0.734193 0.174669
H30   H     H_    0.109793 0.469113 0.819068 0.125007
C32   C     C_3   0.016785 0.414984 0.715334 -0.727525
H31   H     H_    0.985335 0.325031 0.740242 0.234398
H32   H     H_    0.928584 0.479687 0.722639 0.188009
H33   H     H_    0.045566 0.402765 0.652795 0.274360
O16   O     O_3   0.462135 0.318713 0.011070 -0.580113
C33   C     C_3   0.531362 0.221152 0.971089 0.082183
H34   H     H_    0.642957 0.241750 0.958804 0.140378
H35   H     H_    0.483124 0.201118 0.915966 0.156456
C34   C     C_3   0.520276 0.106937 0.020918 -0.779903
H36   H     H_    0.410261 0.082453 0.033302 0.249728
H37   H     H_    0.573982 0.029281 0.990106 0.199683
H38   H     H_    0.568593 0.123557 0.076382 0.251094

loop_
_geom_bond_atom_site_label_1
_geom_bond_atom_site_label_2
_ccdc_geom_bond_type
C8    C9    D    
C26   H15   S    
C28   H21   S    
C30   H26   S    
C16   O11   S    
Cu1   O5    S    
C32   H31   S    
C19   O8    A    
Cu2   O6    S    
O15   C31   S    
C13   C18   S    
C27   C28   S    
C3    C7    A    
C5    C6    A    
C11   C14   S    
C33   H35   S    
C8    C23   S    
C27   H19   S    
C8    O16   S    
C5    O14   S    
C1    O2    A    
Cu1   N1    S    
C16   C17   S    
C12   O4    A    
C23   C24   A    
C29   H24   S    
C1    C15   S    
C34   H37   S    
C25   C26   S    
C16   N1    D    
C21   H1    S    
C28   H22   S    
O12   C27   S    
C21   C22   A    
C9    H7    S    
C30   H27   S    
C32   H32   S    
C25   H14   S    
C6    O9    S    
C2    C20   A    
O11   C25   S    
Cu1   O3    S    
Cu2   O8    S    
C31   H29   S    
Cu2   N2    S    
Cu1   Cu2   S    
O16   C33   S    
C24   H8    S    
O13   H23   S    
C27   H18   S    
C12   O3    A    
C18   O6    A    
O9    H11   S    
C14   C15   D    
C3    H9    S    
C10   C19   S    
C12   C20   S    
C29   C30   S    
C4    H6    S    
N2    O13   S    
C34   H38   S    
N1    O12   S    
C13   O10   S    
C26   H16   S    
C2    C24   A    
C17   H5    S    
C30   H28   S    
C14   H3    S    
C4    C10   A    
C3    C4    A    
Cu1   O7    S    
C32   H33   S    
C25   H13   S    
Cu2   O4    S    
C15   H4    S    
C7    C9    S    
C33   H34   S    
C33   C34   S    
C19   O7    A    
C6    C7    A    
C22   H10   S    
C5    C10   A    
C2    O15   S    
C18   O5    A    
Cu1   O1    S    
C11   C13   D    
C31   C32   S    
Cu2   O2    S    
C11   H2    S    
C31   H30   S    
C17   N2    D    
O14   C29   S    
C1    O1    A    
C28   H20   S    
C20   C21   A    
O10   H12   S    
C26   H17   S    
C22   C23   A    
C29   H25   S    
C34   H36   S    
