data_mof_unit_10259.cif
_audit_creation_date              2012-12-10T17:14:29-0500
_audit_creation_method            fapswitch 2.2
_symmetry_space_group_name_H-M    P1
_symmetry_Int_Tables_number       1
_space_group_crystal_system       triclinic
_cell_length_a                    15.534908
_cell_length_b                    14.861892
_cell_length_c                    10.226992
_cell_angle_alpha                 89.957207
_cell_angle_beta                  82.744653
_cell_angle_gamma                 90.011481
_cell_volume                      2342.28233869

loop_
_atom_site_label
_atom_site_type_symbol
_atom_type_description
_atom_site_fract_x
_atom_site_fract_y
_atom_site_fract_z
_atom_type_partial_charge
C1    C     C_R   0.389756 0.122604 0.552578 0.943874
C2    C     C_2   0.510665 0.007828 0.068951 -0.051299
C3    C     C_2   0.989124 0.506975 0.930914 -0.050867
C4    C     C_2   0.010656 0.507971 0.068952 -0.051332
C5    C     C_2   0.313473 0.821791 0.589404 -0.370636
C6    C     C_2   0.665423 0.200327 0.422265 -0.363942
C7    C     C_2   0.686573 0.821931 0.410655 -0.373014
C8    C     C_2   0.334393 0.200061 0.577847 -0.364590
C9    C     C_2   0.813463 0.321802 0.589406 -0.370834
C10   C     C_2   0.165410 0.700340 0.422280 -0.363882
C11   C     C_2   0.186582 0.321941 0.410654 -0.373218
C12   C     C_R   0.614526 0.881948 0.445111 0.948463
C13   C     C_2   0.834406 0.700074 0.577834 -0.364525
C14   C     C_2   0.257177 0.810515 0.502827 -0.151494
C15   C     C_2   0.692831 0.241624 0.524930 -0.160314
C16   C     C_2   0.742657 0.810334 0.497474 -0.151077
C17   C     C_2   0.307097 0.241600 0.475241 -0.159576
C18   C     C_2   0.757184 0.310508 0.502806 -0.151451
C19   C     C_2   0.192834 0.741620 0.524947 -0.160373
C20   C     C_2   0.242650 0.310327 0.497493 -0.151036
C21   C     C_2   0.807095 0.741597 0.475225 -0.159632
C22   C     C_R   0.602210 0.020690 0.090095 0.232360
C23   C     C_R   0.610206 0.122672 0.447411 0.944224
C24   C     C_R   0.656140 0.945900 0.100238 -0.141024
C25   C     C_R   0.744525 0.957946 0.108759 -0.170465
C26   C     C_R   0.780110 0.044459 0.102537 -0.106489
C27   C     C_R   0.727528 0.118931 0.086412 -0.178238
C28   C     C_R   0.638927 0.107163 0.079215 -0.150087
C29   C     C_R   0.397214 0.016158 0.909587 0.233232
C30   C     C_R   0.345533 0.939304 0.901943 -0.143972
C31   C     C_R   0.256776 0.948006 0.893559 -0.170615
C32   C     C_R   0.218628 0.033272 0.897077 -0.105587
C33   C     C_R   0.268984 0.109851 0.910597 -0.176649
C34   C     C_R   0.385483 0.881915 0.554924 0.948948
C35   C     C_R   0.357882 0.101390 0.918157 -0.148521
C36   C     C_R   0.102169 0.521083 0.090084 0.232327
C37   C     C_R   0.156251 0.446445 0.100448 -0.140848
C38   C     C_R   0.244606 0.458726 0.108976 -0.170465
C39   C     C_R   0.280013 0.545319 0.102520 -0.106555
C40   C     C_R   0.227282 0.619634 0.086167 -0.178365
C41   C     C_R   0.138706 0.607634 0.078997 -0.150130
C42   C     C_R   0.897238 0.516514 0.909588 0.233216
C43   C     C_R   0.845421 0.439786 0.901739 -0.143822
C44   C     C_R   0.756685 0.448695 0.893336 -0.170592
C45   C     C_R   0.889759 0.622607 0.552576 0.943882
C46   C     C_R   0.718689 0.534040 0.897065 -0.105645
C47   C     C_R   0.769179 0.610488 0.910802 -0.176739
C48   C     C_R   0.858062 0.601823 0.918348 -0.148565
C49   C     C_R   0.114528 0.381950 0.445111 0.948457
C50   C     C_R   0.110204 0.622674 0.447414 0.944225
C51   C     C_R   0.885481 0.381917 0.554924 0.948961
C52   C     C_2   0.489121 0.006840 0.930919 -0.050846
H1    H     H_    0.387415 0.989733 0.151555 0.164256
H2    H     H_    0.763297 0.346116 0.409051 0.185780
H3    H     H_    0.826006 0.719564 0.374213 0.187539
H4    H     H_    0.236314 0.345557 0.591481 0.185856
H5    H     H_    0.684496 0.223178 0.321852 0.151284
H6    H     H_    0.307157 0.785810 0.682773 0.142255
H7    H     H_    0.315099 0.222517 0.678375 0.149493
H8    H     H_    0.693127 0.786347 0.317031 0.142011
H9    H     H_    0.184460 0.723218 0.321877 0.151443
H10   H     H_    0.807125 0.285846 0.682796 0.142220
H11   H     H_    0.815134 0.722556 0.678352 0.149626
H12   H     H_    0.612860 0.992067 0.848584 0.163999
H13   H     H_    0.193155 0.286378 0.317012 0.141991
H14   H     H_    0.629759 0.878401 0.100997 0.123007
H15   H     H_    0.785582 0.900144 0.118707 0.128652
H16   H     H_    0.848615 0.053690 0.108456 0.126906
H17   H     H_    0.755449 0.185762 0.079166 0.124627
H18   H     H_    0.598922 0.165204 0.065206 0.115426
H19   H     H_    0.373994 0.872802 0.902790 0.122304
H20   H     H_    0.217443 0.888606 0.885637 0.127746
H21   H     H_    0.149862 0.039926 0.891082 0.126704
H22   H     H_    0.239080 0.175742 0.915747 0.124878
H23   H     H_    0.887450 0.489546 0.151514 0.164205
H24   H     H_    0.396126 0.161049 0.930365 0.115648
H25   H     H_    0.130017 0.378880 0.101342 0.123086
H26   H     H_    0.285780 0.401041 0.119095 0.128723
H27   H     H_    0.348497 0.554730 0.108432 0.126918
H28   H     H_    0.255066 0.686524 0.078742 0.124617
H29   H     H_    0.098583 0.665555 0.064827 0.115360
H30   H     H_    0.873755 0.373220 0.902461 0.122371
H31   H     H_    0.717247 0.389393 0.885249 0.127818
H32   H     H_    0.649939 0.540852 0.891068 0.126716
H33   H     H_    0.739394 0.676438 0.916115 0.124855
H34   H     H_    0.112833 0.491901 0.848628 0.163945
H35   H     H_    0.896412 0.661381 0.930707 0.115575
H36   H     H_    0.674114 0.219279 0.625893 0.187748
H37   H     H_    0.263269 0.846146 0.409092 0.185785
H38   H     H_    0.326030 0.219589 0.374224 0.187512
H39   H     H_    0.736340 0.845585 0.591445 0.185860
H40   H     H_    0.174140 0.719253 0.625904 0.187782
N1    N     N_2   0.549450 0.000000 0.831550 -0.221217
N2    N     N_2   0.450550 0.000000 0.168450 -0.221129
N3    N     N_2   0.049450 0.500000 0.831550 -0.221173
N4    N     N_2   0.950550 0.500000 0.168450 -0.221084
O1    O     O_R   0.398960 0.091100 0.433300 -0.616712
O2    O     O_R   0.569290 0.908910 0.353790 -0.609044
O3    O     O_R   0.569290 0.091090 0.353790 -0.602175
O4    O     O_R   0.430710 0.908910 0.646210 -0.607568
O5    O     O_R   0.930710 0.591090 0.646210 -0.603325
O6    O     O_R   0.069290 0.408910 0.353790 -0.609166
O7    O     O_R   0.069290 0.591090 0.353790 -0.602100
O8    O     O_R   0.930710 0.408910 0.646210 -0.607679
O9    O     O_R   0.601040 0.908900 0.566700 -0.613353
O10   O     O_R   0.601040 0.091100 0.566700 -0.617108
O11   O     O_R   0.398960 0.908900 0.433300 -0.613774
O12   O     O_R   0.898960 0.591100 0.433300 -0.616701
O13   O     O_R   0.101040 0.408900 0.566700 -0.613332
O14   O     O_R   0.101040 0.591100 0.566700 -0.617100
O15   O     O_R   0.898960 0.408900 0.433300 -0.613758
O16   O     O_R   0.430710 0.091090 0.646210 -0.603397
Zn1   Zn    Zn3+2 0.478810 0.000000 0.357840 0.933354
Zn2   Zn    Zn3+2 0.521190 0.000000 0.642160 0.933406
Zn3   Zn    Zn3+2 0.978810 0.500000 0.357840 0.933347
Zn4   Zn    Zn3+2 0.021190 0.500000 0.642160 0.933403

loop_
_geom_bond_atom_site_label_1
_geom_bond_atom_site_label_2
_ccdc_geom_bond_type
C15   C18   S    
C23   O3    A    
C4    C36   S    
C3    C42   S    
C16   C21   S    
C1    C8    S    
C25   H15   S    
C20   H4    S    
C44   H31   S    
O16   Zn2   S    
C30   H19   S    
C26   C27   A    
C29   C30   A    
C5    H6    S    
O10   Zn2   S    
C34   O11   A    
C47   H33   S    
O12   Zn3   S    
C36   C37   A    
H12   N1    S    
C8    H7    S    
O8    Zn4   S    
C30   C31   A    
C50   O14   A    
C17   C20   S    
O11   Zn1   S    
C19   H40   S    
O13   Zn4   S    
C6    C15   D    
C4    N4    D    
C47   C48   A    
C9    C51   S    
C2    C22   S    
C34   O4    A    
C40   H28   S    
N4    Zn3   S    
O6    Zn3   S    
N3    Zn4   S    
C12   O2    A    
C27   H17   S    
C45   O12   A    
C24   H14   S    
C50   O7    A    
C22   C28   A    
C6    H5    S    
C36   C41   A    
N2    Zn1   S    
C44   C46   A    
H23   N4    S    
C7    C12   S    
C11   C20   D    
C35   H24   S    
C9    H10   S    
O9    Zn2   S    
C2    N2    D    
O4    Zn2   S    
C24   C25   A    
C1    O1    A    
C49   O6    A    
C21   H3    S    
C45   O5    A    
O2    Zn1   S    
C38   H26   S    
C51   O8    A    
C23   O10   A    
C37   H25   S    
C39   H27   S    
O7    Zn3   S    
C43   C44   A    
C14   H37   S    
C37   C38   A    
C11   C49   S    
C9    C18   D    
C31   C32   A    
C13   H11   S    
C10   C19   D    
C41   H29   S    
C5    C34   S    
C48   H35   S    
C13   C21   D    
C52   N1    D    
C42   C48   A    
C5    C14   D    
C2    C52   S    
C46   H32   S    
C40   C41   A    
C7    C16   D    
C22   C24   A    
C10   H9    S    
C42   C43   A    
O1    Zn1   S    
C3    C4    S    
C10   C50   S    
O14   Zn4   S    
C7    H8    S    
C32   H21   S    
C49   O13   A    
O5    Zn4   S    
C46   C47   A    
C31   H20   S    
C51   O15   A    
H1    N2    S    
C38   C39   A    
C14   C19   S    
C28   H18   S    
C17   H38   S    
O3    Zn1   S    
C3    N3    D    
C29   C35   A    
C8    C17   D    
C26   H16   S    
C32   C33   A    
C25   C26   A    
C1    O16   A    
C13   C45   S    
C12   O9    A    
C6    C23   S    
C33   C35   A    
N1    Zn2   S    
H34   N3    S    
C18   H2    S    
C39   C40   A    
C33   H22   S    
C16   H39   S    
C27   C28   A    
C43   H30   S    
O15   Zn3   S    
C11   H13   S    
C15   H36   S    
C29   C52   S    
