data_mof_unit_60990.cif
_audit_creation_date              2013-03-05T15:57:40-0500
_audit_creation_method            fapswitch 2.2
_symmetry_space_group_name_H-M    P1
_symmetry_Int_Tables_number       1
_space_group_crystal_system       triclinic
_cell_length_a                    7.014488
_cell_length_b                    17.240658
_cell_length_c                    18.624892
_cell_angle_alpha                 107.057654
_cell_angle_beta                  91.735803
_cell_angle_gamma                 91.438734
_cell_volume                      2150.95705453

loop_
_atom_site_label
_atom_site_type_symbol
_atom_site_description
_atom_site_fract_x
_atom_site_fract_y
_atom_site_fract_z
_atom_type_partial_charge
O1    O     O_R   0.505810 0.442350 0.559500 -0.571673
O2    O     O_R   0.167990 0.405060 0.411070 -0.566158
O3    O     O_R   0.005550 0.557650 0.440500 -0.572791
C1    C     C_R   0.334760 0.380925 0.383330 1.118092
O4    O     O_R   0.175580 0.432840 0.557140 -0.572638
O5    O     O_R   0.013190 0.585620 0.587600 -0.567746
C2    C     C_R   0.345060 0.416011 0.580471 0.995119
O6    O     O_R   0.498170 0.414380 0.412400 -0.575706
O7    O     O_3   0.341790 0.550090 0.509830 -0.250036
V1    V     V_3+5 0.063870 0.490710 0.498180 1.284041
O8    O     O_R   0.683930 0.594940 0.588930 -0.566175
C3    C     C_R   0.856850 0.616057 0.618015 1.135107
O9    O     O_R   0.676340 0.567160 0.442860 -0.570001
C4    C     C_R   0.844547 0.584046 0.419578 0.979885
V2    V     V_3+5 0.564820 0.509290 0.501820 1.280309
O10   O     O_3   0.836770 0.449910 0.490170 -0.258920
C5    C     C_1   0.854689 0.636148 0.367506 -0.217061
C6    C     C_1   0.866228 0.678727 0.323914 0.129330
C7    C     C_1   0.881584 0.728903 0.271983 0.058650
C8    C     C_1   0.894884 0.771138 0.228146 0.059619
C9    C     C_1   0.910254 0.821298 0.176203 0.132162
C10   C     C_1   0.921830 0.863852 0.132588 -0.210289
C11   C     C_3   0.786717 0.809643 0.736351 0.406463
C12   C     C_3   0.958550 0.770235 0.692015 0.232420
C13   C     C_3   0.877995 0.685304 0.689462 -0.593006
C14   C     C_3   0.705679 0.723962 0.733675 0.281128
C15   C     C_3   0.818642 0.729927 0.807630 0.361826
C16   C     C_3   0.990748 0.690186 0.763549 0.274699
C17   C     C_3   0.071359 0.776167 0.766178 0.299079
C18   C     C_3   0.899022 0.814813 0.810441 -0.613157
C19   C     C_3   0.504009 0.244882 0.307536 0.353303
C20   C     C_3   0.361140 0.177983 0.261889 0.393743
C21   C     C_3   0.427471 0.190194 0.187523 -0.494638
C22   C     C_3   0.573739 0.257238 0.232449 -0.204623
C23   C     C_3   0.417677 0.320899 0.238508 0.410753
C24   C     C_3   0.272799 0.254086 0.193655 0.216809
C25   C     C_3   0.208525 0.241699 0.268099 0.368781
C26   C     C_3   0.350248 0.309027 0.313025 -0.568253
H1    H     H_    0.717720 0.268020 0.213897 0.247876
C27   C     C_1   0.356304 0.363994 0.632559 -0.225553
C28   C     C_1   0.367744 0.321411 0.676158 0.125227
C29   C     C_1   0.382432 0.271186 0.728066 0.054912
C30   C     C_1   0.395049 0.228882 0.771884 0.054412
C31   C     C_1   0.409714 0.178655 0.823793 0.123890
C32   C     C_1   0.421101 0.136070 0.867393 -0.227215
O11   O     O_R   0.278780 0.085730 0.087540 -0.574044
O12   O     O_R   0.601620 0.067180 0.942850 -0.574062
O13   O     O_R   0.763750 0.914350 0.912410 -0.561512
C33   C     C_R   0.432205 0.084048 0.919484 0.994073
O14   O     O_R   0.608970 0.094960 0.088920 -0.577966
O15   O     O_R   0.771150 0.942330 0.059520 -0.570091
C34   C     C_R   0.442251 0.118980 0.116744 1.107545
O16   O     O_R   0.271380 0.057750 0.940430 -0.572713
O17   O     O_3   0.435070 0.949970 0.990140 -0.246661
V3    V     V_3+5 0.713090 0.009280 0.001830 1.284690
O18   O     O_R   0.100340 0.932730 0.057200 -0.571289
C35   C     C_R   0.932085 0.915914 0.080484 0.990805
O19   O     O_R   0.092990 0.904950 0.911140 -0.568553
C36   C     C_R   0.920093 0.883947 0.881978 1.149360
V4    V     V_3+5 0.212100 0.990570 0.998260 1.284729
O20   O     O_3   0.940260 0.050030 0.009860 -0.263810
Br1   Br    Br    0.061663 0.796508 0.605997 -0.345402
Cl1   Cl    Cl    0.456029 0.416550 0.221687 -0.551630
Br2   Br    Br    0.101105 0.265189 0.113867 -0.407600
Cl2   Cl    Cl    0.979876 0.219782 0.293121 -0.536789
Cl3   Cl    Cl    0.679865 0.892790 0.713809 -0.481652
Br3   Br    Br    0.463202 0.663849 0.710910 -0.352348
Cl4   Cl    Cl    0.721857 0.706019 0.886472 -0.492245
Br4   Br    Br    0.099331 0.598695 0.789145 -0.341464
Br5   Br    Br    0.313074 0.837121 0.788587 -0.338049
Cl5   Cl    Cl    0.324882 0.081229 0.277158 -0.504634
Br6   Br    Br    0.628052 0.233838 0.398917 -0.330686

loop_
_geom_bond_atom_site_label_1
_geom_bond_atom_site_label_2
_geom_bond_distance
_ccdc_geom_bond_type
O13   V3    2.011106 S    
C27   C28   1.246428 T    
C28   C29   1.478057 S    
C7    C8    1.247216 T    
C1    O6    1.298335 A    
C10   C35   1.504863 S    
O12   C33   1.321524 A    
O17   V4    1.722263 S    
C13   C16   1.548887 S    
C14   C15   1.543489 S    
C17   C18   1.537358 S    
C14   Br3   1.938236 S    
C11   Cl3   1.783514 S    
C9    C10   1.247121 T    
C16   C17   1.559855 S    
C6    C7    1.479143 S    
O5    C3    1.300394 A    
O19   V4    1.990137 S    
V2    O10   2.174137 S    
O11   C34   1.298303 A    
C21   C24   1.548306 S    
O18   C35   1.323865 A    
C22   C23   1.552692 S    
C11   C14   1.555851 S    
C12   C17   1.546416 S    
C15   Cl4   1.785645 S    
O8    V2    1.990284 S    
C16   Br4   1.942928 S    
C25   Cl2   1.746556 S    
O14   C34   1.320150 A    
C11   C12   1.539017 S    
O15   C35   1.318209 A    
O7    V1    2.153927 S    
O9    C4    1.323905 A    
C15   C18   1.540872 S    
C4    C5    1.504851 S    
C13   C14   1.536892 S    
O16   V4    1.846433 S    
C21   C22   1.552382 S    
C20   Cl5   1.785930 S    
C22   H1    1.106047 S    
C11   C18   1.546337 S    
C23   C26   1.547041 S    
C12   C13   1.543245 S    
O4    C2    1.321466 A    
O19   C36   1.311341 A    
O18   V4    1.862556 S    
V4    O20   2.174098 S    
C21   C34   1.523519 S    
C23   C24   1.543612 S    
O2    C1    1.320397 A    
C30   C31   1.478076 S    
C25   C26   1.535467 S    
C19   C20   1.540277 S    
C32   C33   1.503722 S    
C2    C27   1.503660 S    
C18   C36   1.505075 S    
C5    C6    1.247117 T    
C19   C22   1.565691 S    
C20   C25   1.535614 S    
O3    C4    1.318173 A    
O1    V2    1.840558 S    
C19   Br6   1.949031 S    
C1    C26   1.525149 S    
O6    V2    1.996348 S    
O9    V2    1.862488 S    
C29   C30   1.246548 T    
O2    V1    2.016579 S    
C31   C32   1.246458 T    
O13   C36   1.300352 A    
O12   V3    1.856075 S    
C17   Br5   1.940012 S    
O17   V3    2.153992 S    
C24   C25   1.542107 S    
C12   Br1   1.942789 S    
O11   V4    1.997320 S    
O1    C2    1.317270 A    
O5    V1    2.010940 S    
O8    C3    1.311315 A    
O14   V3    2.016618 S    
C19   C26   1.548229 S    
C3    C13   1.505052 S    
C20   C21   1.544141 S    
O7    V2    1.724054 S    
O4    V1    1.856130 S    
O3    V1    1.837879 S    
V1    O10   1.709514 S    
C33   O16   1.317240 A    
V3    O20   1.709632 S    
O15   V3    1.837760 S    
C8    C9    1.479148 S    
C15   C16   1.540284 S    
C23   Cl1   1.782130 S    
C24   Br2   1.940470 S    
