data_mof_unit_49692.cif
_audit_creation_date              2012-12-11T20:10:10-0500
_audit_creation_method            fapswitch 2.2
_symmetry_space_group_name_H-M    P1
_symmetry_Int_Tables_number       1
_space_group_crystal_system       triclinic
_cell_length_a                    8.255338
_cell_length_b                    16.428397
_cell_length_c                    18.715903
_cell_angle_alpha                 111.965942
_cell_angle_beta                  91.123364
_cell_angle_gamma                 84.621705
_cell_volume                      2343.33226114

loop_
_atom_site_label
_atom_site_type_symbol
_atom_type_description
_atom_site_fract_x
_atom_site_fract_y
_atom_site_fract_z
_atom_type_partial_charge
Ba1   Ba    Ba6+2 0.333520 0.539550 0.472180 1.575931
Ba2   Ba    Ba6+2 0.856270 0.460520 0.527840 1.347794
C1    C     C_3   0.915377 0.814517 0.295801 -0.322866
C2    C     C_3   0.008537 0.768533 0.343122 0.322085
C3    C     C_3   0.185155 0.268746 0.261642 0.689148
C4    C     C_3   0.265710 0.208049 0.183481 0.237426
C5    C     C_3   0.647242 0.230310 0.687047 0.703496
C6    C     C_3   0.638717 0.323901 0.746398 -0.283820
C7    C     C_3   0.182542 0.254302 0.717788 1.191395
C8    C     C_3   0.192644 0.243593 0.795888 -0.263663
C9    C     C_R   0.500721 0.470784 0.044393 0.005476
C10   C     C_R   0.424766 0.423492 0.081353 0.049248
C11   C     C_R   0.281648 0.385176 0.050407 -0.054312
C12   C     C_3   0.524532 0.720005 0.306912 0.370686
C13   C     C_R   0.208744 0.398426 0.987093 -0.092133
C14   C     C_R   0.285890 0.443165 0.948581 0.035061
C15   C     C_R   0.434685 0.477523 0.976035 0.020631
C16   C     C_R   0.221687 0.448878 0.880430 -0.126356
C17   C     C_R   0.313954 0.477669 0.833426 -0.034679
C18   C     C_R   0.459597 0.516887 0.862636 -0.001546
C19   C     C_R   0.517859 0.517764 0.934853 0.000128
C20   C     C_R   0.270375 0.463910 0.756569 0.025616
C21   C     C_R   0.366779 0.493536 0.711919 -0.282012
C22   C     C_R   0.501919 0.540253 0.742017 0.043338
C23   C     C_3   0.496571 0.744362 0.236514 -0.301067
C24   C     C_R   0.549694 0.552542 0.818899 -0.040191
C25   C     C_R   0.643889 0.509765 0.074757 0.009187
C26   C     C_R   0.703053 0.508737 0.146248 -0.018561
C27   C     C_R   0.622518 0.463972 0.185794 -0.074424
C28   C     C_R   0.490555 0.416512 0.149154 -0.010938
C29   C     C_R   0.687231 0.596516 0.852862 -0.023433
C30   C     C_R   0.747105 0.595365 0.923420 0.021158
C31   C     C_R   0.663574 0.554754 0.964096 0.012016
C32   C     C_R   0.725631 0.551646 0.034363 0.014528
C33   C     C_R   0.892030 0.632542 0.953208 -0.052348
C34   C     C_3   0.620154 0.736096 0.662640 0.277487
C35   C     C_R   0.953283 0.629601 0.022522 -0.081454
C36   C     C_R   0.870499 0.589746 0.063700 0.030883
C37   C     C_R   0.843471 0.552146 0.177622 -0.058953
C38   C     C_R   0.929078 0.589025 0.134301 -0.104169
C39   C     C_R   0.891642 0.559282 0.252282 0.038592
C40   C     C_R   0.794497 0.528219 0.295628 -0.161361
C41   C     C_R   0.672876 0.471812 0.261655 0.115408
C42   C     C_2   0.396297 0.240011 0.490642 -0.273100
C43   C     C_R   0.803465 0.748655 0.514830 -0.313537
C44   C     C_2   0.254823 0.112294 0.410015 0.431435
C45   C     C_3   0.565124 0.834747 0.694362 0.352201
C46   C     C_2   0.256831 0.201983 0.441645 -0.044857
C47   C     C_2   0.513991 0.188428 0.508435 -0.069549
C48   C     C_3   0.485012 0.094412 0.492457 0.038238
C49   C     C_3   0.402455 0.054454 0.415770 0.014619
C50   C     C_2   0.627451 0.034406 0.499076 -0.049257
C51   C     C_2   0.596775 0.958580 0.504335 -0.023942
C52   C     C_R   0.870596 0.922164 0.549119 0.231456
C53   C     C_R   0.723017 0.894364 0.514389 -0.089712
C54   C     C_R   0.980027 0.865091 0.569754 -0.061268
C55   C     C_R   0.943991 0.778786 0.554704 0.060163
C56   C     C_3   0.580583 0.268147 0.342823 0.362257
C57   C     C_R   0.689988 0.806602 0.496864 -0.024799
C58   C     C_3   0.577956 0.168369 0.309812 -0.381362
C59   C     C_3   0.147425 0.673539 0.714450 0.313947
C60   C     C_3   0.153055 0.706235 0.801910 -0.336497
H1    H     H_    0.073341 0.817954 0.389426 0.113642
H2    H     H_    0.570526 0.861114 0.647989 -0.039080
H3    H     H_    0.436749 0.845136 0.715047 0.044537
H4    H     H_    0.470381 0.298881 0.378971 -0.114214
H5    H     H_    0.687544 0.284412 0.379525 0.129463
H6    H     H_    0.452728 0.150323 0.293818 0.096731
H7    H     H_    0.620798 0.140780 0.353330 0.085364
H8    H     H_    0.658176 0.138461 0.257875 0.195078
H9    H     H_    0.273282 0.655487 0.690852 -0.000970
H10   H     H_    0.077141 0.614848 0.693350 0.056274
H11   H     H_    0.000684 0.844673 0.270138 0.198779
H12   H     H_    0.229411 0.762400 0.824258 0.156193
H13   H     H_    0.028079 0.728252 0.826642 0.142875
H14   H     H_    0.919686 0.743465 0.371866 -0.084741
H15   H     H_    0.824768 0.866702 0.333064 0.108360
H16   H     H_    0.273418 0.313565 0.294659 -0.071173
H17   H     H_    0.251198 0.239960 0.140680 0.024847
H18   H     H_    0.398513 0.198115 0.190499 -0.009611
H19   H     H_    0.851169 0.766207 0.248507 0.074044
H20   H     H_    0.563469 0.694316 0.185941 0.053304
H21   H     H_    0.529094 0.217303 0.658304 0.048327
H22   H     H_    0.617719 0.370820 0.716862 0.060978
H23   H     H_    0.538052 0.334326 0.788026 0.096659
H24   H     H_    0.753746 0.336631 0.778665 0.162080
H25   H     H_    0.295165 0.280064 0.707638 -0.697813
H26   H     H_    0.211813 0.173567 0.790071 0.181111
H27   H     H_    0.079860 0.272986 0.830667 0.093571
H28   H     H_    0.475730 0.655506 0.295104 0.069449
H29   H     H_    0.296390 0.276686 0.828683 0.092850
H30   H     H_    0.225770 0.344769 0.074975 0.117530
H31   H     H_    0.095533 0.370152 0.966227 0.083906
H32   H     H_    0.332314 0.483029 0.653290 0.074336
H33   H     H_    0.104544 0.424864 0.861875 0.071933
H34   H     H_    0.431979 0.377676 0.174765 0.100802
H35   H     H_    0.958945 0.663369 0.922597 0.070529
H36   H     H_    0.065491 0.658788 0.044053 0.086293
H37   H     H_    0.039288 0.619951 0.155864 0.095585
H38   H     H_    0.657462 0.713944 0.316496 -0.105948
H39   H     H_    0.824898 0.541179 0.355109 0.096122
H40   H     H_    0.089152 0.889387 0.600019 0.119498
H41   H     H_    0.409339 0.309621 0.506254 0.077680
H42   H     H_    0.777494 0.681392 0.502274 0.082196
H43   H     H_    0.470652 0.944653 0.502578 0.130423
H44   H     H_    0.364930 0.747307 0.223384 0.159057
H45   H     H_    0.540753 0.809675 0.247322 0.134823
H46   H     H_    0.751378 0.725391 0.648616 0.004848
H47   H     H_    0.550239 0.705395 0.609557 0.005195
O1    O     O_2   0.402610 0.439360 0.314250 -0.464542
O2    O     O_3   0.072552 0.741444 0.693890 -0.573644
O3    O     O_3   0.443645 0.785722 0.370787 -0.569894
O4    O     O_2   0.787080 0.560670 0.685800 -0.457048
O5    O     O_3   0.541120 0.553770 0.595290 -0.495836
O6    O     O_3   0.080800 0.396070 0.612520 -0.439143
O7    O     O_3   0.591089 0.701700 0.718723 -0.604889
O8    O     O_3   0.164600 0.390590 0.443970 -0.443820
O9    O     O_3   0.682580 0.347920 0.567870 -0.488976
O10   O     O_2   0.841808 0.193444 0.492287 -0.376163
O11   O     O_3   0.775131 0.217382 0.634054 -0.533793
O12   O     O_3   0.648560 0.446300 0.404730 -0.469012
O13   O     O_3   0.025080 0.609480 0.556050 -0.484848
O14   O     O_2   0.948320 0.280590 0.426090 -0.380430
O15   O     O_3   0.132500 0.220336 0.302593 -0.578257
O16   O     O_2   0.936969 0.471264 0.748375 -0.496708
O17   O     O_3   0.041864 0.309322 0.716306 -0.593191
O18   O     O_3   0.108870 0.604000 0.387500 -0.440645
O19   O     O_2   0.235076 0.537855 0.248175 -0.445458
O20   O     O_3   0.589500 0.298712 0.282526 -0.592312
O21   O     O_3   0.125212 0.703767 0.295453 -0.605495
O22   O     O_2   0.241370 0.719440 0.573960 -0.473400
O23   O     O_3   0.507090 0.652150 0.432150 -0.492583
O24   O     O_2   0.353683 0.809251 0.510209 -0.490622
P1    P     P_3+3 0.582960 0.413890 0.320860 1.099704
P2    P     P_3+3 0.071690 0.707860 0.593450 1.033541
P3    P     P_3+3 0.497911 0.764678 0.453530 0.959787
P4    P     P_3+3 0.606720 0.586180 0.679160 1.003828
P5    P     P_3+3 0.702207 0.235938 0.551829 1.034557
P6    P     P_3+3 0.088828 0.599907 0.293915 1.041993
P7    P     P_3+3 0.132363 0.275938 0.403755 1.121475
P8    P     P_3+3 0.087981 0.408877 0.709696 1.021297
S1    S     S_3+6 0.689138 0.895627 0.771792 -0.010417
O25   O     O_2   0.849480 0.904512 0.740120 -0.283184
O26   O     O_2   0.603776 0.985762 0.813211 -0.205778
O27   O     O_3   0.721022 0.844026 0.834019 -0.500440
H48   H     H_    0.798825 0.878459 0.871646 0.368201
H49   H     H_    0.205222 0.652893 0.820538 0.036101
S2    S     S_3+6 0.014347 0.332229 0.246923 -0.092327
O28   O     O_2   0.882032 0.274561 0.209023 -0.290152
O29   O     O_2   0.959116 0.394883 0.325464 -0.344730
O30   O     O_3   0.064891 0.387100 0.192445 -0.599141
H50   H     H_    0.984508 0.373805 0.150568 0.332160
S3    S     S_3+6 0.194000 0.100638 0.141789 0.020362
O31   O     O_2   0.281894 0.040474 0.176565 -0.247691
O32   O     O_2   0.014215 0.104257 0.155057 -0.175993
O33   O     O_3   0.232510 0.059995 0.046385 -0.456378
H51   H     H_    0.352156 0.058210 0.041412 0.343336
S4    S     S_3+6 0.681753 0.154941 0.735803 0.029543
O34   O     O_2   0.536530 0.161587 0.785219 -0.278076
O35   O     O_2   0.708508 0.062516 0.677811 -0.233023
O36   O     O_3   0.844388 0.178633 0.792598 -0.511698
H52   H     H_    0.861858 0.130329 0.812282 0.394979
S5    S     S_3+6 0.170325 0.148399 0.642938 -0.019412
O37   O     O_2   0.036777 0.102516 0.660640 -0.257516
O38   O     O_2   0.134917 0.159573 0.568256 -0.278039
O39   O     O_3   0.347560 0.086432 0.635851 -0.532022
H53   H     H_    0.317752 0.026495 0.627441 0.357253
H54   H     H_    0.752495 0.629857 0.824173 0.119817
S6    S     S_3+6 0.095856 0.051988 0.357334 -0.024326
O40   O     O_2   0.170837 0.977794 0.288011 -0.281849
O41   O     O_2   0.018918 0.012840 0.407620 -0.315579
O42   O     O_3   0.949936 0.110010 0.328143 -0.463702
H55   H     H_    0.901170 0.065599 0.283421 0.366465
H56   H     H_    0.751522 0.050058 0.497566 0.151194

loop_
_geom_bond_atom_site_label_1
_geom_bond_atom_site_label_2
_ccdc_geom_bond_type
C42   C47   D    
C5    H21   S    
O6    P8    S    
C53   C57   A    
C34   H46   S    
S6    O40   D    
S5    O37   D    
S2    O30   S    
Ba1   O23   S    
C38   H37   S    
O36   H52   S    
Ba2   O9    S    
C5    C6    S    
C37   C39   A    
C5    S4    S    
Ba2   O14   S    
O42   H55   S    
C12   O3    S    
C45   S1    S    
C8    H26   S    
C35   C36   A    
C6    H23   S    
C26   C27   A    
S5    O38   D    
O19   P6    D    
C22   C24   A    
C16   C17   A    
O22   P2    D    
C3    C4    S    
Ba2   O4    S    
C19   C31   A    
C56   O20   S    
C56   C58   S    
C13   C14   A    
C57   P3    S    
C54   C55   A    
C34   C45   S    
Ba1   Ba2   S    
C39   C40   A    
O5    P4    S    
C7    S5    S    
Ba1   O13   S    
C12   H28   S    
C28   H34   S    
S4    O36   S    
C56   H4    S    
C9    C15   A    
C17   C18   A    
C8    H27   S    
O16   P8    D    
C14   C15   A    
C1    H19   S    
O24   P3    D    
C48   C50   S    
C21   C22   A    
C58   H8    S    
O12   P1    S    
S3    O32   D    
C7    C8    S    
O23   P3    S    
C10   C28   A    
C59   H9    S    
Ba2   O13   S    
C24   C29   A    
C3    S2    S    
C6    H22   S    
C47   P5    S    
C27   C41   A    
S4    O35   D    
C16   H33   S    
S6    O41   D    
S1    O27   S    
C33   H35   S    
O18   P6    S    
O3    P3    S    
O21   P6    S    
C35   H36   S    
C42   H41   S    
C23   H44   S    
O27   H48   S    
C44   C46   D    
C51   C53   S    
C25   C32   A    
C52   C54   A    
C39   P6    S    
C46   P7    S    
C30   C33   A    
C17   C20   A    
S2    O28   D    
C45   H2    S    
C2    O21   S    
C26   C37   A    
C48   C49   S    
O14   P7    D    
C15   C19   A    
C29   H54   S    
S4    O34   D    
C41   P1    S    
C27   C28   A    
C43   H42   S    
Ba1   O1    S    
Ba2   O6    S    
C4    H18   S    
C29   C30   A    
C3    O15   S    
C9    C25   A    
O30   H50   S    
C43   C55   A    
S5    O39   S    
C31   C32   A    
C14   C16   A    
Ba1   O8    S    
C10   C11   A    
S3    O33   S    
C59   H10   S    
C2    H1    S    
C8    H29   S    
C60   H49   S    
C11   C13   A    
C11   H30   S    
O39   H53   S    
S6    O42   S    
O4    P4    D    
C60   H13   S    
O1    P1    D    
O8    P7    S    
O11   P5    S    
C40   C41   A    
C1    C2    S    
C34   O7    S    
C40   H39   S    
C50   H56   S    
C37   C38   A    
S1    O26   D    
C50   C51   D    
C23   H45   S    
O7    P4    S    
Ba2   O12   S    
C52   C53   A    
O33   H51   S    
C33   C35   A    
C32   C36   A    
O10   P5    D    
C5    O11   S    
O15   P7    S    
C60   H12   S    
Ba1   O18   S    
S2    O29   D    
Ba1   O22   S    
C13   H31   S    
C9    C10   A    
C44   S6    S    
C12   H38   S    
C22   P4    S    
Ba2   P4    S    
Ba2   O8    S    
O17   P8    S    
C7    O17   S    
C21   H32   S    
C30   C31   A    
S3    O31   D    
C54   H40   S    
C42   C46   S    
Ba1   P2    S    
C7    H25   S    
C36   C38   A    
Ba2   O5    S    
O2    P2    S    
C4    H17   S    
C23   H20   S    
C18   C24   A    
C58   H7    S    
C59   O2    S    
C44   C49   S    
C20   P8    S    
C6    H24   S    
C12   C23   S    
C59   C60   S    
C1    H11   S    
Ba1   O12   S    
O13   P2    S    
C2    H14   S    
C4    S3    S    
O20   P1    S    
C51   H43   S    
C56   H5    S    
C18   C19   A    
C58   H6    S    
C43   C57   A    
C47   C48   S    
Ba1   O5    S    
C34   H47   S    
S1    O25   D    
C20   C21   A    
C55   P2    S    
C3    H16   S    
O9    P5    S    
C45   H3    S    
Ba1   P1    S    
C25   C26   A    
C1    H15   S    
