data_mof_unit_14929.cif
_audit_creation_date              2012-12-11T15:43:56-0500
_audit_creation_method            fapswitch 2.2
_symmetry_space_group_name_H-M    P1
_symmetry_Int_Tables_number       1
_space_group_crystal_system       triclinic
_cell_length_a                    14.618362
_cell_length_b                    16.046409
_cell_length_c                    6.902404
_cell_angle_alpha                 89.841141
_cell_angle_beta                  98.230517
_cell_angle_gamma                 89.913034
_cell_volume                      1602.42638456

loop_
_atom_site_label
_atom_site_type_symbol
_atom_type_description
_atom_site_fract_x
_atom_site_fract_y
_atom_site_fract_z
_atom_type_partial_charge
O1    O     O_R   0.831700 0.662810 0.581550 -0.540153
O2    O     O_R   0.168300 0.337190 0.418450 -0.542605
O3    O     O_R   0.168300 0.162810 0.418450 -0.539486
O4    O     O_R   0.831700 0.837190 0.581550 -0.541574
O5    O     O_R   0.842890 0.834390 0.255500 -0.543632
O6    O     O_R   0.157110 0.165610 0.744500 -0.538719
O7    O     O_R   0.157110 0.334390 0.744500 -0.543057
O8    O     O_R   0.842890 0.665610 0.255500 -0.539278
O9    O     O_R   0.661690 0.835580 0.024130 -0.536175
O10   O     O_R   0.338310 0.164420 0.975870 -0.538338
O11   O     O_R   0.338310 0.335580 0.975870 -0.543321
O12   O     O_R   0.661690 0.664420 0.024130 -0.533213
C1    C     C_R   0.866671 0.863786 0.431518 0.691405
C2    C     C_R   0.134606 0.135111 0.569132 0.691539
C3    C     C_R   0.133752 0.364099 0.568505 0.690646
C4    C     C_R   0.865695 0.635406 0.431244 0.691639
C5    C     C_R   0.066262 0.065318 0.535400 -0.050861
C6    C     C_R   0.937451 0.931469 0.466574 -0.053920
C7    C     C_R   0.934731 0.566195 0.465360 -0.050778
C8    C     C_R   0.063835 0.432521 0.534022 -0.053511
H1    H     H_    0.963788 0.939916 0.166372 0.117825
H2    H     H_    0.040058 0.056728 0.835660 0.115251
H3    H     H_    0.044831 0.445921 0.837768 0.115718
H4    H     H_    0.954152 0.553080 0.161753 0.114976
H5    H     H_    0.074308 0.053971 0.224580 0.121570
H6    H     H_    0.929485 0.942762 0.777458 0.118813
H7    H     H_    0.933781 0.559914 0.779574 0.120554
H8    H     H_    0.065025 0.438950 0.219906 0.120347
C9    C     C_R   0.980039 0.964425 0.313235 -0.176172
C10   C     C_R   0.024262 0.031879 0.689028 -0.157938
C11   C     C_R   0.025417 0.468355 0.689491 -0.169182
C12   C     C_R   0.973195 0.530373 0.309901 -0.158099
O13   O     O_3   0.687240 0.750000 0.366320 -0.374570
O14   O     O_3   0.312760 0.250000 0.633680 -0.374213
V1    V     V_3+5 0.757720 0.750000 0.115230 1.381802
V2    V     V_3+5 0.242280 0.250000 0.884770 1.374616
O15   O     O_R   0.650500 0.664000 0.690740 -0.546415
O16   O     O_R   0.349500 0.336000 0.309260 -0.544262
O17   O     O_R   0.349500 0.164000 0.309260 -0.543147
O18   O     O_R   0.650500 0.836000 0.690740 -0.546993
C13   C     C_R   0.625240 0.638535 0.855375 0.751745
C14   C     C_R   0.367014 0.367698 0.143078 0.740721
C15   C     C_R   0.375460 0.138514 0.145070 0.744582
C16   C     C_R   0.632990 0.868009 0.855793 0.729927
C17   C     C_R   0.043324 0.030351 0.347078 -0.147408
C18   C     C_R   0.960921 0.966009 0.655208 -0.146100
C19   C     C_R   0.961794 0.534140 0.655662 -0.147641
C20   C     C_R   0.036703 0.464499 0.343672 -0.148942
V3    V     V_3+5 0.735670 0.750000 0.607790 1.369132
V4    V     V_3+5 0.264330 0.250000 0.392210 1.374040
O19   O     O_3   0.806150 0.750000 0.906560 -0.369437
O20   O     O_3   0.193850 0.250000 0.093440 -0.368396
C21   C     C_2   0.570317 0.941845 0.855560 -0.384759
C22   C     C_2   0.450541 0.074706 0.144446 -0.398759
C23   C     C_2   0.429110 0.441181 0.139194 -0.385966
C24   C     C_2   0.553498 0.573079 0.855322 -0.365773
C25   C     C_2   0.575261 0.998755 0.004985 0.107526
C26   C     C_2   0.504185 0.067281 0.996784 0.085859
C27   C     C_2   0.428722 0.493597 0.980666 0.080131
C28   C     C_2   0.496027 0.564445 0.994850 0.099943
H9    H     H_    0.462272 0.032143 0.268273 0.124666
H10   H     H_    0.517533 0.949706 0.728998 0.119435
H11   H     H_    0.548820 0.528191 0.736825 0.109552
H12   H     H_    0.477137 0.453051 0.271501 0.117906
C29   C     C_3   0.498830 0.132908 0.834439 -0.282219
C30   C     C_3   0.583670 0.139781 0.727913 -0.354866
C31   C     C_3   0.578303 0.219291 0.603532 -0.771790
H13   H     H_    0.518135 0.216674 0.485776 0.237153
H14   H     H_    0.571694 0.275099 0.695463 0.223709
H15   H     H_    0.642167 0.226647 0.535947 0.215730
H16   H     H_    0.647971 0.142174 0.833996 0.200020
H17   H     H_    0.587008 0.084658 0.632775 0.203783
H18   H     H_    0.437179 0.120253 0.724488 0.190999
H19   H     H_    0.491038 0.194955 0.901696 0.181724
C32   C     C_3   0.654454 0.997052 0.175775 -0.300531
C33   C     C_3   0.679566 0.083192 0.264490 -0.367954
C34   C     C_3   0.760489 0.077982 0.429975 -0.772306
H20   H     H_    0.747279 0.030622 0.540358 0.225589
H21   H     H_    0.824179 0.061989 0.368704 0.242380
H22   H     H_    0.771539 0.139317 0.503231 0.222358
H23   H     H_    0.699133 0.126076 0.151362 0.196516
H24   H     H_    0.619545 0.110171 0.322063 0.218750
H25   H     H_    0.635409 0.954535 0.290972 0.177210
H26   H     H_    0.718252 0.973167 0.124759 0.174365
C35   C     C_3   0.492377 0.625645 0.162611 -0.319228
C36   C     C_3   0.454707 0.711489 0.090705 -0.290262
C37   C     C_3   0.445577 0.769595 0.261801 -0.756027
H27   H     H_    0.396198 0.743353 0.354035 0.214524
H28   H     H_    0.513477 0.778747 0.353501 0.249616
H29   H     H_    0.419407 0.831256 0.204826 0.209569
H30   H     H_    0.500373 0.741095 0.995455 0.193719
H31   H     H_    0.385161 0.704168 0.004241 0.176353
H32   H     H_    0.445129 0.601204 0.261672 0.159059
H33   H     H_    0.560744 0.630675 0.254621 0.198411
C38   C     C_3   0.356110 0.485714 0.797343 -0.280960
C39   C     C_3   0.346520 0.561712 0.658545 -0.359978
C40   C     C_3   0.262619 0.554088 0.500770 -0.778692
H34   H     H_    0.265374 0.494883 0.418854 0.232631
H35   H     H_    0.198281 0.556589 0.568437 0.237926
H36   H     H_    0.261697 0.606844 0.396002 0.219791
H37   H     H_    0.338898 0.619558 0.742076 0.200283
H38   H     H_    0.408067 0.567346 0.582963 0.194965
H39   H     H_    0.372745 0.430354 0.712387 0.187422
H40   H     H_    0.287497 0.476359 0.845916 0.171178

loop_
_geom_bond_atom_site_label_1
_geom_bond_atom_site_label_2
_ccdc_geom_bond_type
C37   H27   S    
C39   H38   S    
O7    V2    S    
C38   C39   S    
C40   H34   S    
C34   H20   S    
C1    C6    S    
O11   V2    S    
C5    C17   A    
O16   C14   A    
C23   C27   D    
C36   H30   S    
C7    C19   A    
C32   H26   S    
O13   V3    S    
O18   V3    S    
C29   H18   S    
O11   C14   A    
C35   H33   S    
O4    C1    A    
O2    V4    S    
C35   H32   S    
C16   C21   S    
C30   H17   S    
V3    O19   S    
V4    O20   S    
O5    C1    A    
V2    O20   S    
O7    C3    A    
C30   C31   S    
C27   C28   S    
O8    C4    A    
C11   C19   A    
C39   H37   S    
C39   C40   S    
C5    C10   A    
C12   C20   A    
C2    C5    S    
C27   C38   S    
C7    C12   A    
C6    C18   A    
C40   H35   S    
O3    V4    S    
C38   H39   S    
C34   H21   S    
C3    C8    S    
O14   V4    S    
C31   H13   S    
C33   C34   S    
C33   H24   S    
O1    C4    A    
C21   C25   D    
C36   C37   S    
O17   C15   A    
C35   C36   S    
H1    C9    S    
C29   H19   S    
C24   C28   D    
C9    C17   A    
C31   H14   S    
O8    V1    S    
H3    C11   S    
C32   C33   S    
H4    C12   S    
C13   C24   S    
O12   C13   A    
C14   C23   S    
O6    C2    A    
O15   V3    S    
C21   H10   S    
C26   C29   S    
C30   H16   S    
C23   H12   S    
C24   H11   S    
C6    C9    A    
O12   V1    S    
O2    C3    A    
C8    C20   A    
O3    C2    A    
C37   H28   S    
V1    O19   S    
H5    C17   S    
C40   H36   S    
C38   H40   S    
C22   C26   D    
C34   H22   S    
H7    C19   S    
H8    C20   S    
O9    C16   A    
H2    C10   S    
O10   C15   A    
C10   C18   A    
C33   H23   S    
C28   C35   S    
O16   V4    S    
C22   H9    S    
O4    V3    S    
C31   H15   S    
C25   C32   S    
C36   H31   S    
C32   H25   S    
C25   C26   S    
C4    C7    S    
O5    V1    S    
O13   V1    S    
O6    V2    S    
O14   V2    S    
O15   C13   A    
C15   C22   S    
H6    C18   S    
O18   C16   A    
O17   V4    S    
C29   C30   S    
C37   H29   S    
O9    V1    S    
O10   V2    S    
O1    V3    S    
C8    C11   A    
