data_mof_unit_48830.cif
_audit_creation_date              2012-12-10T17:02:16-0500
_audit_creation_method            fapswitch 2.2
_symmetry_space_group_name_H-M    P1
_symmetry_Int_Tables_number       1
_space_group_crystal_system       triclinic
_cell_length_a                    10.646802
_cell_length_b                    10.728004
_cell_length_c                    10.035384
_cell_angle_alpha                 87.647046
_cell_angle_beta                  89.649541
_cell_angle_gamma                 90.568833
_cell_volume                      1145.18359624

loop_
_atom_site_label
_atom_site_type_symbol
_atom_type_description
_atom_site_fract_x
_atom_site_fract_y
_atom_site_fract_z
_atom_type_partial_charge
C1    C     C_R   0.491533 0.262439 0.503080 0.864158
C2    C     C_R   0.063143 0.390498 0.575613 0.057203
C3    C     C_R   0.127821 0.486429 0.501713 -0.067921
C4    C     C_R   0.065611 0.576737 0.424466 -0.189114
C5    C     C_R   0.937369 0.577111 0.423438 -0.209421
C6    C     C_R   0.871393 0.486484 0.498798 -0.067116
C7    C     C_2   0.432251 0.935506 0.403168 0.018134
C8    C     C_2   0.506708 0.869074 0.486289 -0.345170
C9    C     C_2   0.443400 0.070033 0.400922 -0.239020
C10   C     C_2   0.461385 0.131743 0.512965 -0.180004
C11   C     C_2   0.574029 0.570524 0.921498 -0.094388
C12   C     C_R   0.260441 0.494993 0.500709 0.865512
C13   C     C_2   0.569016 0.575410 0.071292 -0.107004
C14   C     C_R   0.500686 0.737142 0.496811 0.925044
C15   C     C_R   0.739377 0.496703 0.499683 0.865018
C16   C     C_R   0.125524 0.294659 0.649348 -0.326783
C17   C     C_R   0.057366 0.199934 0.720107 0.469916
C18   C     C_R   0.926242 0.197878 0.712370 0.011903
C19   C     C_R   0.864051 0.291268 0.638737 -0.324504
C20   C     C_R   0.931609 0.389699 0.572274 0.090921
H1    H     H_    0.116684 0.649003 0.367485 0.172236
H2    H     H_    0.641940 0.630729 0.868895 0.169678
H3    H     H_    0.432645 0.448887 0.900510 0.165258
H4    H     H_    0.627736 0.644476 0.117435 0.162611
H5    H     H_    0.450497 0.431741 0.105542 0.167935
H6    H     H_    0.226880 0.291265 0.651563 0.154501
H7    H     H_    0.762772 0.284937 0.632709 0.174896
H8    H     H_    0.889256 0.649937 0.366255 0.156507
H9    H     H_    0.576916 0.912773 0.547574 0.149731
H10   H     H_    0.442755 0.118474 0.303615 0.181572
N1    N     N_2   0.501340 0.501330 0.852150 -0.191724
N2    N     N_2   0.501380 0.501360 0.147810 -0.189236
O1    O     O_R   0.499980 0.319060 0.613040 -0.628968
O2    O     O_R   0.500020 0.319100 0.386900 -0.612277
O3    O     O_R   0.316750 0.499980 0.613090 -0.614083
O4    O     O_R   0.316790 0.500020 0.386950 -0.608388
O5    O     O_R   0.499980 0.680900 0.613100 -0.594868
O6    O     O_R   0.500020 0.680940 0.386960 -0.607425
O7    O     O_R   0.683210 0.499980 0.613050 -0.615437
O8    O     O_R   0.683250 0.500020 0.386910 -0.609297
Zn1   Zn    Zn3+2 0.499970 0.499970 0.650990 0.957721
Zn2   Zn    Zn3+2 0.500030 0.500030 0.349010 0.962082
C21   C     C_1   0.441242 0.075049 0.646019 0.192271
N3    N     N_1   0.426485 0.029758 0.751698 -0.185643
O9    O     O_3   0.116693 0.108254 0.796164 -0.753520
H11   H     H_    0.207329 0.129119 0.800211 0.342002
C22   C     C_1   0.853947 0.099519 0.779712 0.251372
N4    N     N_1   0.795808 0.020645 0.833587 -0.195979
C23   C     C_1   0.343538 0.880099 0.313392 0.225037
N5    N     N_1   0.272793 0.836078 0.241446 -0.195930

loop_
_geom_bond_atom_site_label_1
_geom_bond_atom_site_label_2
_ccdc_geom_bond_type
C21   N3    T    
C2    C16   A    
C12   O4    A    
C5    H8    S    
C6    C20   A    
C9    C10   D    
C13   N2    D    
O4    Zn2   S    
C22   N4    T    
O2    Zn2   S    
O1    Zn1   S    
C18   C22   S    
H5    N2    S    
O8    Zn2   S    
C2    C3    A    
C10   C21   S    
C11   N1    D    
C7    C8    D    
O7    Zn1   S    
N1    Zn1   S    
O9    H11   S    
C14   O5    A    
C16   H6    S    
C4    H1    S    
C11   C13   S    
C15   O7    A    
C9    H10   S    
C8    H9    S    
C17   O9    S    
C1    O2    A    
O6    Zn2   S    
O5    Zn1   S    
C5    C6    A    
O3    Zn1   S    
C15   O8    A    
C14   O6    A    
C1    O1    A    
C3    C4    A    
C4    C5    A    
C19   H7    S    
C7    C23   S    
C17   C18   A    
C23   N5    T    
C7    C9    S    
N2    Zn2   S    
C18   C19   A    
C8    C14   S    
C3    C12   S    
C11   H2    S    
C6    C15   S    
C2    C20   A    
C1    C10   S    
C19   C20   A    
C13   H4    S    
C16   C17   A    
C12   O3    A    
H3    N1    S    
