data_mof_unit_63273.cif
_audit_creation_date              2012-12-10T20:37:15-0500
_audit_creation_method            fapswitch 2.2
_symmetry_space_group_name_H-M    P1
_symmetry_Int_Tables_number       1
_space_group_crystal_system       triclinic
_cell_length_a                    35.992259
_cell_length_b                    39.926252
_cell_length_c                    26.803062
_cell_angle_alpha                 90.002717
_cell_angle_beta                  132.180697
_cell_angle_gamma                 89.996428
_cell_volume                      28542.259607

loop_
_atom_site_label
_atom_site_type_symbol
_atom_type_description
_atom_site_fract_x
_atom_site_fract_y
_atom_site_fract_z
_atom_type_partial_charge
C1    C     C_R   0.400174 0.749958 0.999994 0.825018
C2    C     C_R   0.599824 0.250038 0.000001 0.819169
C3    C     C_R   0.599828 0.749954 0.000010 0.824999
C4    C     C_R   0.400174 0.250042 0.999995 0.819173
C5    C     C_R   0.900180 0.249966 0.000005 0.824316
C6    C     C_R   0.099821 0.750036 0.999998 0.830442
C7    C     C_R   0.099822 0.249962 0.999999 0.824321
C8    C     C_R   0.900176 0.750040 0.999998 0.830454
C9    C     C_3   0.254037 0.280665 0.983358 -0.153312
C10   C     C_3   0.744688 0.719003 0.014081 -0.147274
C11   C     C_3   0.745947 0.280666 0.016626 -0.153291
C12   C     C_3   0.254147 0.719301 0.983568 -0.147750
C13   C     C_3   0.755335 0.780933 0.985960 -0.152509
C14   C     C_3   0.245940 0.219388 0.016603 -0.157261
C15   C     C_3   0.245830 0.780635 0.016391 -0.152846
C16   C     C_3   0.754076 0.219386 0.983413 -0.157237
C17   C     C_3   0.707161 0.759384 0.939080 -0.162131
C18   C     C_3   0.293194 0.241875 0.061637 -0.160377
C19   C     C_3   0.293165 0.758225 0.061578 -0.161944
C20   C     C_3   0.706810 0.241865 0.938368 -0.160385
C21   C     C_3   0.206783 0.258178 0.938324 -0.157942
C22   C     C_3   0.792863 0.740552 0.060961 -0.158381
C23   C     C_3   0.793213 0.258187 0.061671 -0.157948
C24   C     C_3   0.206811 0.741711 0.938381 -0.158397
C25   C     C_1   0.639572 0.749945 0.999990 -0.114075
C26   C     C_1   0.360431 0.250045 0.000017 -0.120806
C27   C     C_1   0.360427 0.749951 0.000009 -0.114060
C28   C     C_1   0.639570 0.250040 0.999985 -0.120808
C29   C     C_1   0.139554 0.249976 0.999958 -0.114956
C30   C     C_1   0.860444 0.750028 0.000039 -0.106866
C31   C     C_1   0.860445 0.249981 0.000040 -0.114952
C32   C     C_1   0.139556 0.750022 0.999962 -0.106858
C33   C     C_3   0.761060 0.771501 0.046891 -0.153445
C34   C     C_3   0.239862 0.227550 0.954958 -0.152585
C35   C     C_3   0.239778 0.772367 0.954801 -0.153208
C36   C     C_3   0.760151 0.227555 0.045055 -0.152597
C37   C     C_3   0.260115 0.272502 0.045004 -0.147637
C38   C     C_3   0.738964 0.728435 0.953150 -0.147824
C39   C     C_3   0.739872 0.272497 0.954984 -0.147647
C40   C     C_3   0.260197 0.727569 0.045158 -0.147516
C41   C     C_3   0.713538 0.749951 0.000011 0.181987
C42   C     C_3   0.286463 0.250038 0.999993 0.184969
C43   C     C_3   0.286461 0.749957 0.999988 0.181964
C44   C     C_3   0.713538 0.250034 0.000010 0.184967
C45   C     C_3   0.213514 0.250014 0.999968 0.184873
C46   C     C_3   0.786485 0.749985 0.000030 0.181988
C47   C     C_3   0.786485 0.250018 0.000029 0.184871
C48   C     C_3   0.213515 0.749980 0.999971 0.181916
C49   C     C_1   0.672965 0.749943 0.000007 -0.058273
C50   C     C_1   0.327037 0.250045 0.999999 -0.063470
C51   C     C_1   0.327034 0.749950 0.999991 -0.058253
C52   C     C_1   0.672964 0.250040 0.000004 -0.063473
C53   C     C_1   0.172943 0.249994 0.999966 -0.060087
C54   C     C_1   0.827056 0.750010 0.000030 -0.054144
C55   C     C_1   0.827055 0.249999 0.000030 -0.060083
C56   C     C_1   0.172945 0.750003 0.999971 -0.054134
C57   C     C_R   0.157605 0.771590 0.362559 -0.156945
C58   C     C_R   0.842028 0.228078 0.637446 -0.155506
C59   C     C_R   0.842395 0.771588 0.637442 -0.156958
C60   C     C_R   0.157972 0.228081 0.362553 -0.155515
C61   C     C_R   0.658184 0.272038 0.362575 -0.155750
C62   C     C_R   0.342125 0.728249 0.637418 -0.157058
C63   C     C_R   0.341815 0.272036 0.637426 -0.155755
C64   C     C_R   0.657875 0.728252 0.362581 -0.157076
C65   C     C_R   0.122420 0.771601 0.292280 -0.179994
C66   C     C_R   0.877212 0.228065 0.707726 -0.165741
C67   C     C_R   0.877580 0.771599 0.707721 -0.180014
C68   C     C_R   0.122788 0.228068 0.292272 -0.165754
C69   C     C_R   0.623028 0.272099 0.292295 -0.167668
C70   C     C_R   0.377277 0.728182 0.707696 -0.181624
C71   C     C_R   0.376971 0.272097 0.707706 -0.167673
C72   C     C_R   0.622724 0.728184 0.292303 -0.181651
C73   C     C_R   0.128245 0.750059 0.256447 -0.015351
C74   C     C_R   0.871734 0.249916 0.743556 -0.019541
C75   C     C_R   0.871755 0.750059 0.743554 -0.015315
C76   C     C_R   0.128266 0.249916 0.256443 -0.019522
C77   C     C_R   0.628219 0.250023 0.256438 -0.023271
C78   C     C_R   0.371809 0.750012 0.743559 -0.019270
C79   C     C_R   0.371781 0.250023 0.743563 -0.023250
C80   C     C_R   0.628191 0.750012 0.256440 -0.019237
C81   C     C_R   0.169917 0.728535 0.292283 -0.181041
C82   C     C_R   0.830397 0.271734 0.707720 -0.181137
C83   C     C_R   0.830084 0.728537 0.707717 -0.181064
C84   C     C_R   0.169602 0.271733 0.292280 -0.181141
C85   C     C_R   0.669222 0.227915 0.292243 -0.169454
C86   C     C_R   0.330550 0.771898 0.707759 -0.166173
C87   C     C_R   0.330779 0.227917 0.707757 -0.169472
C88   C     C_R   0.669450 0.771896 0.292241 -0.166187
C89   C     C_R   0.591109 0.749967 0.182209 0.790962
C90   C     C_R   0.408883 0.250043 0.817792 0.795880
C91   C     C_R   0.408891 0.749967 0.817790 0.791033
C92   C     C_R   0.591117 0.250043 0.182209 0.795952
C93   C     C_R   0.091126 0.249946 0.182210 0.791581
C94   C     C_R   0.908880 0.750046 0.817789 0.783886
C95   C     C_R   0.908873 0.249946 0.817789 0.791651
C96   C     C_R   0.091120 0.750046 0.182212 0.783952
C97   C     C_R   0.205049 0.728579 0.362561 -0.157851
C98   C     C_R   0.795272 0.271696 0.637443 -0.156295
C99   C     C_R   0.794951 0.728580 0.637439 -0.157865
C100  C     C_R   0.204728 0.271694 0.362557 -0.156299
C101  C     C_R   0.704315 0.227901 0.362520 -0.154922
C102  C     C_R   0.295456 0.771914 0.637481 -0.156015
C103  C     C_R   0.295685 0.227903 0.637480 -0.154929
C104  C     C_R   0.704544 0.771913 0.362519 -0.156026
C105  C     C_R   0.198910 0.750096 0.397702 0.149870
C106  C     C_R   0.801074 0.249883 0.602301 0.147433
C107  C     C_R   0.801090 0.750096 0.602298 0.149882
C108  C     C_R   0.198926 0.249883 0.397699 0.147435
C109  C     C_R   0.698814 0.249952 0.397690 0.145860
C110  C     C_R   0.301222 0.750096 0.602308 0.147993
C111  C     C_R   0.301186 0.249952 0.602310 0.145862
C112  C     C_R   0.698778 0.750096 0.397692 0.148004
C113  C     C_1   0.234938 0.750109 0.469759 -0.050944
C114  C     C_1   0.765065 0.249894 0.530242 -0.048514
C115  C     C_1   0.765062 0.750109 0.530241 -0.050956
C116  C     C_1   0.234935 0.249894 0.469758 -0.048516
C117  C     C_1   0.734817 0.249917 0.469749 -0.047589
C118  C     C_1   0.265201 0.750111 0.530251 -0.049721
C119  C     C_1   0.265183 0.249917 0.530251 -0.047592
C120  C     C_1   0.734799 0.750111 0.469749 -0.049732
C121  C     C_R   0.514292 0.431767 0.055575 -0.191253
C122  C     C_R   0.518756 0.568239 0.975929 -0.191847
C123  C     C_R   0.485761 0.431772 0.944490 -0.191256
C124  C     C_R   0.481191 0.568249 0.024027 -0.191843
C125  C     C_R   0.983203 0.931895 0.026800 -0.192446
C126  C     C_R   0.983542 0.068359 0.943303 -0.190892
C127  C     C_R   0.016870 0.931887 0.973262 -0.192446
C128  C     C_R   0.016415 0.068356 0.056644 -0.190905
C129  C     C_R   0.514799 0.396802 0.056424 0.351019
C130  C     C_R   0.519308 0.603205 0.976077 0.349348
C131  C     C_R   0.485243 0.396807 0.943620 0.350966
C132  C     C_R   0.480633 0.603215 0.023856 0.349392
C133  C     C_R   0.982706 0.896931 0.026776 0.350467
C134  C     C_R   0.983009 0.103323 0.942489 0.349839
C135  C     C_R   0.017360 0.896921 0.973290 0.350505
C136  C     C_R   0.016949 0.103320 0.057473 0.349777
C137  C     C_R   0.500013 0.378522 0.000014 -0.217276
C138  C     C_R   0.499982 0.621485 0.999980 -0.218085
C139  C     C_R   0.000021 0.878599 0.000021 -0.220546
C140  C     C_R   0.999987 0.121558 0.999988 -0.215191
C141  C     C_R   0.500027 0.449123 0.000037 -0.001204
C142  C     C_R   0.499981 0.550888 0.999992 -0.000435
C143  C     C_R   0.000034 0.949243 0.000024 0.000507
C144  C     C_R   0.999982 0.051000 0.999972 -0.001622
C145  C     C_1   0.500012 0.484988 0.000030 0.013336
C146  C     C_1   0.499997 0.515023 0.000015 0.013224
C147  C     C_1   0.000016 0.985106 0.999999 0.013184
C148  C     C_1   0.999998 0.015139 0.999981 0.012934
C149  C     C_R   0.500000 0.658790 0.999999 0.883844
C150  C     C_R   0.499998 0.341214 0.999998 0.884277
C151  C     C_R   0.000002 0.158815 0.000002 0.888199
C152  C     C_R   0.000000 0.841241 0.000000 0.880016
C153  C     C_R   0.500000 0.841133 0.000002 0.884839
C154  C     C_R   0.500000 0.158813 0.000000 0.877865
C155  C     C_R   0.999999 0.341174 0.000001 0.880345
C156  C     C_R   0.000001 0.658873 0.000001 0.886196
C157  C     C_R   0.457110 0.068111 0.946261 -0.192691
C158  C     C_R   0.541129 0.931648 0.056315 -0.191691
C159  C     C_R   0.542883 0.068110 0.053800 -0.192675
C160  C     C_R   0.458881 0.931649 0.943646 -0.191683
C161  C     C_R   0.957588 0.568371 0.978166 -0.192000
C162  C     C_R   0.043537 0.431839 0.026527 -0.192532
C163  C     C_R   0.042418 0.568366 0.021880 -0.191997
C164  C     C_R   0.956447 0.431841 0.973392 -0.192544
C165  C     C_R   0.456620 0.103076 0.945354 0.352509
C166  C     C_R   0.541483 0.896683 0.057186 0.350925
C167  C     C_R   0.543370 0.103075 0.054697 0.352536
C168  C     C_R   0.458528 0.896684 0.942786 0.350964
C169  C     C_R   0.957202 0.603343 0.978303 0.349086
C170  C     C_R   0.044017 0.396867 0.026546 0.350588
C171  C     C_R   0.042811 0.603337 0.021757 0.349065
C172  C     C_R   0.955970 0.396870 0.973392 0.350532
C173  C     C_R   0.499997 0.121425 0.000017 -0.222926
C174  C     C_R   0.500003 0.878422 0.999990 -0.219231
C175  C     C_R   0.000004 0.621589 0.000019 -0.219138
C176  C     C_R   0.999996 0.378541 0.999981 -0.220714
C177  C     C_R   0.499998 0.050764 0.000029 0.001196
C178  C     C_R   0.500004 0.949001 0.999980 0.000894
C179  C     C_R   0.999999 0.551002 0.000012 0.001668
C180  C     C_R   0.999992 0.449204 0.999957 0.000952
C181  C     C_1   0.500000 0.014898 0.000012 0.013310
C182  C     C_1   0.500001 0.984865 0.999994 0.013167
C183  C     C_1   0.999994 0.515124 0.999990 0.012980
C184  C     C_1   0.999993 0.485083 0.999973 0.012982
H1    H     H_    0.423871 0.054387 0.904445 0.187096
H2    H     H_    0.572965 0.945348 0.100115 0.186875
H3    H     H_    0.576121 0.054385 0.095615 0.187094
H4    H     H_    0.427046 0.945350 0.899851 0.186872
H5    H     H_    0.924751 0.554674 0.961437 0.186670
H6    H     H_    0.077270 0.445563 0.046930 0.186896
H7    H     H_    0.075255 0.554664 0.038613 0.186671
H8    H     H_    0.922713 0.445567 0.952988 0.186898
H9    H     H_    0.525495 0.445476 0.098742 0.187456
H10   H     H_    0.533421 0.554525 0.957410 0.187473
H11   H     H_    0.474555 0.445484 0.901324 0.187461
H12   H     H_    0.466518 0.554542 0.042537 0.187471
H13   H     H_    0.970009 0.945627 0.047393 0.187280
H14   H     H_    0.970655 0.054656 0.899280 0.187446
H15   H     H_    0.030065 0.945611 0.952668 0.187281
H16   H     H_    0.029300 0.054651 0.100664 0.187450
H17   H     H_    0.671453 0.767125 0.889030 0.147413
H18   H     H_    0.329195 0.235177 0.112279 0.146362
H19   H     H_    0.329144 0.765005 0.112177 0.147530
H20   H     H_    0.670811 0.235164 0.887726 0.146361
H21   H     H_    0.170781 0.264876 0.887683 0.146593
H22   H     H_    0.828572 0.732811 0.111010 0.148078
H23   H     H_    0.829213 0.264888 0.112312 0.146593
H24   H     H_    0.170832 0.734931 0.887783 0.148086
H25   H     H_    0.257875 0.305842 0.969691 0.149308
H26   H     H_    0.739804 0.693558 0.025647 0.154794
H27   H     H_    0.742088 0.305842 0.030277 0.149311
H28   H     H_    0.258084 0.694103 0.970078 0.154513
H29   H     H_    0.760219 0.806378 0.974393 0.152799
H30   H     H_    0.242102 0.194211 0.030270 0.147907
H31   H     H_    0.241893 0.805833 0.029881 0.152548
H32   H     H_    0.757934 0.194211 0.969762 0.147913
H33   H     H_    0.232057 0.209083 0.917966 0.150141
H34   H     H_    0.769622 0.789192 0.085401 0.151011
H35   H     H_    0.767976 0.209095 0.082066 0.150136
H36   H     H_    0.231896 0.790768 0.917672 0.151167
H37   H     H_    0.730405 0.710744 0.914640 0.154394
H38   H     H_    0.267918 0.290969 0.081994 0.153287
H39   H     H_    0.268077 0.709168 0.082286 0.154767
H40   H     H_    0.732050 0.290958 0.917974 0.153282
H41   H     H_    0.152610 0.788317 0.389463 0.145156
H42   H     H_    0.846753 0.211114 0.610542 0.147161
H43   H     H_    0.847389 0.788314 0.610539 0.145150
H44   H     H_    0.153248 0.211118 0.389456 0.147163
H45   H     H_    0.653697 0.289189 0.389502 0.146860
H46   H     H_    0.346826 0.711286 0.610488 0.144503
H47   H     H_    0.346302 0.289185 0.610499 0.146861
H48   H     H_    0.653175 0.711289 0.389510 0.144492
H49   H     H_    0.090722 0.788444 0.266049 0.175545
H50   H     H_    0.908629 0.210974 0.733962 0.183394
H51   H     H_    0.909277 0.788440 0.733952 0.175534
H52   H     H_    0.091372 0.210978 0.266037 0.183400
H53   H     H_    0.591872 0.289415 0.266081 0.184068
H54   H     H_    0.408653 0.711058 0.733903 0.175180
H55   H     H_    0.408128 0.289411 0.733920 0.184068
H56   H     H_    0.591348 0.711062 0.266095 0.175160
H57   H     H_    0.175377 0.711676 0.266061 0.174154
H58   H     H_    0.825212 0.288835 0.733941 0.175751
H59   H     H_    0.824624 0.711679 0.733938 0.174136
H60   H     H_    0.174787 0.288831 0.266060 0.175748
H61   H     H_    0.674160 0.210620 0.265997 0.184112
H62   H     H_    0.325395 0.789004 0.734008 0.183566
H63   H     H_    0.325840 0.210623 0.734002 0.184109
H64   H     H_    0.674604 0.789000 0.265992 0.183564
O1    O     O_3   0.500000 0.749970 0.000000 -0.510342
O2    O     O_3   0.500000 0.250030 0.000000 -0.510404
O3    O     O_3   0.000000 0.249970 0.000000 -0.510302
O4    O     O_3   0.000000 0.750030 0.000000 -0.510516
O5    O     O_R   0.398200 0.769580 0.960780 -0.634366
O6    O     O_R   0.601800 0.230420 0.039220 -0.628887
O7    O     O_R   0.601800 0.769580 0.039220 -0.634336
O8    O     O_R   0.398200 0.230420 0.960780 -0.628855
O9    O     O_R   0.898200 0.269580 0.960780 -0.615959
O10   O     O_R   0.101800 0.730420 0.039220 -0.618687
O11   O     O_R   0.101800 0.269580 0.039220 -0.615939
O12   O     O_R   0.898200 0.730420 0.960780 -0.618647
O13   O     O_R   0.553280 0.730340 0.149660 -0.641052
O14   O     O_R   0.446720 0.269660 0.850340 -0.628309
O15   O     O_R   0.446720 0.730340 0.850340 -0.641019
O16   O     O_R   0.553280 0.269660 0.149660 -0.628298
O17   O     O_R   0.053280 0.230340 0.149660 -0.626339
O18   O     O_R   0.946720 0.769660 0.850340 -0.638007
O19   O     O_R   0.946720 0.230340 0.850340 -0.626326
O20   O     O_R   0.053280 0.769660 0.149660 -0.637988
O21   O     O_R   0.498080 0.675140 0.039250 -0.591597
O22   O     O_R   0.501920 0.324860 0.960750 -0.590760
O23   O     O_R   0.501920 0.675140 0.960750 -0.591580
O24   O     O_R   0.498080 0.324860 0.039250 -0.590766
O25   O     O_R   0.998080 0.175140 0.039250 -0.591866
O26   O     O_R   0.001920 0.824860 0.960750 -0.590613
O27   O     O_R   0.001920 0.175140 0.960750 -0.591887
O28   O     O_R   0.998080 0.824860 0.039250 -0.590604
O29   O     O_R   0.458830 0.824790 0.960760 -0.591544
O30   O     O_R   0.541170 0.175210 0.039240 -0.589789
O31   O     O_R   0.541170 0.824790 0.039240 -0.591529
O32   O     O_R   0.458830 0.175210 0.960760 -0.589764
O33   O     O_R   0.958830 0.324790 0.960760 -0.590775
O34   O     O_R   0.041170 0.675210 0.039240 -0.592489
O35   O     O_R   0.041170 0.324790 0.039240 -0.590763
O36   O     O_R   0.958830 0.675210 0.960760 -0.592508
O37   O     O_R   0.596370 0.769570 0.149640 -0.626513
O38   O     O_R   0.403630 0.230430 0.850360 -0.629335
O39   O     O_R   0.403630 0.769570 0.850360 -0.626505
O40   O     O_R   0.596370 0.230430 0.149640 -0.629323
O41   O     O_R   0.096370 0.269570 0.149640 -0.640409
O42   O     O_R   0.903630 0.730430 0.850360 -0.640052
O43   O     O_R   0.903630 0.269570 0.850360 -0.640397
O44   O     O_R   0.096370 0.730430 0.149640 -0.640025
O45   O     O_R   0.437440 0.730340 0.039250 -0.615249
O46   O     O_R   0.562560 0.269660 0.960750 -0.630493
O47   O     O_R   0.562560 0.730340 0.960750 -0.615300
O48   O     O_R   0.437440 0.269660 0.039250 -0.630517
O49   O     O_R   0.937440 0.230340 0.039250 -0.634635
O50   O     O_R   0.062560 0.769660 0.960750 -0.619450
O51   O     O_R   0.062560 0.230340 0.960750 -0.634670
O52   O     O_R   0.937440 0.769660 0.039250 -0.619497
Zn1   Zn    Zn3+2 0.558810 0.777990 0.056050 1.025033
Zn2   Zn    Zn3+2 0.441190 0.222010 0.943950 1.025602
Zn3   Zn    Zn3+2 0.441190 0.777990 0.943950 1.025045
Zn4   Zn    Zn3+2 0.558810 0.222010 0.056050 1.025602
Zn5   Zn    Zn3+2 0.058810 0.277990 0.056050 1.026472
Zn6   Zn    Zn3+2 0.941190 0.722010 0.943950 1.025528
Zn7   Zn    Zn3+2 0.941190 0.277990 0.943950 1.026496
Zn8   Zn    Zn3+2 0.058810 0.722010 0.056050 1.025562
Zn9   Zn    Zn3+2 0.497250 0.721930 0.056070 1.026442
Zn10  Zn    Zn3+2 0.502750 0.278070 0.943930 1.025260
Zn11  Zn    Zn3+2 0.502750 0.721930 0.943930 1.026473
Zn12  Zn    Zn3+2 0.497250 0.278070 0.056070 1.025274
Zn13  Zn    Zn3+2 0.997250 0.221930 0.056070 1.024747
Zn14  Zn    Zn3+2 0.002750 0.778070 0.943930 1.026234
Zn15  Zn    Zn3+2 0.002750 0.221930 0.943930 1.024743
Zn16  Zn    Zn3+2 0.997250 0.778070 0.056070 1.026259
Cl1   Cl    Cl    0.536179 0.377740 0.130967 -0.577799
Cl2   Cl    Cl    0.546703 0.622297 0.948053 -0.572024
Cl3   Cl    Cl    0.463855 0.377751 0.869051 -0.577742
Cl4   Cl    Cl    0.453169 0.622321 0.051763 -0.572021
Cl5   Cl    Cl    0.958176 0.878013 0.059132 -0.571160
Cl6   Cl    Cl    0.958646 0.122550 0.866736 -0.579505
Cl7   Cl    Cl    0.041913 0.877993 0.940976 -0.571131
Cl8   Cl    Cl    0.041284 0.122539 0.133236 -0.579437
Cl9   Cl    Cl    0.400559 0.121883 0.872775 -0.573237
Cl10  Cl    Cl    0.594389 0.877577 0.132830 -0.576907
Cl11  Cl    Cl    0.599418 0.121883 0.127281 -0.573271
Cl12  Cl    Cl    0.405631 0.877577 0.867160 -0.576962
Cl13  Cl    Cl    0.902537 0.622556 0.953372 -0.572320
Cl14  Cl    Cl    0.100806 0.377912 0.058646 -0.570671
Cl15  Cl    Cl    0.097507 0.622541 0.046769 -0.572347
Cl16  Cl    Cl    0.899172 0.377919 0.941296 -0.570632
H65   H     H_    0.236951 0.711852 0.389479 0.144184
H66   H     H_    0.763643 0.288663 0.610526 0.145174
H67   H     H_    0.763050 0.711855 0.610521 0.144173
H68   H     H_    0.236355 0.288660 0.389475 0.145172
H69   H     H_    0.735685 0.210712 0.389413 0.147459
H70   H     H_    0.263873 0.788920 0.610590 0.146814
H71   H     H_    0.264315 0.210715 0.610586 0.147458
H72   H     H_    0.736127 0.788917 0.389410 0.146810

loop_
_geom_bond_atom_site_label_1
_geom_bond_atom_site_label_2
_ccdc_geom_bond_type
O3    Zn13  S    
C6    C32   S    
C89   O37   A    
C7    C29   S    
C142  C146  S    
C7    O11   A    
C34   C42   S    
C136  C140  A    
C110  C118  S    
C79   C87   A    
C145  C146  T    
C91   O15   A    
C170  C176  A    
C135  C139  A    
C66   H50   S    
O13   Zn9   S    
C26   C50   T    
C64   C112  A    
O41   Zn5   S    
C139  C152  S    
C134  Cl6   S    
C82   H58   S    
C13   H29   S    
C94   O42   A    
C102  H70   S    
C79   C90   S    
C20   C44   S    
C91   O39   A    
O1    Zn1   S    
O8    Zn2   S    
C58   H42   S    
C141  C145  S    
C97   C105  A    
C10   C41   S    
O4    Zn14  S    
C82   C98   A    
O16   Zn12  S    
C122  H10   S    
O19   Zn15  S    
C2    O6    A    
C73   C81   A    
C14   C45   S    
C76   C84   A    
C166  C174  A    
C100  C108  A    
C84   C100  A    
C15   H31   S    
C152  O28   A    
C150  O24   A    
C172  Cl16  S    
C12   C40   S    
C183  C184  T    
C13   C33   S    
C16   C20   S    
C123  C141  A    
C19   H19   S    
C84   H60   S    
C127  C143  A    
C17   H17   S    
C128  C144  A    
C160  C178  A    
C92   O16   A    
C87   C103  A    
O22   Zn10  S    
C63   C71   A    
C133  C139  A    
C171  Cl15  S    
C39   H40   S    
C36   C44   S    
C89   O13   A    
C37   C45   S    
C130  C138  A    
C162  H6    S    
O6    Zn4   S    
C39   C47   S    
C40   C48   S    
C23   H23   S    
C96   O44   A    
C87   H63   S    
C98   C106  A    
C153  O31   A    
C10   C38   S    
C158  C178  A    
O32   Zn2   S    
C80   C88   A    
C9    C21   S    
O1    Zn3   S    
O52   Zn16  S    
O2    Zn4   S    
C11   C23   S    
C159  C167  A    
C160  C168  A    
C63   C111  A    
C104  H72   S    
O20   Zn16  S    
C129  C137  A    
C126  C134  A    
O3    Zn7   S    
C23   C36   S    
O4    Zn16  S    
C155  O35   A    
C101  C109  A    
C180  C184  S    
O25   Zn13  S    
C155  C176  S    
C96   O20   A    
C156  C175  S    
O7    Zn1   S    
C69   C77   A    
C147  C148  T    
O15   Zn11  S    
C75   C83   A    
C150  O22   A    
C71   C79   A    
O11   Zn5   S    
C34   H33   S    
C112  C120  S    
C168  C174  A    
C30   C54   T    
C62   C70   A    
C38   H37   S    
C103  C111  A    
C157  H1    S    
C18   C42   S    
C103  H71   S    
C66   C74   A    
C22   H22   S    
C111  C119  S    
C159  H3    S    
C167  Cl11  S    
C59   C67   A    
O36   Zn6   S    
C10   H26   S    
C8    O52   A    
C62   H46   S    
O46   Zn10  S    
C90   O38   A    
C166  Cl10  S    
C95   O43   A    
C161  C179  A    
C35   C43   S    
C162  C180  A    
C57   H41   S    
C126  H14   S    
C77   C85   A    
C85   H61   S    
C15   C48   S    
O14   Zn10  S    
C36   H35   S    
C88   C104  A    
C27   C51   T    
C21   C45   S    
C138  C149  S    
O42   Zn6   S    
C23   C47   S    
C40   H39   S    
C24   C48   S    
C157  C165  A    
C104  C112  A    
C157  C177  A    
O2    Zn2   S    
C59   C107  A    
O37   Zn1   S    
C60   H44   S    
C155  O33   A    
C156  O36   A    
O33   Zn7   S    
O34   Zn8   S    
C88   H64   S    
C95   O19   A    
O3    Zn5   S    
C57   C65   A    
C124  H12   S    
C5    O9    A    
C11   C44   S    
C42   C50   S    
C163  C179  A    
C137  C150  S    
C164  C172  A    
C67   C75   A    
C4    O8    A    
C86   C102  A    
C59   H43   S    
C63   H47   S    
C164  C180  A    
C14   C34   S    
C68   C76   A    
C12   C24   S    
C1    O45   A    
C3    O47   A    
C72   C80   A    
C16   C36   S    
C156  O34   A    
C125  C143  A    
C177  C181  S    
C126  C144  A    
O17   Zn13  S    
C17   C38   S    
C90   O14   A    
C38   C46   S    
C114  C117  T    
C19   C40   S    
C160  H4    S    
C163  H7    S    
C70   H54   S    
C164  H8    S    
C151  O27   A    
C172  C176  A    
C131  Cl3   S    
C132  Cl4   S    
O30   Zn4   S    
O50   Zn14  S    
C109  C117  S    
C181  C182  T    
C10   C22   S    
C15   C19   S    
C65   H49   S    
C127  C135  A    
C128  C136  A    
C93   O17   A    
C169  Cl13  S    
C83   H59   S    
C14   H30   S    
C153  O29   A    
C81   H57   S    
C80   C89   S    
C16   H32   S    
C5    O49   A    
C97   H65   S    
O26   Zn14  S    
C99   H67   S    
C61   H45   S    
C163  C171  A    
C60   C108  A    
C92   O40   A    
C167  C173  A    
O45   Zn9   S    
C100  H68   S    
C135  Cl7   S    
C83   C99   A    
C123  H11   S    
C74   C82   A    
C158  H2    S    
C121  H9    S    
C19   C43   S    
C179  C183  S    
C121  C141  A    
C3    C25   S    
C20   H20   S    
C64   H48   S    
C20   C39   S    
C21   C34   S    
C153  C174  S    
C24   H24   S    
C127  H15   S    
O23   Zn11  S    
C128  H16   S    
C131  C137  A    
C76   C93   S    
C162  C170  A    
C46   C54   S    
C169  C175  A    
C18   H18   S    
C151  O25   A    
C140  C151  S    
O10   Zn8   S    
C22   C46   S    
O43   Zn7   S    
C102  C110  A    
C158  C166  A    
O1    Zn9   S    
C105  C113  S    
C98   H66   S    
C17   C41   S    
C123  C131  A    
C14   C18   S    
O38   Zn2   S    
C121  C129  A    
C4    C26   S    
C13   C17   S    
C41   C49   S    
C99   C107  A    
O4    Zn6   S    
C93   O41   A    
C6    O10   A    
C8    C30   S    
C108  C116  S    
C154  O32   A    
C149  O21   A    
C43   C51   S    
C25   C49   T    
O49   Zn13  S    
C60   C68   A    
C73   C96   S    
C31   C55   T    
C32   C56   T    
C75   C94   S    
C71   H55   S    
C8    O12   A    
O29   Zn3   S    
C129  Cl1   S    
C57   C105  A    
C77   C92   S    
O31   Zn1   S    
C70   C78   A    
C2    O46   A    
C144  C148  S    
C61   C109  A    
C35   H36   S    
C33   H34   S    
C143  C147  S    
C67   H51   S    
C9    C42   S    
C29   C53   T    
C106  C114  S    
O18   Zn14  S    
C18   C37   S    
C37   H38   S    
C12   C43   S    
C134  C140  A    
C13   C46   S    
C165  C173  A    
C65   C73   A    
C21   H21   S    
C68   H52   S    
C11   H27   S    
C58   C66   A    
O47   Zn11  S    
C130  Cl2   S    
C9    H25   S    
O48   Zn12  S    
C72   H56   S    
C165  Cl9   S    
O28   Zn16  S    
O44   Zn8   S    
O51   Zn15  S    
O1    Zn11  S    
C78   C86   A    
O2    Zn12  S    
C125  H13   S    
C86   H62   S    
O39   Zn3   S    
O40   Zn4   S    
C124  C142  A    
C159  C177  A    
C15   C35   S    
C124  C132  A    
O21   Zn9   S    
O3    Zn15  S    
C94   O18   A    
O4    Zn8   S    
C24   C35   S    
C154  O30   A    
C33   C41   S    
C12   H28   S    
C161  H5    S    
C6    O50   A    
C149  O23   A    
C16   C47   S    
O27   Zn15  S    
C171  C175  A    
O12   Zn6   S    
C58   C106  A    
O24   Zn12  S    
C1    O5    A    
O9    Zn7   S    
C62   C110  A    
C125  C133  A    
C9    C37   S    
C178  C182  S    
C11   C39   S    
C107  C115  S    
C122  C142  A    
C85   C101  A    
C47   C55   S    
C132  C138  A    
C61   C69   A    
C48   C56   S    
C22   C33   S    
C154  C173  S    
C101  H69   S    
C74   C95   S    
C4    O48   A    
C7    O51   A    
C78   C91   S    
C168  Cl12  S    
C133  Cl5   S    
C116  C119  T    
C161  C169  A    
C152  O26   A    
C28   C52   T    
C44   C52   S    
C81   C97   A    
C136  Cl8   S    
C64   C72   A    
C3    O7    A    
C170  Cl14  S    
C45   C53   S    
C113  C118  T    
O2    Zn10  S    
C115  C120  T    
C1    C27   S    
C2    C28   S    
C69   H53   S    
C122  C130  A    
O35   Zn5   S    
C5    C31   S    
O5    Zn3   S    
