data_mof_unit_65652.cif
_audit_creation_date              2012-12-10T16:55:13-0500
_audit_creation_method            fapswitch 2.2
_symmetry_space_group_name_H-M    P1
_symmetry_Int_Tables_number       1
_space_group_crystal_system       triclinic
_cell_length_a                    18.541396
_cell_length_b                    18.541529
_cell_length_c                    51.350668
_cell_angle_alpha                 89.999957
_cell_angle_beta                  89.999956
_cell_angle_gamma                 90.002886
_cell_volume                      17653.632081

loop_
_atom_site_label
_atom_site_type_symbol
_atom_type_description
_atom_site_fract_x
_atom_site_fract_y
_atom_site_fract_z
_atom_type_partial_charge
C1    C     C_R   1.000000 0.500000 0.070807 0.512594
C2    C     C_R   0.108366 0.426248 0.264030 -0.113316
C3    C     C_R   0.861641 0.639151 0.500316 0.515316
C4    C     C_2   0.682035 0.261949 0.991279 -0.060085
C5    C     C_2   0.738006 0.681975 0.991326 -0.059508
C6    C     C_2   0.317965 0.738051 0.991279 -0.060085
C7    C     C_2   0.261994 0.318025 0.991326 -0.059507
C8    C     C_2   0.311597 0.257469 0.986576 -0.060715
C9    C     C_2   0.257380 0.688488 0.986529 -0.060559
C10   C     C_2   0.688403 0.742531 0.986576 -0.060715
C11   C     C_2   0.742620 0.311512 0.986529 -0.060559
C12   C     C_2   0.181857 0.762085 0.491432 -0.059363
C13   C     C_R   0.573768 0.108362 0.264030 -0.113316
C14   C     C_2   0.238033 0.182004 0.491304 -0.060647
C15   C     C_2   0.818143 0.237915 0.491432 -0.059363
C16   C     C_2   0.761968 0.817995 0.491304 -0.060647
C17   C     C_2   0.811563 0.757436 0.486552 -0.059530
C18   C     C_2   0.757632 0.188259 0.486670 -0.061350
C19   C     C_2   0.188437 0.242564 0.486552 -0.059530
C20   C     C_2   0.242368 0.811741 0.486670 -0.061350
C21   C     C_2   0.694422 0.193710 0.999309 -0.108561
C22   C     C_2   0.806272 0.694403 0.999318 -0.107551
C23   C     C_2   0.305578 0.806290 0.999309 -0.108562
C24   C     C_R   0.891633 0.573752 0.264030 -0.113316
C25   C     C_2   0.193728 0.305597 0.999318 -0.107551
C26   C     C_2   0.310695 0.198980 0.002329 -0.110772
C27   C     C_2   0.198967 0.689317 0.002317 -0.110764
C28   C     C_2   0.689305 0.801020 0.002329 -0.110772
C29   C     C_2   0.801032 0.310683 0.002317 -0.110764
C30   C     C_2   0.194358 0.693771 0.499350 -0.103283
C31   C     C_2   0.306297 0.194421 0.499302 -0.109467
C32   C     C_2   0.805641 0.306229 0.499350 -0.103282
C33   C     C_2   0.693703 0.805579 0.499302 -0.109466
C34   C     C_2   0.810647 0.698943 0.502301 -0.113626
C35   C     C_R   0.037501 0.445971 0.777914 0.030931
C36   C     C_2   0.699017 0.189269 0.502359 -0.110216
C37   C     C_2   0.189353 0.301057 0.502301 -0.113627
C38   C     C_2   0.300983 0.810731 0.502359 -0.110216
C39   C     C_R   0.536754 0.052949 0.195650 0.417230
C40   C     C_R   0.947049 0.536746 0.195650 0.417230
C41   C     C_R   0.463245 0.947051 0.195650 0.417231
C42   C     C_R   0.052951 0.463254 0.195650 0.417230
C43   C     C_R   0.962718 0.552575 0.695648 0.417235
C44   C     C_R   0.447098 0.036817 0.695649 0.417222
C45   C     C_R   0.037281 0.447425 0.695648 0.417235
C46   C     C_R   0.554379 0.963009 0.777913 0.030911
C47   C     C_R   0.552902 0.963183 0.695649 0.417222
C48   C     C_R   0.462711 0.945775 0.222976 0.033634
C49   C     C_R   0.054226 0.462720 0.222976 0.033633
C50   C     C_R   0.537288 0.054224 0.222976 0.033634
C51   C     C_R   0.945773 0.537280 0.222976 0.033633
C52   C     C_R   0.037843 0.446165 0.722975 0.034230
C53   C     C_R   0.554176 0.962646 0.722975 0.034229
C54   C     C_R   0.962157 0.553835 0.722975 0.034230
C55   C     C_R   0.445824 0.037354 0.722975 0.034229
C56   C     C_R   0.500000 1.000000 0.236694 -0.024803
C57   C     C_R   0.962499 0.554029 0.777914 0.030931
C58   C     C_R   1.000000 0.500000 0.236694 -0.024803
C59   C     C_R   1.000000 0.500000 0.736693 -0.024480
C60   C     C_R   0.500000 0.000000 0.736693 -0.024493
C61   C     C_R   0.425940 0.891816 0.236852 -0.110367
C62   C     C_R   0.108187 0.425957 0.236852 -0.110367
C63   C     C_R   0.574060 0.108183 0.236852 -0.110366
C64   C     C_R   0.891812 0.574043 0.236852 -0.110367
C65   C     C_R   0.075181 0.392599 0.736852 -0.110880
C66   C     C_R   0.608086 0.925807 0.736851 -0.110879
C67   C     C_R   0.924819 0.607401 0.736852 -0.110880
C68   C     C_R   0.445621 0.036991 0.777913 0.030911
C69   C     C_R   0.391914 0.074193 0.736851 -0.110879
C70   C     C_1   0.609542 0.289074 0.986738 0.270490
C71   C     C_1   0.710896 0.609457 0.986816 0.270891
C72   C     C_1   0.390458 0.710926 0.986738 0.270490
C73   C     C_1   0.289104 0.390543 0.986816 0.270891
C74   C     C_1   0.360265 0.264047 0.964525 0.282212
C75   C     C_1   0.263842 0.639942 0.964438 0.279363
C76   C     C_1   0.639735 0.735953 0.964525 0.282212
C77   C     C_1   0.736159 0.360058 0.964438 0.279363
C78   C     C_1   0.109295 0.789179 0.487007 0.271198
C79   C     C_R   0.463076 0.945572 0.277913 0.030668
C80   C     C_1   0.210899 0.109489 0.486810 0.269367
C81   C     C_1   0.890705 0.210821 0.487007 0.271198
C82   C     C_1   0.789101 0.890512 0.486810 0.269367
C83   C     C_1   0.860270 0.764033 0.464512 0.281407
C84   C     C_1   0.764383 0.139439 0.464669 0.280667
C85   C     C_1   0.139730 0.235967 0.464512 0.281408
C86   C     C_1   0.235617 0.860561 0.464669 0.280667
C87   C     C_1   0.599233 0.911672 0.155436 0.264026
C88   C     C_1   0.088327 0.599243 0.155436 0.264024
C89   C     C_1   0.400766 0.088327 0.155436 0.264026
C90   C     C_R   0.054430 0.463085 0.277913 0.030665
C91   C     C_1   0.911672 0.400757 0.155436 0.264025
C92   C     C_1   0.901173 0.411207 0.655434 0.263789
C93   C     C_1   0.588413 0.099170 0.655434 0.263938
C94   C     C_1   0.098827 0.588793 0.655433 0.263789
C95   C     C_1   0.411587 0.900830 0.655434 0.263938
C96   C     C_1   0.597653 0.907635 0.099834 0.245069
C97   C     C_1   0.092365 0.597662 0.099834 0.245070
C98   C     C_1   0.402346 0.092364 0.099834 0.245069
C99   C     C_1   0.907635 0.402338 0.099834 0.245070
C100  C     C_1   0.902710 0.407252 0.599827 0.244204
C101  C     C_R   0.536923 0.054428 0.277913 0.030668
C102  C     C_1   0.592437 0.097596 0.599832 0.244681
C103  C     C_1   0.097289 0.592748 0.599827 0.244204
C104  C     C_1   0.407563 0.902404 0.599832 0.244681
C105  C     C_R   0.500000 0.000000 0.070807 0.512606
C106  C     C_R   0.945570 0.536915 0.277913 0.030665
C107  C     C_R   1.000000 0.500000 0.764196 -0.025867
C108  C     C_R   0.500000 0.000000 0.764195 -0.025871
C109  C     C_R   0.500000 1.000000 0.264196 -0.026046
C110  C     C_R   1.000000 0.500000 0.264196 -0.026046
C111  C     C_R   0.036408 0.446822 0.805250 0.405313
C112  C     C_R   0.553526 0.964106 0.805248 0.405251
C113  C     C_R   0.963592 0.553178 0.805250 0.405312
C114  C     C_R   0.446474 0.035894 0.805248 0.405251
C115  C     C_R   0.464170 0.946426 0.305249 0.405378
C116  C     C_R   0.500000 1.000000 0.570807 0.512149
C117  C     C_R   0.053575 0.464179 0.305249 0.405375
C118  C     C_R   0.535830 0.053573 0.305249 0.405378
C119  C     C_R   0.946424 0.535821 0.305249 0.405374
C120  C     C_R   0.935252 0.491243 0.860078 -0.054107
C121  C     C_R   0.507968 0.064848 0.860077 -0.054062
C122  C     C_R   0.064748 0.508757 0.860078 -0.054107
C123  C     C_R   0.492032 0.935152 0.860077 -0.054062
C124  C     C_R   0.564855 0.992089 0.360077 -0.054061
C125  C     C_R   0.007907 0.564856 0.360077 -0.054058
C126  C     C_R   0.435145 0.007910 0.360077 -0.054061
C127  C     C_R   1.000000 0.500000 0.570806 0.512037
C128  C     C_R   0.992093 0.435144 0.360077 -0.054058
C129  C     C_R   0.935158 0.491454 0.887249 -0.130643
C130  C     C_R   0.507748 0.064941 0.887247 -0.130301
C131  C     C_R   0.064842 0.508545 0.887249 -0.130643
C132  C     C_R   0.492252 0.935059 0.887247 -0.130301
C133  C     C_R   0.564947 0.992308 0.387247 -0.130382
C134  C     C_R   0.007688 0.564948 0.387247 -0.130375
C135  C     C_R   0.435053 0.007692 0.387247 -0.130382
C136  C     C_R   0.992311 0.435052 0.387247 -0.130375
C137  C     C_R   0.000000 0.500000 0.901098 0.024282
C138  C     C_R   0.074907 0.392428 0.764030 -0.113480
C139  C     C_R   0.500000 0.000000 0.901097 0.024655
C140  C     C_R   0.500000 1.000000 0.401097 0.024515
C141  C     C_R   1.000000 0.500000 0.401097 0.024523
C142  C     C_R   0.000000 0.500000 0.846347 0.232160
C143  C     C_R   0.500000 0.000000 0.846345 0.232035
C144  C     C_R   0.500000 1.000000 0.346346 0.232121
C145  C     C_R   1.000000 0.500000 0.346346 0.232118
C146  C     C_R   0.548980 0.956167 0.140978 0.007631
C147  C     C_R   0.043832 0.548984 0.140978 0.007629
C148  C     C_R   0.451020 0.043832 0.140978 0.007632
C149  C     C_R   0.608264 0.926097 0.764030 -0.113489
C150  C     C_R   0.956167 0.451016 0.140978 0.007629
C151  C     C_R   0.951210 0.455950 0.640976 0.007030
C152  C     C_R   0.543873 0.048949 0.640977 0.007031
C153  C     C_R   0.048789 0.544050 0.640976 0.007030
C154  C     C_R   0.456127 0.951051 0.640977 0.007031
C155  C     C_R   0.548927 0.955652 0.113570 -0.059360
C156  C     C_R   0.044348 0.548931 0.113570 -0.059368
C157  C     C_R   0.451073 0.044348 0.113570 -0.059360
C158  C     C_R   0.955652 0.451069 0.113570 -0.059368
C159  C     C_R   0.951253 0.455451 0.613567 -0.060379
C160  C     C_R   0.925093 0.607572 0.764030 -0.113481
C161  C     C_R   0.544385 0.048898 0.613568 -0.060171
C162  C     C_R   0.048747 0.544549 0.613567 -0.060379
C163  C     C_R   0.455615 0.951102 0.613568 -0.060171
C164  C     C_R   0.000000 0.500000 0.929818 0.506519
C165  C     C_R   0.500000 0.000000 0.929818 0.506660
C166  C     C_R   0.500000 1.000000 0.429818 0.506644
C167  C     C_R   0.000000 0.500000 0.429818 0.506666
C168  C     C_R   0.500000 1.000000 0.099680 -0.013625
C169  C     C_R   0.000000 0.500000 0.099680 -0.013626
C170  C     C_R   1.000000 0.500000 0.599679 -0.014155
C171  C     C_R   0.391735 0.073903 0.764030 -0.113489
C172  C     C_R   0.500000 1.000000 0.599679 -0.014146
C173  C     C_R   0.500000 1.000000 0.154603 0.187973
C174  C     C_R   1.000000 0.500000 0.154603 0.187973
C175  C     C_R   1.000000 0.500000 0.654601 0.187986
C176  C     C_R   0.500000 1.000000 0.654602 0.187881
C177  C     C_R   0.860674 0.637927 0.000504 0.516402
C178  C     C_R   0.362071 0.860675 0.000503 0.516026
C179  C     C_R   0.139326 0.362073 0.000504 0.516403
C180  C     C_R   0.637929 0.139325 0.000503 0.516026
C181  C     C_R   0.139157 0.638350 0.000321 0.518029
C182  C     C_R   0.426231 0.891637 0.264031 -0.113316
C183  C     C_R   0.638344 0.860836 0.000324 0.518566
C184  C     C_R   0.860843 0.361650 0.000321 0.518029
C185  C     C_R   0.361656 0.139164 0.000324 0.518567
C186  C     C_R   0.360678 0.137930 0.500502 0.515679
C187  C     C_R   0.862087 0.360664 0.500513 0.519988
C188  C     C_R   0.639322 0.862070 0.500502 0.515679
C189  C     C_R   0.137913 0.639336 0.500513 0.519988
C190  C     C_R   0.639178 0.138333 0.500332 0.518400
C191  C     C_R   0.138359 0.360849 0.500316 0.515316
C192  C     C_R   0.360822 0.861667 0.500332 0.518400
H1    H     H_    0.748721 0.175289 0.003571 0.102534
H2    H     H_    0.324742 0.248732 0.503533 0.102375
H3    H     H_    0.751303 0.324663 0.503539 0.103041
H4    H     H_    0.675258 0.751268 0.503533 0.102375
H5    H     H_    0.773514 0.696567 0.518629 0.111220
H6    H     H_    0.696553 0.226455 0.518671 0.120667
H7    H     H_    0.226486 0.303432 0.518629 0.111220
H8    H     H_    0.303447 0.773544 0.518671 0.120667
H9    H     H_    0.396916 0.849505 0.226770 0.177818
H10   H     H_    0.150500 0.396939 0.226770 0.177818
H11   H     H_    0.603084 0.150495 0.226770 0.177818
H12   H     H_    0.824699 0.748715 0.003558 0.102706
H13   H     H_    0.849499 0.603061 0.226770 0.177818
H14   H     H_    0.104641 0.350593 0.726770 0.175974
H15   H     H_    0.650358 0.896730 0.726769 0.175987
H16   H     H_    0.895358 0.649407 0.726770 0.175974
H17   H     H_    0.349642 0.103270 0.726769 0.175987
H18   H     H_    0.104180 0.350282 0.774107 0.174829
H19   H     H_    0.650682 0.897220 0.774106 0.174850
H20   H     H_    0.895821 0.649717 0.774107 0.174829
H21   H     H_    0.349318 0.102780 0.774106 0.174851
H22   H     H_    0.397408 0.849181 0.274107 0.175411
H23   H     H_    0.251279 0.824711 0.003571 0.102534
H24   H     H_    0.150825 0.397432 0.274107 0.175416
H25   H     H_    0.602592 0.150819 0.274107 0.175412
H26   H     H_    0.849175 0.602568 0.274107 0.175416
H27   H     H_    0.884982 0.484071 0.849660 0.146971
H28   H     H_    0.514525 0.115203 0.849660 0.146900
H29   H     H_    0.115018 0.515929 0.849660 0.146971
H30   H     H_    0.485475 0.884797 0.849660 0.146900
H31   H     H_    0.615215 0.985578 0.349660 0.147069
H32   H     H_    0.014416 0.615216 0.349660 0.147065
H33   H     H_    0.384785 0.014422 0.349660 0.147069
H34   H     H_    0.175301 0.251285 0.003558 0.102706
H35   H     H_    0.985584 0.384784 0.349660 0.147065
H36   H     H_    0.884411 0.484529 0.897386 0.156310
H37   H     H_    0.514018 0.115774 0.897382 0.155045
H38   H     H_    0.115589 0.515471 0.897386 0.156310
H39   H     H_    0.485982 0.884226 0.897382 0.155045
H40   H     H_    0.615786 0.986082 0.397382 0.155205
H41   H     H_    0.013911 0.615787 0.397382 0.155194
H42   H     H_    0.384214 0.013917 0.397382 0.155205
H43   H     H_    0.986089 0.384213 0.397382 0.155194
H44   H     H_    0.273596 0.196619 0.018668 0.117860
H45   H     H_    0.196678 0.726347 0.018678 0.118010
H46   H     H_    0.726404 0.803381 0.018668 0.117860
H47   H     H_    0.803322 0.273652 0.018678 0.118009
H48   H     H_    0.248697 0.675337 0.503539 0.103041
N1    N     N_R   0.500000 1.000000 0.182631 -0.398573
N2    N     N_1   0.689158 0.551779 0.983241 -0.231282
N3    N     N_1   0.448116 0.689172 0.983138 -0.232135
N4    N     N_1   0.310842 0.448221 0.983241 -0.231282
N5    N     N_1   0.398884 0.269509 0.946923 -0.232037
N6    N     N_1   0.269208 0.601420 0.946804 -0.238157
N7    N     N_1   0.601116 0.730491 0.946923 -0.232037
N8    N     N_1   0.730792 0.398580 0.946804 -0.238157
N9    N     N_1   0.051583 0.810904 0.483501 -0.232458
N10   N     N_1   0.189137 0.051814 0.483249 -0.231950
N11   N     N_1   0.948417 0.189096 0.483501 -0.232458
N12   N     N_R   1.000000 0.500000 0.182631 -0.398572
N13   N     N_1   0.810863 0.948186 0.483249 -0.231951
N14   N     N_1   0.898921 0.769511 0.446919 -0.233826
N15   N     N_1   0.769984 0.100702 0.447107 -0.233350
N16   N     N_1   0.101079 0.230490 0.446919 -0.233826
N17   N     N_1   0.230016 0.899298 0.447107 -0.233350
N18   N     N_1   0.639322 0.876173 0.167014 -0.238947
N19   N     N_1   0.123825 0.639336 0.167014 -0.238944
N20   N     N_1   0.360677 0.123825 0.167014 -0.238947
N21   N     N_1   0.876173 0.360665 0.167014 -0.238945
N22   N     N_1   0.861256 0.375509 0.667010 -0.235201
N23   N     N_R   1.000000 0.500000 0.682630 -0.398405
N24   N     N_1   0.623948 0.139233 0.667010 -0.235175
N25   N     N_1   0.138744 0.624491 0.667010 -0.235201
N26   N     N_1   0.376052 0.860767 0.667010 -0.235175
N27   N     N_1   0.636501 0.869305 0.088891 -0.250038
N28   N     N_1   0.130697 0.636512 0.088891 -0.249988
N29   N     N_1   0.363499 0.130696 0.088891 -0.250038
N30   N     N_1   0.869303 0.363488 0.088891 -0.249988
N31   N     N_1   0.864009 0.368774 0.588883 -0.243518
N32   N     N_1   0.630796 0.136421 0.588890 -0.245645
N33   N     N_1   0.135991 0.631226 0.588883 -0.243518
N34   N     N_R   0.500000 1.000000 0.682630 -0.398423
N35   N     N_1   0.369204 0.863579 0.588890 -0.245645
N36   N     N_R   0.000000 0.500000 0.818345 -0.398148
N37   N     N_R   0.500000 0.000000 0.818344 -0.398191
N38   N     N_R   0.500000 1.000000 0.318344 -0.397915
N39   N     N_R   1.000000 0.500000 0.318344 -0.397921
N40   N     N_1   0.551884 0.310828 0.983138 -0.232134
O1    O     O_3   0.000000 0.500000 0.000300 -0.462043
O2    O     O_R   0.060090 0.500000 0.558350 -0.526163
O3    O     O_R   0.500000 0.060090 0.558350 -0.526056
O4    O     O_R   0.939910 0.500000 0.558350 -0.526164
O5    O     O_R   0.939640 0.500000 0.942260 -0.538557
O6    O     O_R   0.500000 0.939640 0.942260 -0.538731
O7    O     O_R   0.060360 0.500000 0.942260 -0.538557
O8    O     O_R   0.500000 0.060360 0.942260 -0.538731
O9    O     O_R   0.439640 0.000000 0.442260 -0.538715
O10   O     O_R   0.000000 0.439640 0.442260 -0.538699
O11   O     O_R   0.560360 0.000000 0.442260 -0.538715
O12   O     O_3   0.500000 0.000000 0.000300 -0.461844
O13   O     O_R   0.000000 0.560360 0.442260 -0.538699
O14   O     O_R   0.915140 0.644610 0.015520 -0.533168
O15   O     O_R   0.355390 0.915140 0.015520 -0.532879
O16   O     O_R   0.084860 0.355390 0.015520 -0.533168
O17   O     O_R   0.644610 0.084860 0.015520 -0.532879
O18   O     O_R   0.084860 0.644610 0.015520 -0.527764
O19   O     O_R   0.644610 0.915140 0.015520 -0.527759
O20   O     O_R   0.915140 0.355390 0.015520 -0.527764
O21   O     O_R   0.355390 0.084860 0.015520 -0.527759
O22   O     O_R   0.415140 0.144610 0.515520 -0.533764
O23   O     O_3   0.500000 0.000000 0.500300 -0.461671
O24   O     O_R   0.855390 0.415140 0.515520 -0.525549
O25   O     O_R   0.584860 0.855390 0.515520 -0.533764
O26   O     O_R   0.144610 0.584860 0.515520 -0.525549
O27   O     O_R   0.584860 0.144610 0.515520 -0.527575
O28   O     O_R   0.144610 0.415140 0.515520 -0.535396
O29   O     O_R   0.415140 0.855390 0.515520 -0.527575
O30   O     O_R   0.855390 0.584860 0.515520 -0.535396
O31   O     O_R   0.144340 0.415480 0.985090 -0.522849
O32   O     O_R   0.584520 0.144340 0.985090 -0.524440
O33   O     O_R   0.855660 0.584520 0.985090 -0.522849
O34   O     O_3   1.000000 0.500000 0.500300 -0.461669
O35   O     O_R   0.415480 0.855660 0.985090 -0.524440
O36   O     O_R   0.855660 0.415480 0.985090 -0.520841
O37   O     O_R   0.415480 0.144340 0.985090 -0.520285
O38   O     O_R   0.144340 0.584520 0.985090 -0.520841
O39   O     O_R   0.584520 0.855660 0.985090 -0.520285
O40   O     O_R   0.644340 0.915480 0.485090 -0.523779
O41   O     O_R   0.084520 0.644340 0.485090 -0.526006
O42   O     O_R   0.355660 0.084520 0.485090 -0.523779
O43   O     O_R   0.915480 0.355660 0.485090 -0.526005
O44   O     O_R   0.355660 0.915480 0.485090 -0.520156
O45   O     O_R   0.000000 0.439910 0.058350 -0.525666
O46   O     O_R   0.915480 0.644340 0.485090 -0.518985
O47   O     O_R   0.644340 0.084520 0.485090 -0.520157
O48   O     O_R   0.084520 0.355660 0.485090 -0.518985
O49   O     O_2   0.572609 0.104075 0.182156 -0.472968
O50   O     O_2   0.895921 0.572594 0.182156 -0.472973
O51   O     O_2   0.427391 0.895924 0.182156 -0.472968
O52   O     O_2   0.104079 0.427406 0.182156 -0.472973
O53   O     O_2   0.926369 0.603347 0.682154 -0.474907
O54   O     O_2   0.396016 0.072730 0.682155 -0.474882
O55   O     O_2   0.073631 0.396653 0.682154 -0.474907
O56   O     O_R   0.560090 0.000000 0.058350 -0.525656
O57   O     O_2   0.603984 0.927270 0.682155 -0.474882
O58   O     O_2   0.070895 0.394557 0.818643 -0.484654
O59   O     O_2   0.606132 0.930138 0.818640 -0.484454
O60   O     O_2   0.929106 0.605443 0.818643 -0.484654
O61   O     O_2   0.393868 0.069862 0.818640 -0.484454
O62   O     O_2   0.430264 0.893778 0.318641 -0.485534
O63   O     O_2   0.106226 0.430281 0.318641 -0.485513
O64   O     O_2   0.569736 0.106221 0.318641 -0.485534
O65   O     O_2   0.893774 0.569719 0.318641 -0.485513
O66   O     O_R   0.000000 0.560090 0.058350 -0.525666
O67   O     O_R   0.439910 0.000000 0.058350 -0.525656
O68   O     O_R   0.500000 0.939910 0.558350 -0.526056
Zn1   Zn    Zn3+2 0.913860 0.500000 0.978560 0.976883
Zn2   Zn    Zn3+2 0.414170 0.000000 0.022050 0.977076
Zn3   Zn    Zn3+2 0.000000 0.414170 0.022050 0.976965
Zn4   Zn    Zn3+2 0.585830 0.000000 0.022050 0.977076
Zn5   Zn    Zn3+2 0.500000 0.085830 0.522050 0.976309
Zn6   Zn    Zn3+2 0.914170 0.500000 0.522050 0.976274
Zn7   Zn    Zn3+2 0.500000 0.914170 0.522050 0.976309
Zn8   Zn    Zn3+2 0.085830 0.500000 0.522050 0.976274
Zn9   Zn    Zn3+2 0.500000 0.913860 0.978560 0.976246
Zn10  Zn    Zn3+2 0.086140 0.500000 0.978560 0.976883
Zn11  Zn    Zn3+2 0.500000 0.086140 0.978560 0.976246
Zn12  Zn    Zn3+2 0.413860 0.000000 0.478560 0.976499
Zn13  Zn    Zn3+2 1.000000 0.413860 0.478560 0.976169
Zn14  Zn    Zn3+2 0.586140 0.000000 0.478560 0.976499
Zn15  Zn    Zn3+2 1.000000 0.586140 0.478560 0.976169
Zn16  Zn    Zn3+2 0.000000 0.585830 0.022050 0.976965

loop_
_geom_bond_atom_site_label_1
_geom_bond_atom_site_label_2
_ccdc_geom_bond_type
C167  O13   A    
C89   C148  S    
C44   N34   A    
C2    H24   S    
C46   C112  A    
C8    C26   D    
C188  O40   A    
C15   C32   D    
C7    C73   S    
C23   H23   S    
C127  C170  S    
C9    C27   D    
C124  C133  A    
O12   Zn11  S    
C185  O21   A    
C165  O8    A    
O37   Zn11  S    
C28   C183  S    
C119  N39   A    
C26   C185  S    
C128  C145  A    
C26   H44   S    
C136  H43   S    
C189  O41   A    
C143  N37   S    
C70   N40   T    
C30   C189  S    
C2    C90   A    
C118  O64   S    
C19   C37   D    
C161  C172  A    
C103  C162  S    
C137  C164  S    
C18   C84   S    
C25   H34   S    
O56   Zn4   S    
O39   Zn9   S    
C47   C53   A    
C177  O14   A    
O33   Zn1   S    
C72   N3    T    
C179  O16   A    
C81   N11   T    
C178  O35   A    
C113  N36   A    
C39   O49   S    
C79   C109  A    
O35   Zn9   S    
C90   C117  A    
C184  O36   A    
C66   C149  A    
C45   O55   S    
C118  N38   A    
C74   N5    T    
C95   N26   T    
C3    C34   S    
C105  O67   A    
C183  O39   A    
C86   N17   T    
C136  C141  A    
C43   C54   A    
C13   C63   A    
C98   C157  S    
C12   C20   S    
C8    C74   S    
C163  C172  A    
C164  O5    A    
C131  H38   S    
C121  H28   S    
C38   H8    S    
C17   C34   D    
C112  O59   S    
C125  H32   S    
O4    Zn6   S    
C119  O65   S    
C49   C62   A    
C164  O7    A    
C58   C110  A    
O10   Zn13  S    
C14   C19   S    
C51   C64   A    
O44   Zn12  S    
C30   H48   S    
C19   C85   S    
O23   Zn5   S    
C54   C67   A    
O24   Zn6   S    
C64   H13   S    
C153  C175  A    
C99   N30   T    
C79   C182  A    
C154  C176  A    
C77   N8    T    
C189  O26   A    
C134  C141  A    
C66   H15   S    
C44   C55   A    
C102  C161  S    
C129  H36   S    
C186  O42   A    
C59   C107  A    
C35   C107  A    
O12   Zn2   S    
C129  C137  A    
C105  O56   A    
C178  O15   A    
O30   Zn6   S    
C116  O3    A    
C52   C65   A    
O1    Zn16  S    
O2    Zn8   S    
C100  N31   T    
C15   C18   S    
C185  O37   A    
C159  C170  A    
C79   C115  A    
C123  C132  A    
C41   O51   S    
C121  C130  A    
C6    C9    S    
C147  C174  A    
C7    C8    S    
C132  C139  A    
C61   C182  A    
C63   H11   S    
C36   C190  S    
C101  C118  A    
C190  O47   A    
C179  O31   A    
C120  H27   S    
C68   C171  A    
C97   C156  S    
C139  C165  S    
C11   C77   S    
C88   N19   T    
C175  N23   S    
C33   H4    S    
C46   C108  A    
C180  O17   A    
C82   N13   T    
C43   O53   S    
C152  C161  A    
C91   N21   T    
C80   N10   T    
C50   C63   A    
C145  N39   S    
C22   C177  S    
O21   Zn2   S    
C192  O44   A    
C53   C60   A    
C54   C59   A    
C98   N29   T    
C83   N14   T    
C120  C129  A    
C177  O33   A    
C190  O27   A    
C57   C113  A    
C45   C52   A    
C187  O43   A    
C138  H18   S    
C50   C56   A    
C191  O28   A    
C41   N1    A    
C151  C159  A    
C127  O4    A    
C27   C181  S    
O15   Zn2   S    
O12   Zn4   S    
C92   C151  S    
C135  H42   S    
C111  N36   A    
C55   C69   A    
C75   N6    T    
C115  N38   A    
C166  O11   A    
C3    O30   A    
C24   C106  A    
O16   Zn3   S    
C132  H39   S    
C122  C131  A    
C94   N25   T    
O23   Zn12  S    
C32   C187  S    
C57   C107  A    
O32   Zn11  S    
C93   C152  S    
O40   Zn14  S    
C40   C51   A    
C105  C168  S    
C22   H12   S    
C133  H40   S    
O20   Zn3   S    
C125  C145  A    
C184  O20   A    
O67   Zn2   S    
C43   N23   A    
C100  C159  S    
C73   N4    T    
C94   C153  S    
C126  C144  A    
C33   C188  S    
C148  C157  A    
C157  C168  A    
C46   C149  A    
O47   Zn14  S    
C122  C142  A    
C21   H1    S    
O18   Zn16  S    
C67   H16   S    
C39   N1    A    
C125  C134  A    
O27   Zn5   S    
O1    Zn1   S    
C29   C184  S    
C106  C119  A    
C56   C109  A    
C4    C70   S    
C47   N34   A    
O29   Zn7   S    
C6    C72   S    
C102  N32   T    
C127  O2    A    
C87   C146  S    
C36   H6    S    
O46   Zn15  S    
C128  C136  A    
C40   N12   A    
C45   N23   A    
O17   Zn4   S    
C101  C109  A    
O23   Zn7   S    
C191  O48   A    
C116  C172  S    
C69   C171  A    
C62   H10   S    
C114  N37   A    
C28   H46   S    
C166  O9    A    
C146  C155  A    
C16   C17   S    
C20   C86   S    
C14   C31   D    
C60   C108  A    
C93   N24   T    
O36   Zn1   S    
C42   N12   A    
C24   C64   A    
C55   C60   A    
C89   N20   T    
C32   H3    S    
C130  C139  A    
C183  O19   A    
C40   O50   S    
C140  C166  S    
C135  C140  A    
C141  C167  S    
C151  C175  A    
O34   Zn8   S    
C103  N33   T    
C187  O24   A    
O43   Zn13  S    
C167  O10   A    
C131  C137  A    
O25   Zn7   S    
C162  C170  A    
C155  C168  A    
C84   N15   T    
O19   Zn4   S    
C111  O58   S    
C51   C58   A    
C4    C11   S    
C147  C156  A    
C114  O61   S    
C65   C138  A    
C57   C160  A    
C126  C135  A    
O1    Zn3   S    
C76   N7    T    
C142  N36   S    
C27   H45   S    
C10   C28   D    
O3    Zn5   S    
C85   N16   T    
C150  C158  A    
C12   C30   D    
C149  H19   S    
O45   Zn3   S    
C176  N34   S    
C91   C150  S    
C25   C179  S    
C181  O38   A    
O26   Zn8   S    
C148  C173  A    
C130  H37   S    
C153  C162  A    
C186  O22   A    
C95   C154  S    
O66   Zn16  S    
C5    C71   S    
C174  N12   S    
C88   C147  S    
C171  H21   S    
C3    O46   A    
C133  C140  A    
O11   Zn14  S    
C78   N9    T    
C144  N38   S    
C13   H25   S    
C188  O25   A    
C18   C36   D    
O41   Zn15  S    
O38   Zn10  S    
C116  O68   A    
O9    Zn12  S    
C121  C143  A    
O34   Zn6   S    
C104  C163  S    
C15   C81   S    
C71   N2    T    
O31   Zn10  S    
C181  O18   A    
C192  O29   A    
O13   Zn15  S    
C35   C138  A    
O1    Zn10  S    
C96   C155  S    
C146  C173  A    
C156  C169  A    
O6    Zn9   S    
O34   Zn15  S    
C112  N37   A    
C23   C178  S    
C61   H9    S    
C10   C76   S    
C134  H41   S    
C21   C180  S    
C5    C22   D    
C180  O32   A    
C122  H29   S    
C12   C78   S    
C67   C160  A    
C14   C80   S    
C42   O52   S    
C96   N27   T    
C44   O54   S    
C87   N18   T    
C47   O57   S    
C160  H20   S    
C123  H30   S    
O7    Zn10  S    
O42   Zn12  S    
C154  C163  A    
C120  C142  A    
C115  O62   S    
C117  O63   S    
C65   H14   S    
O28   Zn8   S    
C49   C58   A    
O12   Zn9   S    
C17   C83   S    
C152  C176  A    
C165  O6    A    
C1    O66   A    
C52   C59   A    
C16   C33   D    
C20   C38   D    
O68   Zn7   S    
C97   N28   T    
C124  H31   S    
O23   Zn14  S    
C16   C82   S    
O8    Zn11  S    
C7    C25   D    
C53   C66   A    
C104  N35   T    
C150  C174  A    
O22   Zn5   S    
C38   C192  S    
C69   H17   S    
C90   C110  A    
C13   C101  A    
C35   C111  A    
C182  H22   S    
C106  C110  A    
C48   C56   A    
C31   H2    S    
C158  C169  A    
C9    C75   S    
O34   Zn13  S    
C5    C10   S    
C117  N39   A    
O5    Zn1   S    
C4    C21   D    
C34   H5    S    
C48   C61   A    
C128  H35   S    
C6    C23   D    
C31   C186  S    
C1    C169  S    
C41   C48   A    
C37   H7    S    
O14   Zn16  S    
C1    O45   A    
C42   C49   A    
C126  H33   S    
C173  N1    S    
C39   C50   A    
O48   Zn13  S    
C11   C29   D    
C99   C158  S    
C123  C143  A    
C37   C191  S    
C124  C144  A    
C68   C108  A    
C29   H47   S    
C92   N22   T    
C2    C62   A    
C113  O60   S    
C68   C114  A    
C24   H26   S    
