data_mof_unit_66773.cif
_audit_creation_date              2013-03-05T15:40:49-0500
_audit_creation_method            fapswitch 2.2
_symmetry_space_group_name_H-M    P1
_symmetry_Int_Tables_number       1
_space_group_crystal_system       triclinic
_cell_length_a                    8.655015
_cell_length_b                    13.133515
_cell_length_c                    15.300243
_cell_angle_alpha                 96.566982
_cell_angle_beta                  100.570906
_cell_angle_gamma                 97.808991
_cell_volume                      1676.40614897

loop_
_atom_site_label
_atom_site_type_symbol
_atom_site_description
_atom_site_fract_x
_atom_site_fract_y
_atom_site_fract_z
_atom_type_partial_charge
P1    P     P_3+3 0.998660 0.747790 0.570900 0.535539
O1    O     O_2   0.168170 0.764170 0.543850 -0.338969
O2    O     O_3   0.898670 0.629780 0.545890 -0.358653
O3    O     O_3   0.365980 0.695510 0.380810 -0.304766
O4    O     O_2   0.339163 0.875255 0.468512 -0.399690
O5    O     O_3   0.009183 0.798957 0.685382 -0.606618
O6    O     O_3   0.337405 0.889717 0.300813 -0.499726
C1    C     C_3   0.453014 0.943943 0.174131 -0.749632
P2    P     P_3+3 0.306970 0.411860 0.294270 0.524422
P3    P     P_3+3 0.875031 0.604619 0.216422 0.572701
O7    O     O_2   0.136040 0.444100 0.280280 -0.342826
O8    O     O_3   0.934510 0.640480 0.335500 -0.310698
O9    O     O_2   0.987700 0.536309 0.183214 -0.308303
O10   O     O_3   0.263042 0.277780 0.266433 -0.557029
O11   O     O_3   0.899092 0.708979 0.154191 -0.555246
C2    C     C_3   0.870433 0.807561 0.190569 0.330680
C3    C     C_3   0.820266 0.867606 0.112011 -0.968859
H1    H     H_    0.809265 0.949107 0.135760 0.249843
H2    H     H_    0.908515 0.869727 0.068241 0.324940
C4    C     C_3   0.687583 0.282615 0.267282 0.296895
H3    H     H_    0.600034 0.314747 0.302629 0.118735
H4    H     H_    0.784142 0.343924 0.260166 0.132977
C5    C     C_3   0.597783 0.226877 0.175023 -0.704949
H5    H     H_    0.468914 0.221505 0.173488 0.230952
H6    H     H_    0.628082 0.147808 0.162305 0.198447
Ba1   Ba    Ba6+2 0.153570 0.551840 0.456200 1.652353
C6    C     C_3   0.124694 0.787467 0.760871 0.187820
C7    C     C_3   0.085976 0.854823 0.842657 -0.683583
H7    H     H_    0.107992 0.937547 0.834223 0.178815
H8    H     H_    0.165505 0.848287 0.907012 0.261788
C8    C     C_3   0.145663 0.235016 0.309089 0.443824
C9    C     C_3   0.016910 0.162766 0.238397 -0.759120
H9    H     H_    0.937702 0.210131 0.202056 0.245064
H10   H     H_    0.065415 0.120891 0.185757 0.293622
P4    P     P_3+3 0.811620 0.252200 0.429030 0.482106
O12   O     O_2   0.642110 0.235770 0.456130 -0.308090
O13   O     O_3   0.911620 0.370210 0.454030 -0.360107
O14   O     O_3   0.444310 0.304480 0.619110 -0.342107
O15   O     O_3   0.756786 0.209831 0.313831 -0.590363
P5    P     P_3+3 0.951396 0.375325 0.779236 0.535002
O16   O     O_3   0.400800 0.556680 0.607590 -0.432778
O17   O     O_3   0.875770 0.359510 0.664420 -0.370681
O18   O     O_2   0.863988 0.455524 0.824294 -0.255849
O19   O     O_3   0.885346 0.259659 0.815055 -0.519830
Ba2   Ba    Ba6+2 0.656590 0.448150 0.543720 1.664154
P6    P     P_3+3 0.423655 0.833783 0.394957 0.486841
C10   C     C_3   0.379988 0.854288 0.218404 0.305373
H11   H     H_    0.465784 0.806270 0.229388 0.094447
O20   O     O_3   0.409490 0.443300 0.392340 -0.375440
C11   C     C_3   0.585112 0.757979 0.656122 0.498169
C12   C     C_3   0.644267 0.874447 0.670520 -0.932908
H12   H     H_    0.646381 0.908162 0.739890 0.279491
H13   H     H_    0.766399 0.890070 0.658644 0.218311
H14   H     H_    0.567340 0.914448 0.624070 0.278863
P7    P     P_3+3 0.505674 0.591547 0.719615 0.508022
O21   O     O_2   0.674250 0.555830 0.719690 -0.269614
O22   O     O_3   0.545836 0.726527 0.735519 -0.534394
H15   H     H_    0.703533 0.830270 0.071948 0.276690
C13   C     C_3   0.909107 0.178546 0.753495 0.391809
H16   H     H_    0.814317 0.166481 0.691694 0.142308
H17   H     H_    0.027960 0.193027 0.735013 0.029914
C14   C     C_3   0.899809 0.080775 0.796283 -0.937270
H18   H     H_    0.930538 0.018280 0.751064 0.214809
H19   H     H_    0.983632 0.093374 0.862182 0.285473
H20   H     H_    0.778042 0.058614 0.807287 0.310508
P8    P     P_3+3 0.390966 0.168839 0.613454 0.498714
C15   C     C_3   0.420869 0.191203 0.786603 0.368680
H21   H     H_    0.358911 0.256147 0.765577 0.020974
O23   O     O_2   0.491913 0.119754 0.551645 -0.373635
O24   O     O_3   0.470988 0.133455 0.716812 -0.525780
C16   C     C_3   0.307273 0.118876 0.825397 -1.006930
H22   H     H_    0.368012 0.058735 0.856401 0.302439
C17   C     C_R   0.071602 0.184861 0.539024 -0.480456
C18   C     C_R   0.734553 0.825056 0.479668 -0.465529
C19   C     C_R   0.694611 0.996521 0.445006 -0.087400
C20   C     C_R   0.635171 0.890703 0.443591 0.257387
C21   C     C_R   0.896176 0.854519 0.513734 0.293100
C22   C     C_R   0.957099 0.966489 0.520667 -0.069781
C23   C     C_R   0.854967 0.038319 0.484139 -0.005377
C24   C     C_R   0.916050 0.149419 0.490067 0.195686
C25   C     C_R   0.173693 0.116706 0.570709 0.242793
C26   C     C_R   0.115879 0.009433 0.561682 -0.257384
H23   H     H_    0.614536 0.044771 0.414756 0.184637
H24   H     H_    0.119480 0.266526 0.545633 0.160118
H25   H     H_    0.680190 0.751315 0.488928 0.132037
C27   C     C_R   0.256624 0.460356 0.760233 -0.367175
C28   C     C_R   0.169716 0.410053 0.814673 0.151480
C29   C     C_R   0.242857 0.403221 0.902541 -0.226018
C30   C     C_R   0.379724 0.474270 0.948080 0.071842
C31   C     C_R   0.455726 0.538583 0.892670 -0.135451
C32   C     C_R   0.401733 0.523668 0.797914 0.187476
C33   C     C_R   0.604911 0.514985 0.085287 -0.223514
C34   C     C_R   0.670678 0.531728 0.176790 0.276040
C35   C     C_R   0.413919 0.467289 0.209360 0.177949
C36   C     C_R   0.344900 0.454006 0.115187 -0.179935
C37   C     C_R   0.440480 0.482701 0.050788 0.057516
C38   C     C_R   0.576472 0.507909 0.238425 -0.467107
H26   H     H_    0.687404 0.523730 0.041247 0.182283
H27   H     H_    0.204406 0.457583 0.689910 0.173237
C39   C     C_2   0.250578 0.781559 0.152299 0.993502
O25   O     O_2   0.169426 0.812917 0.090037 -0.627223
O26   O     O_R   0.238800 0.675276 0.155249 -0.758409
H28   H     H_    0.166085 0.634246 0.099344 0.376104
C40   C     C_2   0.629981 0.280659 0.098582 1.018922
O27   O     O_2   0.520064 0.280199 0.035893 -0.638219
O28   O     O_R   0.783916 0.327272 0.096806 -0.815946
H29   H     H_    0.788841 0.361473 0.041157 0.360764
C41   C     C_2   0.291814 0.834855 0.760139 0.941539
O29   O     O_2   0.322490 0.878538 0.698115 -0.627168
O30   O     O_R   0.407234 0.843083 0.838854 -0.744236
H30   H     H_    0.501341 0.898897 0.841867 0.336263
C42   C     C_2   0.112732 0.677401 0.779942 0.941157
O31   O     O_2   0.034967 0.606434 0.724032 -0.572806
O32   O     O_R   0.175121 0.659499 0.866800 -0.785918
H31   H     H_    0.123854 0.591812 0.881831 0.348002
C43   C     C_2   0.918834 0.831562 0.855536 1.167574
O33   O     O_2   0.835943 0.749700 0.820348 -0.559616
O34   O     O_R   0.859807 0.903507 0.909562 -0.810209
H32   H     H_    0.747083 0.877926 0.915529 0.336193
H33   H     H_    0.085997 0.291847 0.344391 0.040151
C44   C     C_2   0.231670 0.182803 0.378632 0.961573
O35   O     O_2   0.336625 0.236170 0.435866 -0.570481
O36   O     O_R   0.201613 0.076091 0.376751 -0.763140
H34   H     H_    0.286166 0.050013 0.419053 0.360708
H35   H     H_    0.487900 0.912129 0.111451 0.188166
H36   H     H_    0.945928 0.105651 0.269500 0.252079
H37   H     H_    0.560492 0.989290 0.219408 0.231054
H38   H     H_    0.680649 0.717478 0.636051 0.096963
H39   H     H_    0.478685 0.741093 0.600525 0.113209
C45   C     C_2   0.343720 0.019299 0.153207 1.243791
O37   O     O_2   0.321319 0.078515 0.215039 -0.594275
O38   O     O_R   0.275740 0.026103 0.064252 -0.767199
H40   H     H_    0.207108 0.082689 0.059362 0.333479
C46   C     C_2   0.564963 0.235256 0.857323 1.165576
O39   O     O_2   0.608359 0.329116 0.873702 -0.634644
O40   O     O_R   0.650185 0.168003 0.903712 -0.781823
H41   H     H_    0.751977 0.204680 0.945367 0.342577
H42   H     H_    0.258423 0.163729 0.876993 0.242310
C47   C     C_2   0.015035 0.864882 0.252324 1.053948
O41   O     O_2   0.079210 0.946395 0.235520 -0.597114
O42   O     O_R   0.055778 0.834958 0.336883 -0.728715
H43   H     H_    0.095266 0.897094 0.384443 0.362103
H44   H     H_    0.209375 0.078801 0.770133 0.250721
H45   H     H_    0.197842 0.959586 0.584188 0.242776
H46   H     H_    0.186155 0.343317 0.933350 0.155593
C48   C     C_2   0.179013 0.401623 0.085183 1.096030
O43   O     O_2   0.078701 0.446368 0.045649 -0.626372
O44   O     O_R   0.141928 0.296535 0.092625 -0.789450
H47   H     H_    0.030616 0.264409 0.059536 0.331012
C49   C     C_2   0.570424 0.631917 0.932473 1.049176
O45   O     O_2   0.522910 0.707008 0.966688 -0.613986
O46   O     O_R   0.732049 0.633030 0.933042 -0.727727
H48   H     H_    0.800966 0.696824 0.971244 0.347701
C50   C     C_2   0.650287 0.528109 0.334469 1.101574
O47   O     O_2   0.759724 0.485237 0.364558 -0.609199
O48   O     O_R   0.594952 0.597239 0.391223 -0.776792
H49   H     H_    0.635998 0.593458 0.456110 0.332676
C51   C     C_2   0.749493 0.810526 0.247070 0.844765
O49   O     O_2   0.738091 0.894231 0.286640 -0.723405
O50   O     O_R   0.660987 0.721578 0.261659 -0.819836
H50   H     H_    0.615208 0.733625 0.316193 0.337650

loop_
_geom_bond_atom_site_label_1
_geom_bond_atom_site_label_2
_geom_bond_distance
_ccdc_geom_bond_type
C28   C29   1.395331 A    
P1    C21   1.962213 S    
C45   O38   1.398170 S    
C36   C37   1.447931 A    
O10   C8    1.394830 S    
C31   C49   1.461406 S    
P6    C20   1.861450 S    
O32   H31   1.008490 S    
C33   H26   1.071880 S    
O36   H34   1.008361 S    
O3    P6    1.793892 S    
C21   C22   1.478141 A    
C43   O33   1.215223 D    
C18   C20   1.387114 A    
P5    C28   1.845477 S    
O48   H49   1.000481 S    
P4    O13   1.635835 S    
C27   C32   1.393564 A    
P8    O23   1.545982 D    
O28   H29   1.011992 S    
O19   C13   1.401925 S    
O11   C2    1.421519 S    
P4    C24   1.954841 S    
C33   C37   1.411730 A    
C41   O29   1.214822 D    
C3    H1    1.112782 S    
P1    O1    1.589770 D    
O7    Ba1   2.861947 S    
C9    H36   1.109170 S    
O30   H30   1.009516 S    
O16   P7    1.762991 S    
O14   Ba2   2.932551 S    
C14   H19   1.109576 S    
C7    C43   1.491008 S    
Ba1   Ba2   4.805007 S    
O34   H32   1.011776 S    
P5    O18   1.548814 D    
C5    C40   1.483067 S    
Ba2   O21   2.862109 S    
C43   O34   1.394474 S    
O38   H40   1.013473 S    
C18   C21   1.384715 A    
C10   H11   1.040711 S    
P7    C32   1.860371 S    
C29   H46   1.070891 S    
C17   H24   1.082280 S    
C50   O48   1.377732 S    
C3    H15   1.098342 S    
P5    O17   1.736468 S    
C13   H16   1.112676 S    
C40   O28   1.394992 S    
C51   O50   1.371323 S    
C35   C36   1.435888 A    
C36   C48   1.470703 S    
C17   C25   1.404991 A    
C42   O31   1.220413 D    
P2    Ba1   3.479837 S    
C25   C26   1.411718 A    
C16   H42   1.110286 S    
C48   O44   1.396368 S    
O2    Ba1   3.033363 S    
C13   H17   1.113632 S    
C2    C51   1.476442 S    
C12   H12   1.098223 S    
O6    P6    1.779953 S    
O14   P8    1.766570 S    
C15   C46   1.492144 S    
P2    O20   1.574653 S    
O44   H47   1.012026 S    
C8    C44   1.473606 S    
C26   H45   1.067022 S    
Ba1   O20   3.037506 S    
C4    O15   1.390875 S    
C27   C28   1.384476 A    
C2    C3    1.540610 S    
C46   O40   1.398689 S    
P3    C34   1.850946 S    
O2    Ba2   2.946102 S    
C10   C39   1.504166 S    
C15   H21   1.114596 S    
O8    Ba1   2.857842 S    
C12   H13   1.101156 S    
O17   Ba2   2.858466 S    
C9    H10   1.101299 S    
P4    O15   1.743137 S    
C19   C20   1.411129 A    
C14   H18   1.104550 S    
C11   H39   1.111356 S    
C22   C26   1.411549 A    
C1    H37   1.103883 S    
O5    C6    1.418973 S    
C4    C5    1.529389 S    
Ba2   O20   2.838000 S    
C5    H5    1.103718 S    
C4    H3    1.108958 S    
P7    O21   1.591951 D    
C39   O26   1.392232 S    
C11   C12   1.522887 S    
C44   O35   1.215731 D    
P2    O10   1.736075 S    
O12   Ba2   2.929207 S    
O1    Ba1   2.928755 S    
C38   C50   1.469107 S    
O46   H48   1.011767 S    
C27   H27   1.082328 S    
P2    O7    1.577500 D    
C50   O47   1.212575 D    
P3    O8    1.788839 S    
C42   O32   1.398437 S    
C4    H4    1.108708 S    
C6    C42   1.500790 S    
P7    O22   1.739417 S    
C1    C45   1.480723 S    
P1    Ba1   3.502611 S    
C49   O46   1.395370 S    
C2    C47   1.474203 S    
C11   H38   1.111891 S    
O13   Ba2   3.034324 S    
P4    Ba2   3.503131 S    
C34   C38   1.390043 A    
C6    C7    1.562674 S    
C16   H44   1.106378 S    
C48   O43   1.221585 D    
C7    H7    1.103715 S    
C13   C14   1.505808 S    
C14   H20   1.103047 S    
C22   C23   1.466165 A    
C11   O22   1.410678 S    
C8    C9    1.532241 S    
O40   H41   1.011363 S    
P3    O9    1.526181 D    
C40   O27   1.219585 D    
O3    Ba1   2.933237 S    
C47   O41   1.214267 D    
Ba1   O13   2.945428 S    
C46   O39   1.221659 D    
O4    P6    1.538819 D    
P8    O24   1.746469 S    
C35   C38   1.404974 A    
P3    O11   1.766977 S    
C15   O24   1.406327 S    
C9    H9    1.105107 S    
C12   H14   1.109610 S    
C30   C37   1.549013 S    
C7    H8    1.112390 S    
C45   O37   1.215484 D    
C1    C10   1.543401 S    
C16   H22   1.110090 S    
O42   H43   1.004703 S    
O50   H50   0.993148 S    
P8    C25   1.878632 S    
C47   O42   1.392561 S    
C19   H23   1.079281 S    
C31   C32   1.421345 A    
C51   O49   1.218196 D    
C6    C41   1.497500 S    
C33   C34   1.391265 A    
C3    H2    1.103996 S    
C17   C24   1.403654 A    
C41   O30   1.399837 S    
C15   C16   1.520055 S    
C5    H6    1.109740 S    
C18   H25   1.054246 S    
O26   H28   1.011430 S    
C8    H33   1.109224 S    
C44   O36   1.386242 S    
C23   C24   1.469464 A    
C1    H35   1.111016 S    
P5    O19   1.733268 S    
C29   C30   1.416867 A    
P1    O5    1.784261 S    
O16   Ba2   3.036539 S    
C49   O45   1.219382 D    
C39   O25   1.221993 D    
P4    O12   1.590136 D    
P1    O2    1.635810 S    
C30   C31   1.443023 A    
C19   C23   1.413843 A    
P2    C35   1.883870 S    
Ba1   O16   2.838804 S    
O6    C10   1.423040 S    
