data_mof_unit_10926.cif
_audit_creation_date              2012-12-11T15:29:37-0500
_audit_creation_method            fapswitch 2.2
_symmetry_space_group_name_H-M    P1
_symmetry_Int_Tables_number       1
_space_group_crystal_system       triclinic
_cell_length_a                    21.427402
_cell_length_b                    7.244187
_cell_length_c                    14.931473
_cell_angle_alpha                 88.718403
_cell_angle_beta                  73.337102
_cell_angle_gamma                 90.402559
_cell_volume                      2219.6255525

loop_
_atom_site_label
_atom_site_type_symbol
_atom_type_description
_atom_site_fract_x
_atom_site_fract_y
_atom_site_fract_z
_atom_type_partial_charge
O1    O     O_R   0.464160 0.506670 0.130070 -0.534960
O2    O     O_R   0.535840 0.006670 0.869930 -0.534465
O3    O     O_R   0.589710 0.179080 0.006710 -0.546065
O4    O     O_R   0.410290 0.679080 0.993290 -0.545453
C1    C     C_R   0.616327 0.344429 0.001626 0.666851
C2    C     C_R   0.383970 0.844316 0.996695 0.670154
O5    O     O_R   0.467940 0.177220 0.138010 -0.539805
O6    O     O_R   0.532060 0.677220 0.861990 -0.541000
O7    O     O_R   0.413200 0.002810 0.002170 -0.540546
O8    O     O_R   0.586800 0.502810 0.997830 -0.540832
C3    C     C_R   0.456807 0.343542 0.174440 0.685199
C4    C     C_R   0.545249 0.848750 0.825774 0.684601
O9    O     O_3   0.482180 0.337850 0.955280 -0.378517
O10   O     O_3   0.517820 0.837850 0.044720 -0.377179
V1    V     V_3+5 0.503310 0.064600 0.008300 1.395454
V2    V     V_3+5 0.496690 0.564600 0.991700 1.389426
C5    C     C_R   0.577961 0.877626 0.725602 -0.042944
C6    C     C_R   0.430505 0.345217 0.276152 -0.029098
C7    C     C_R   0.931750 0.849905 0.278450 -0.107537
C8    C     C_R   0.072372 0.381286 0.723471 -0.111965
C9    C     C_R   0.591640 0.106447 0.600519 -0.169064
C10   C     C_R   0.441279 0.275438 0.430008 -0.162473
C11   C     C_R   0.551833 0.010602 0.677611 -0.157474
C12   C     C_R   0.468279 0.285928 0.333278 -0.173607
C13   C     C_R   0.643466 0.827417 0.689580 -0.223114
C14   C     C_R   0.365688 0.394207 0.315670 -0.218216
C15   C     C_R   0.684870 0.920747 0.609502 0.075482
C16   C     C_R   0.336850 0.382269 0.413489 0.079516
C17   C     C_R   0.658146 0.068055 0.568544 0.140843
C18   C     C_R   0.375705 0.320014 0.470379 0.148175
C19   C     C_R   0.751695 0.874785 0.568465 0.063855
C20   C     C_R   0.270031 0.422718 0.455955 0.066072
C21   C     C_R   0.788279 0.971025 0.485241 0.044568
C22   C     C_R   0.241011 0.378256 0.552665 0.056059
C23   C     C_R   0.763455 0.137316 0.460029 -0.184013
C24   C     C_R   0.282720 0.331903 0.607547 -0.192960
C25   C     C_R   0.698514 0.180846 0.498365 -0.237536
C26   C     C_R   0.348726 0.302459 0.566972 -0.231914
C27   C     C_R   0.782954 0.734080 0.605405 -0.196320
C28   C     C_R   0.232027 0.511909 0.405544 -0.196271
C29   C     C_R   0.845699 0.680562 0.557885 -0.186358
C30   C     C_R   0.166734 0.546547 0.446663 -0.184512
C31   C     C_R   0.876761 0.752092 0.468462 0.105480
C32   C     C_R   0.136216 0.487335 0.538188 0.103148
C33   C     C_R   0.847285 0.893863 0.428350 -0.039744
C34   C     C_R   0.171932 0.393791 0.591884 -0.043754
C35   C     C_R   0.935128 0.673864 0.416896 -0.178614
C36   C     C_R   0.070422 0.527511 0.577338 -0.182564
C37   C     C_R   0.962090 0.722290 0.323190 -0.258166
C38   C     C_R   0.039881 0.482601 0.670324 -0.256032
C39   C     C_R   0.873927 0.935842 0.330040 0.388386
C40   C     C_R   0.136358 0.321620 0.682443 0.353665
H1    H     H_    0.679570 0.302420 0.472077 0.129598
H2    H     H_    0.378693 0.263086 0.611538 0.120923
H3    H     H_    0.005280 0.652434 0.283843 0.144841
H4    H     H_    0.991351 0.532732 0.702067 0.134635
H5    H     H_    0.868239 0.572116 0.588153 0.109279
H6    H     H_    0.139787 0.621069 0.406462 0.109023
H7    H     H_    0.570919 0.216774 0.568428 0.109150
H8    H     H_    0.471270 0.228545 0.473193 0.110234
H9    H     H_    0.501746 0.053258 0.705602 0.104117
H10   H     H_    0.518462 0.246537 0.302846 0.101813
H11   H     H_    0.661753 0.726127 0.729358 0.102397
H12   H     H_    0.338052 0.430080 0.267839 0.094388
H13   H     H_    0.793186 0.231578 0.407709 0.180396
H14   H     H_    0.266052 0.324609 0.682811 0.175409
H15   H     H_    0.760232 0.662671 0.670874 0.110588
H16   H     H_    0.252611 0.566397 0.335487 0.108444
H17   H     H_    0.958264 0.567289 0.447786 0.122608
H18   H     H_    0.043624 0.604027 0.537572 0.125361
C41   C     C_3   0.227824 0.745364 0.917879 -0.305379
C42   C     C_3   0.781304 0.169387 0.031984 -0.307176
H19   H     H_    0.208582 0.601025 0.925520 0.181118
H20   H     H_    0.808301 0.054864 0.989980 0.177969
H21   H     H_    0.222878 0.802205 0.850505 0.122027
H22   H     H_    0.783378 0.149269 0.104632 0.149895
C43   C     C_3   0.301056 0.743664 0.914397 -0.338026
C44   C     C_3   0.709403 0.161413 0.031540 -0.319255
H23   H     H_    0.330872 0.806325 0.846812 0.128337
H24   H     H_    0.678081 0.122509 0.102924 0.129953
H25   H     H_    0.316760 0.598070 0.917156 0.151129
H26   H     H_    0.703547 0.050955 0.983787 0.154996
H27   H     H_    0.281976 0.617712 0.094714 0.154859
H28   H     H_    0.721770 0.289759 0.850957 0.145411
C45   C     C_3   0.194789 0.778163 0.093747 0.348703
C46   C     C_3   0.805930 0.394338 0.894600 0.335234
C47   C     C_3   0.219285 0.059795 0.986173 -0.400874
C48   C     C_3   0.773431 0.506995 0.059815 -0.426035
C49   C     C_3   0.187665 0.862824 0.000138 0.065448
C50   C     C_3   0.813192 0.359350 0.994616 0.073188
H29   H     H_    0.191821 0.152440 0.041589 0.168405
H30   H     H_    0.793294 0.646601 0.033761 0.162568
H31   H     H_    0.217298 0.121204 0.918017 0.182087
H32   H     H_    0.778190 0.482755 0.131282 0.163895
C51   C     C_3   0.312851 0.851884 0.996923 0.076017
C52   C     C_3   0.687734 0.350374 0.999316 0.086921
C53   C     C_3   0.268410 0.764704 0.089237 -0.369041
C54   C     C_3   0.731901 0.394034 0.898756 -0.364661
C55   C     C_3   0.290838 0.054035 0.988436 -0.334767
C56   C     C_3   0.700432 0.499767 0.064517 -0.350185
H33   H     H_    0.322556 0.122209 0.923620 0.149286
H34   H     H_    0.670596 0.469195 0.137720 0.138078
H35   H     H_    0.295873 0.134403 0.048751 0.153133
H36   H     H_    0.685740 0.637711 0.043867 0.155401
H37   H     H_    0.170811 0.876158 0.149601 0.006440
H38   H     H_    0.827418 0.533945 0.870136 0.025133
H39   H     H_    0.276841 0.835772 0.150146 0.088998
H40   H     H_    0.719331 0.531157 0.874125 0.096101
O11   O     O_R   0.913210 0.208550 0.002110 -0.530635
O12   O     O_R   0.086790 0.708550 0.997890 -0.515670
O13   O     O_R   0.032060 0.539960 0.861980 -0.555771
O14   O     O_R   0.967940 0.039960 0.138020 -0.526476
C57   C     C_R   0.044331 0.375158 0.825344 0.757872
C58   C     C_R   0.956330 0.869990 0.175195 0.744863
O15   O     O_R   0.910290 0.538020 0.993280 -0.553589
O16   O     O_R   0.089710 0.038020 0.006720 -0.547845
O17   O     O_R   0.964160 0.712340 0.130090 -0.541645
O18   O     O_R   0.035840 0.212340 0.869910 -0.521215
C59   C     C_R   0.884337 0.368922 0.995823 0.681177
C60   C     C_R   0.116142 0.870383 0.001504 0.656945
O19   O     O_3   0.017820 0.379210 0.044690 -0.371961
O20   O     O_3   0.982180 0.879210 0.955310 -0.387054
V3    V     V_3+5 0.996690 0.652500 0.991710 1.410305
V4    V     V_3+5 0.003310 0.152500 0.008290 1.460460
O21   O     O_3   0.164304 0.600751 0.110977 -0.547519
C61   C     C_3   0.148185 0.551953 0.207175 0.081290
H41   H     H_    0.117756 0.659045 0.250743 0.093121
H42   H     H_    0.193036 0.532619 0.229035 0.115647
C62   C     C_3   0.109752 0.370818 0.225519 -0.688685
H43   H     H_    0.140924 0.256456 0.190869 0.197054
H44   H     H_    0.092960 0.339637 0.301919 0.169884
H45   H     H_    0.066604 0.380574 0.198695 0.236226
O22   O     O_3   0.839283 0.254112 0.835110 -0.557479
C63   C     C_3   0.854898 0.312527 0.740283 0.071320
H46   H     H_    0.885799 0.439471 0.727597 0.097291
H47   H     H_    0.810114 0.339715 0.718923 0.122963
C64   C     C_3   0.892577 0.161479 0.679271 -0.682124
H48   H     H_    0.862487 0.033001 0.689474 0.226600
H49   H     H_    0.905115 0.206148 0.604503 0.175939
H50   H     H_    0.938266 0.132975 0.697869 0.218042
O23   O     O_3   0.842083 0.046985 0.280885 -0.569415
C65   C     C_3   0.784952 0.957021 0.273140 0.060961
H51   H     H_    0.751719 0.064625 0.260256 0.138669
H52   H     H_    0.756879 0.879570 0.337301 0.132637
C66   C     C_3   0.800303 0.824727 0.193003 -0.799236
H53   H     H_    0.835609 0.886863 0.129941 0.233102
H54   H     H_    0.821294 0.696605 0.213733 0.213014
H55   H     H_    0.754017 0.791573 0.177296 0.188601
O24   O     O_3   0.163195 0.200978 0.734071 -0.577140
C67   C     C_3   0.173012 0.026122 0.691778 0.039783
H56   H     H_    0.217498 0.966175 0.703986 0.135881
H57   H     H_    0.181489 0.030749 0.614476 0.127291
C68   C     C_3   0.115895 0.896496 0.736546 -0.648586
H58   H     H_    0.107513 0.888305 0.813308 0.226530
H59   H     H_    0.071143 0.946119 0.720924 0.208919
H60   H     H_    0.127134 0.756605 0.708210 0.177259

loop_
_geom_bond_atom_site_label_1
_geom_bond_atom_site_label_2
_ccdc_geom_bond_type
C55   H35   S    
C3    C6    S    
C61   H41   S    
C47   H29   S    
C15   C17   A    
C21   C33   A    
C45   O21   S    
O1    C3    A    
C42   H22   S    
O2    C4    A    
C30   H6    S    
C63   C64   S    
O14   C58   A    
C66   H53   S    
C27   C29   A    
O5    C3    A    
C64   H49   S    
C5    C11   A    
C6    C12   A    
C23   C25   A    
O14   V4    S    
C10   H8    S    
C8    C57   S    
C44   H24   S    
C33   C39   A    
C51   C55   S    
C34   C40   A    
C56   H36   S    
C54   H40   S    
C18   C26   A    
C13   H11   S    
C14   H12   S    
C35   H17   S    
O19   V4    S    
C8    C38   A    
C39   O23   S    
C48   H30   S    
C44   C52   S    
C40   O24   S    
C67   C68   S    
C52   C54   S    
C4    C5    S    
C42   C44   S    
C19   C21   A    
C22   C34   A    
C68   H59   S    
C10   C18   A    
C62   H45   S    
C25   H1    S    
O5    V1    S    
O6    V2    S    
C12   H10   S    
C29   C31   A    
C65   C66   S    
C46   H38   S    
C30   C32   A    
C2    O7    A    
C45   H37   S    
C66   H54   S    
C32   C34   A    
C47   C55   S    
C43   H23   S    
C64   H50   S    
C48   H32   S    
C7    C37   A    
O15   V3    S    
C15   C19   A    
C16   C20   A    
C42   H20   S    
C46   C50   S    
O12   C60   A    
C41   H19   S    
C45   C49   S    
C63   H47   S    
C61   C62   S    
C37   H3    S    
C9    C17   A    
C43   C51   S    
C38   H4    S    
O16   C60   A    
C20   C22   A    
O4    V2    S    
C67   H57   S    
O12   V3    S    
C42   C50   S    
C44   H26   S    
C46   O22   S    
C26   H2    S    
C49   C60   S    
C43   H25   S    
O6    C4    A    
C6    C14   A    
C56   H34   S    
O13   C57   A    
O1    V2    S    
O18   V4    S    
C68   H60   S    
O2    V1    S    
C31   C33   A    
C48   C56   S    
C41   C49   S    
O4    C2    A    
C55   H33   S    
C48   C50   S    
C24   H14   S    
O15   C59   A    
C9    C11   A    
H27   C53   S    
O22   C63   S    
C10   C12   A    
C13   C15   A    
C41   C43   S    
C1    C52   S    
O3    V1    S    
C66   H55   S    
O11   C59   A    
C62   H43   S    
C11   H9    S    
O13   V3    S    
C61   H42   S    
O16   V4    S    
O10   V1    S    
C27   H15   S    
C36   H18   S    
C28   C30   A    
O3    C1    A    
C51   C53   S    
O11   V4    S    
C9    H7    S    
C63   H46   S    
C35   C37   A    
C64   H48   S    
C52   C56   S    
C14   C16   A    
C7    C58   S    
C5    C13   A    
C50   C59   S    
C24   C26   A    
O17   V3    S    
H28   C54   S    
C16   C18   A    
C8    C40   A    
O8    V2    S    
O24   C67   S    
C41   H21   S    
O21   C61   S    
C47   H31   S    
C36   C38   A    
C21   C23   A    
C19   C27   A    
C22   C24   A    
C20   C28   A    
O7    V1    S    
C46   C54   S    
C58   O17   A    
C45   C53   S    
C29   H5    S    
C57   O18   A    
C53   H39   S    
C7    C39   A    
C1    O8    A    
C2    C51   S    
C28   H16   S    
O9    V2    S    
C17   C25   A    
O20   V3    S    
C47   C49   S    
C23   H13   S    
C65   H51   S    
C68   H58   S    
O23   C65   S    
C31   C35   A    
C65   H52   S    
C32   C36   A    
C67   H56   S    
C62   H44   S    
