data_mof_unit_63194.cif
_audit_creation_date              2012-12-10T18:55:27-0500
_audit_creation_method            fapswitch 2.2
_symmetry_space_group_name_H-M    P1
_symmetry_Int_Tables_number       1
_space_group_crystal_system       triclinic
_cell_length_a                    19.478335
_cell_length_b                    18.201519
_cell_length_c                    17.637087
_cell_angle_alpha                 89.979385
_cell_angle_beta                  90.824202
_cell_angle_gamma                 90.221859
_cell_volume                      6252.2755468

loop_
_atom_site_label
_atom_site_type_symbol
_atom_type_description
_atom_site_fract_x
_atom_site_fract_y
_atom_site_fract_z
_atom_type_partial_charge
C1    C     C_R   0.367385 0.499827 0.500542 0.875719
C2    C     C_R   0.632615 0.500173 0.499458 0.875711
C3    C     C_R   0.853128 0.500586 0.497604 -0.071404
C4    C     C_R   0.146872 0.499414 0.502396 -0.071405
C5    C     C_R   0.708698 0.500667 0.498030 -0.326543
C6    C     C_R   0.291302 0.499333 0.501970 -0.326543
C7    C     C_R   0.964622 0.543908 0.447385 -0.195243
C8    C     C_R   0.035378 0.456093 0.552615 -0.195244
C9    C     C_R   0.036098 0.543880 0.448838 -0.193473
C10   C     C_R   0.963903 0.456120 0.551162 -0.193474
C11   C     C_R   0.071499 0.499962 0.501439 0.194751
C12   C     C_R   0.928501 0.500038 0.498561 0.194750
C13   C     C_R   0.463500 0.720985 0.445331 0.614431
C14   C     C_R   0.536498 0.279010 0.554667 0.614360
C15   C     C_R   0.536531 0.721184 0.554681 0.620766
C16   C     C_R   0.463468 0.278820 0.445317 0.620831
C17   C     C_R   0.461286 0.798744 0.446630 -0.396538
C18   C     C_R   0.538714 0.201252 0.553363 -0.396472
C19   C     C_R   0.538632 0.798999 0.553509 -0.407216
C20   C     C_R   0.461367 0.201003 0.446484 -0.407282
C21   C     C_R   0.499944 0.838759 0.500086 0.001445
C22   C     C_R   0.500056 0.161240 0.499905 0.001451
C23   C     C_R   0.502494 0.961418 0.568441 -0.189109
C24   C     C_R   0.497503 0.038582 0.431548 -0.189110
C25   C     C_R   0.497482 0.961378 0.431596 -0.192392
C26   C     C_R   0.502515 0.038622 0.568393 -0.192392
C27   C     C_R   0.500024 0.078546 0.499945 0.177501
C28   C     C_R   0.499974 0.921454 0.500044 0.177502
C29   C     C_R   0.499455 0.500005 0.355914 0.818891
C30   C     C_R   0.500545 0.499995 0.644086 0.818886
C31   C     C_R   0.438298 0.499873 0.844674 -0.152496
C32   C     C_R   0.437167 0.499899 0.153216 -0.166179
C33   C     C_R   0.561701 0.500128 0.155326 -0.152488
C34   C     C_R   0.562833 0.500099 0.846784 -0.166173
C35   C     C_R   0.437668 0.499901 0.765348 0.108176
C36   C     C_R   0.436361 0.499881 0.232588 0.094016
C37   C     C_R   0.562332 0.500100 0.234651 0.108199
C38   C     C_R   0.563639 0.500117 0.767412 0.094004
C39   C     C_R   0.500653 0.499987 0.726692 -0.033656
C40   C     C_R   0.499347 0.500013 0.273307 -0.033606
C41   C     C_R   0.500499 0.499969 0.884954 0.052448
C42   C     C_R   0.499501 0.500031 0.115046 0.052449
C43   C     C_1   0.500212 0.499989 0.965997 -0.047234
C44   C     C_1   0.499787 0.500010 0.034003 -0.047232
C45   C     C_R   0.744470 0.440271 0.467323 0.408880
C46   C     C_R   0.255530 0.559729 0.532678 0.408885
C47   C     C_R   0.254058 0.438312 0.473014 0.413381
C48   C     C_R   0.745942 0.561689 0.526986 0.413377
C49   C     C_R   0.816576 0.442892 0.461994 0.063455
C50   C     C_R   0.183424 0.557108 0.538007 0.063455
C51   C     C_R   0.181899 0.441110 0.467690 0.054453
C52   C     C_R   0.818101 0.558891 0.532309 0.054452
Cu1   Cu    Cu3+1 0.500000 0.573360 0.500000 1.024813
Cu2   Cu    Cu3+1 0.500000 0.426640 0.500000 1.024811
H1    H     H_    0.390385 0.499817 0.875227 0.138335
H2    H     H_    0.389333 0.499797 0.121008 0.140837
H3    H     H_    0.609614 0.500185 0.124772 0.138334
H4    H     H_    0.610667 0.500199 0.878992 0.140840
H5    H     H_    0.937375 0.577941 0.406628 0.131911
H6    H     H_    0.062625 0.422060 0.593372 0.131911
H7    H     H_    0.063900 0.577763 0.409079 0.132529
H8    H     H_    0.936100 0.422238 0.590921 0.132531
H9    H     H_    0.428688 0.827771 0.406632 0.154900
H10   H     H_    0.571313 0.172226 0.593359 0.154903
H11   H     H_    0.571240 0.828289 0.593476 0.155039
H12   H     H_    0.428760 0.171714 0.406515 0.155024
H13   H     H_    0.503277 0.932992 0.622370 0.128891
H14   H     H_    0.496720 0.067008 0.377619 0.128893
H15   H     H_    0.496688 0.932929 0.377698 0.127812
H16   H     H_    0.503309 0.067070 0.622291 0.127810
N1    N     N_R   0.500000 0.683620 0.500000 -0.245195
N2    N     N_R   0.500000 0.316380 0.500000 -0.245192
O1    O     O_R   0.400190 0.561980 0.499990 -0.530411
O2    O     O_R   0.599810 0.438020 0.500010 -0.530416
O3    O     O_R   0.599810 0.561980 0.500010 -0.537704
O4    O     O_R   0.400190 0.438020 0.499990 -0.537704
O5    O     O_R   0.500000 0.561980 0.391260 -0.558691
O6    O     O_R   0.500000 0.438020 0.608740 -0.558729
O7    O     O_R   0.500000 0.561980 0.608740 -0.543903
O8    O     O_R   0.500000 0.438020 0.391260 -0.543862
C53   C     C_3   0.369997 0.499971 0.722679 -0.871961
H17   H     H_    0.325735 0.499790 0.761684 0.231279
H18   H     H_    0.366359 0.549831 0.686584 0.262184
H19   H     H_    0.366031 0.450423 0.686124 0.218189
C54   C     C_3   0.368544 0.499682 0.273008 -0.868623
H20   H     H_    0.324399 0.499554 0.232449 0.227043
H21   H     H_    0.364389 0.450207 0.309425 0.270102
H22   H     H_    0.364503 0.549125 0.309408 0.243344
C55   C     C_3   0.630003 0.500032 0.277321 -0.871944
H23   H     H_    0.674265 0.500215 0.238315 0.231275
H24   H     H_    0.633968 0.549580 0.313875 0.218195
H25   H     H_    0.633642 0.450172 0.313416 0.262188
C56   C     C_3   0.631456 0.500314 0.726992 -0.868608
H26   H     H_    0.675601 0.500441 0.767551 0.227046
H27   H     H_    0.635496 0.450871 0.690592 0.243342
H28   H     H_    0.635612 0.549790 0.690576 0.270095
O9    O     O_3   0.708291 0.381097 0.437475 -0.573880
C57   C     C_3   0.710523 0.322868 0.490463 -0.245531
H29   H     H_    0.673161 0.280073 0.472089 0.182126
H30   H     H_    0.696089 0.341014 0.548358 0.191842
H31   H     H_    0.762062 0.297055 0.492838 0.143820
O10   O     O_3   0.291709 0.618902 0.562526 -0.573883
C58   C     C_3   0.289476 0.677132 0.509539 -0.245560
H32   H     H_    0.303906 0.658987 0.451643 0.191838
H33   H     H_    0.326841 0.719925 0.527911 0.182119
H34   H     H_    0.237938 0.702947 0.507170 0.143823
O11   O     O_3   0.288445 0.377806 0.445298 -0.532980
C59   C     C_3   0.287712 0.322132 0.501201 -0.233546
H35   H     H_    0.234596 0.304695 0.515169 0.133869
H36   H     H_    0.315320 0.339895 0.553793 0.146997
H37   H     H_    0.314418 0.273173 0.478916 0.189278
O12   O     O_3   0.711555 0.622194 0.554700 -0.532978
C60   C     C_3   0.712288 0.677868 0.498797 -0.233515
H38   H     H_    0.685580 0.726827 0.521080 0.189291
H39   H     H_    0.684681 0.660104 0.446205 0.146997
H40   H     H_    0.765404 0.695306 0.484828 0.133864
C61   C     C_3   0.854742 0.385095 0.417719 -0.816582
H41   H     H_    0.819876 0.348208 0.385045 0.259148
H42   H     H_    0.888752 0.412062 0.375975 0.227618
H43   H     H_    0.886425 0.351192 0.457006 0.218237
C62   C     C_3   0.145259 0.614905 0.582282 -0.816587
H44   H     H_    0.180124 0.651789 0.614958 0.259147
H45   H     H_    0.113578 0.648809 0.542996 0.218236
H46   H     H_    0.111247 0.587937 0.624025 0.227618
C63   C     C_3   0.142101 0.382419 0.424688 -0.813528
H47   H     H_    0.175857 0.343828 0.394152 0.260643
H48   H     H_    0.110246 0.350194 0.464515 0.217451
H49   H     H_    0.108135 0.408496 0.381419 0.228528
C64   C     C_3   0.857898 0.617583 0.575310 -0.813518
H50   H     H_    0.824143 0.656174 0.605846 0.260648
H51   H     H_    0.891865 0.591506 0.618580 0.228527
H52   H     H_    0.889753 0.649807 0.535483 0.217450
O13   O     O_3   0.425050 0.681471 0.392576 -0.567522
C65   C     C_3   0.440309 0.704669 0.318169 -0.349702
H53   H     H_    0.496419 0.713208 0.309925 0.157716
H54   H     H_    0.411206 0.755042 0.303072 0.150228
H55   H     H_    0.423632 0.661280 0.277828 0.198484
O14   O     O_3   0.574947 0.318513 0.607430 -0.567567
C66   C     C_3   0.559595 0.295375 0.681830 -0.349525
H56   H     H_    0.588564 0.244929 0.696963 0.150161
H57   H     H_    0.503463 0.286994 0.690033 0.157767
H58   H     H_    0.576353 0.338727 0.722174 0.198444
O15   O     O_3   0.575255 0.681810 0.607115 -0.520686
C67   C     C_3   0.561298 0.705370 0.681670 -0.295308
H59   H     H_    0.505479 0.714738 0.690700 0.147374
H60   H     H_    0.591586 0.755338 0.696178 0.144471
H61   H     H_    0.577574 0.661832 0.721906 0.193833
O16   O     O_3   0.424743 0.318205 0.392890 -0.520658
C68   C     C_3   0.438607 0.294586 0.318333 -0.295440
H62   H     H_    0.408199 0.244691 0.303867 0.144574
H63   H     H_    0.494396 0.285071 0.309262 0.147302
H64   H     H_    0.422405 0.338151 0.278093 0.193847

loop_
_geom_bond_atom_site_label_1
_geom_bond_atom_site_label_2
_ccdc_geom_bond_type
C56   H26   S    
C14   C18   A    
Cu1   O5    S    
C16   N2    A    
C24   C27   A    
C65   H55   S    
C53   H17   S    
C35   C53   S    
Cu1   O3    S    
Cu1   Cu2   S    
C25   C28   A    
C15   C19   A    
C46   O10   S    
C26   C27   A    
C9    H7    S    
C33   C42   A    
C32   C36   A    
C20   H12   S    
Cu1   O7    S    
C60   H38   S    
C37   C40   A    
C68   H63   S    
C38   C39   A    
C66   H58   S    
C31   H1    S    
O15   C67   S    
C59   H35   S    
C29   C40   S    
C23   C26   A    
C23   H13   S    
C62   H46   S    
C3    C12   S    
Cu2   O2    S    
C49   C61   S    
C14   O14   S    
C63   H49   S    
O11   C59   S    
C55   H24   S    
C6    C46   A    
C2    O2    A    
C64   H52   S    
C56   H27   S    
C34   C38   A    
C41   C43   S    
C10   H8    S    
C50   C62   S    
C42   C44   S    
C67   H61   S    
C7    H5    S    
O12   C60   S    
C53   H18   S    
O9    C57   S    
Cu2   O8    S    
C54   H21   S    
C3    C49   A    
C7    C12   A    
C5    C48   A    
C6    C47   A    
C4    C51   A    
C1    C6    S    
C51   C63   S    
C36   C40   A    
C24   C25   A    
C67   H60   S    
C68   H64   S    
C65   H54   S    
C13   N1    A    
C54   H20   S    
C5    C45   A    
C60   H39   S    
C33   C37   A    
C4    C50   A    
C4    C11   S    
C35   C39   A    
C43   C44   T    
C34   C41   A    
C45   C49   A    
C16   C20   A    
Cu2   N2    S    
C58   H33   S    
C23   C28   A    
O16   C68   S    
C55   H25   S    
C9    C11   A    
C62   H44   S    
C10   C12   A    
Cu2   O4    S    
C30   O7    A    
C48   O12   S    
C21   C28   S    
C20   C22   A    
C56   H28   S    
C57   H30   S    
C22   C27   S    
C63   H47   S    
C26   H16   S    
C15   O15   S    
C61   H43   S    
C2    C5    S    
C25   H15   S    
C52   C64   S    
Cu1   N1    S    
C53   H19   S    
C63   H48   S    
C64   H50   S    
C17   H9    S    
C54   H22   S    
C7    C9    A    
C33   H3    S    
C31   C41   A    
C19   C21   A    
C18   C22   A    
C1    O4    A    
C14   N2    A    
Cu1   O1    S    
C67   H59   S    
C47   C51   A    
C66   H56   S    
C65   H53   S    
C37   C55   S    
C36   C54   S    
C57   H31   S    
C15   N1    A    
C46   C50   A    
C47   O11   S    
C59   H37   S    
C13   C17   A    
C16   O16   S    
C1    O1    A    
C60   H40   S    
C61   H42   S    
C45   O9    S    
C61   H41   S    
C3    C52   A    
C66   H57   S    
C18   H10   S    
O13   C65   S    
C29   O8    A    
C8    C11   A    
C38   C56   S    
C59   H36   S    
C30   C39   S    
C19   H11   S    
C58   H34   S    
C31   C35   A    
O10   C58   S    
C13   O13   S    
C62   H45   S    
O14   C66   S    
C24   H14   S    
C30   O6    A    
C48   C52   A    
C29   O5    A    
C8    C10   A    
C57   H29   S    
C58   H32   S    
C34   H4    S    
C32   C42   A    
C64   H51   S    
C55   H23   S    
C68   H62   S    
C32   H2    S    
C8    H6    S    
C2    O3    A    
Cu2   O6    S    
C17   C21   A    
