data_mof_unit_51177.cif
_audit_creation_date              2012-10-26T19:06:29-0400
_audit_creation_method            fapswitch 2.2
_symmetry_space_group_name_H-M    P1
_symmetry_Int_Tables_number       1
_space_group_crystal_system       triclinic
_cell_length_a                    12.34639
_cell_length_b                    13.140476
_cell_length_c                    14.338449
_cell_angle_alpha                 78.796382
_cell_angle_beta                  100.817417
_cell_angle_gamma                 115.927486
_cell_volume                      2038.26378009

loop_
_atom_site_label
_atom_site_type_symbol
_atom_type_description
_atom_site_fract_x
_atom_site_fract_y
_atom_site_fract_z
_atom_type_partial_charge
C1    C     C_R   0.855147 0.286816 0.512007 0.525540
C2    C     C_R   0.437900 0.984151 0.499381 0.064190
C3    C     C_R   0.405142 0.051516 0.418897 0.005076
C4    C     C_R   0.999881 0.499725 0.668755 0.534570
C5    C     C_R   0.493777 0.147841 0.374724 -0.135645
C6    C     C_R   0.614858 0.178859 0.408568 -0.121075
C7    C     C_R   0.348906 0.873150 0.526229 0.052815
C8    C     C_R   0.196176 0.912244 0.407836 0.075127
C9    C     C_R   0.772800 0.167380 0.537157 -0.006167
C10   C     C_R   0.349094 0.333401 0.653514 0.239282
C11   C     C_R   0.760912 0.646235 0.376835 0.052821
C12   C     C_1   0.999841 0.499965 0.228865 -0.044794
C13   C     C_R   0.665750 0.681207 0.349539 0.234953
C14   C     C_R   0.561275 0.623363 0.395464 -0.099301
C15   C     C_R   0.552531 0.535255 0.471559 -0.043920
C16   C     C_R   0.145249 0.713587 0.489389 0.568964
C17   C     C_R   0.653545 0.505923 0.498320 0.166183
C18   C     C_R   0.448103 0.476039 0.522538 -0.056122
C19   C     C_R   0.448253 0.390363 0.599970 0.022989
C20   C     C_R   0.547380 0.362306 0.623506 -0.159692
C21   C     C_R   0.647922 0.419637 0.574722 -0.094574
C22   C     C_R   0.343063 0.498150 0.500278 -0.010869
C23   C     C_R   0.284629 0.018799 0.378697 -0.129874
C24   C     C_R   0.246479 0.356260 0.625138 0.267357
C25   C     C_R   0.000027 0.500138 0.331250 0.540065
C26   C     C_1   0.999768 0.499492 0.771146 -0.049018
C27   C     C_1   0.999662 0.499400 0.856599 -0.048946
C28   C     C_1   0.999600 0.499434 0.957291 -0.007141
C29   C     C_1   0.999618 0.499557 0.042733 -0.006272
C30   C     C_1   0.999713 0.499773 0.143421 -0.046463
C31   C     C_3   0.403165 0.302566 0.813525 -0.024763
C32   C     C_3   0.400844 0.211314 0.897555 -0.366909
C33   C     C_3   0.777343 0.864571 0.281164 -0.017756
C34   C     C_R   0.229136 0.835737 0.477209 0.051861
C35   C     C_3   0.756909 0.967285 0.226411 -0.365065
C36   C     C_R   0.807733 0.108604 0.620724 -0.133881
C37   C     C_R   0.720829 0.017569 0.670096 -0.155293
C38   C     C_R   0.598834 0.981694 0.634994 -0.094768
C39   C     C_R   0.561176 0.027162 0.543269 0.058210
C40   C     C_R   0.650285 0.124002 0.495330 0.014293
Cu1   Cu    Cu3+1 0.098280 0.475420 0.520190 0.941460
Cu2   Cu    Cu3+1 0.901720 0.524580 0.479810 0.926207
H1    H     H_    0.548504 0.295530 0.680955 0.154174
H2    H     H_    0.747440 0.979576 0.739390 0.119273
H3    H     H_    0.680472 0.248126 0.366690 0.137382
H4    H     H_    0.077746 0.883862 0.287344 0.215283
H5    H     H_    0.043262 0.937620 0.369946 0.217591
H6    H     H_    0.353802 0.349506 0.829395 0.121602
H7    H     H_    0.499418 0.363282 0.807283 0.130070
H8    H     H_    0.451457 0.164227 0.884630 0.159454
H9    H     H_    0.443871 0.251568 0.964127 0.097531
H10   H     H_    0.305707 0.150341 0.906855 0.159317
H11   H     H_    0.846737 0.855533 0.248186 0.132981
H12   H     H_    0.335425 0.562055 0.443169 0.128735
H13   H     H_    0.811817 0.881841 0.356788 0.130924
H14   H     H_    0.688380 0.979203 0.258078 0.162471
H15   H     H_    0.843238 0.045225 0.230369 0.094816
H16   H     H_    0.724399 0.954512 0.150114 0.162629
H17   H     H_    0.318554 0.750552 0.643496 0.245481
H18   H     H_    0.399540 0.740157 0.561701 0.262643
H19   H     H_    0.115490 0.206265 0.672599 0.225864
H20   H     H_    0.162670 0.308807 0.745004 0.210503
H21   H     H_    0.840528 0.686265 0.339432 0.146130
H22   H     H_    0.489272 0.650953 0.370755 0.126016
H23   H     H_    0.719802 0.393704 0.600495 0.180862
H24   H     H_    0.469826 0.196162 0.310384 0.111355
H25   H     H_    0.259817 0.073570 0.320206 0.109975
H26   H     H_    0.900375 0.141089 0.654192 0.138970
H27   H     H_    0.536437 0.923364 0.684237 0.162740
N1    N     N_R   0.246290 0.438200 0.550780 -0.229455
N2    N     N_R   0.754310 0.561180 0.449760 -0.260573
N3    N     N_3   0.074969 0.878805 0.360608 -0.632300
N4    N     N_3   0.383570 0.794887 0.595792 -0.666478
N5    N     N_3   0.140851 0.293098 0.673703 -0.548724
O1    O     O_R   0.972510 0.318130 0.525390 -0.462234
O2    O     O_3   0.667248 0.765842 0.274135 -0.562277
O3    O     O_R   0.806530 0.359650 0.491290 -0.519733
O4    O     O_R   0.083010 0.479240 0.641000 -0.457952
O5    O     O_R   0.917030 0.520750 0.606900 -0.501780
O6    O     O_R   0.193470 0.640350 0.508710 -0.521039
O7    O     O_R   0.027490 0.681870 0.474610 -0.459386
O8    O     O_R   0.082970 0.479250 0.393100 -0.479824
O9    O     O_R   0.916990 0.520760 0.359000 -0.488587
O10   O     O_3   0.348179 0.249940 0.729446 -0.578088

loop_
_geom_bond_atom_site_label_1
_geom_bond_atom_site_label_2
_ccdc_geom_bond_type
C33   H13   S    
C15   C18   A    
C6    H3    S    
C1    O3    A    
Cu1   Cu2   S    
C3    C23   A    
C2    C7    A    
Cu1   O6    S    
C24   N1    A    
C7    N4    S    
C26   C27   T    
C37   C38   A    
C35   H16   S    
C36   C37   A    
C11   H21   S    
C38   C39   A    
C11   N2    A    
H18   N4    S    
C8    C23   A    
C18   C19   A    
C23   H25   S    
Cu2   N2    S    
C16   C34   S    
C2    C39   A    
C32   H10   S    
C19   C20   A    
C9    C36   A    
H17   N4    S    
H4    N3    S    
C21   H23   S    
C38   H27   S    
Cu2   O5    S    
C13   C14   A    
Cu2   O7    S    
C31   H7    S    
C33   H11   S    
C8    N3    S    
C1    O1    A    
C1    C9    S    
C4    O5    A    
C22   H12   S    
C39   C40   A    
C10   C24   A    
C9    C40   A    
C17   C21   A    
C31   O10   S    
C16   O6    A    
C32   H9    S    
C4    O4    A    
C29   C30   S    
Cu1   O1    S    
C33   O2    S    
C31   C32   S    
C13   O2    S    
C10   C19   A    
C14   H22   S    
C8    C34   A    
C32   H8    S    
C17   N2    A    
C31   H6    S    
C25   O8    A    
C7    C34   A    
C6    C40   A    
Cu1   O4    S    
C20   H1    S    
C15   C17   A    
C28   C29   T    
C12   C30   T    
C35   H14   S    
C18   C22   A    
Cu2   O9    S    
C5    H24   S    
C3    C5    A    
C4    C26   S    
C36   H26   S    
H19   N5    S    
C12   C25   S    
C35   H15   S    
C37   H2    S    
C2    C3    A    
C11   C13   A    
C24   N5    S    
C5    C6    A    
Cu1   O8    S    
C10   O10   S    
C16   O7    A    
C33   C35   S    
H5    N3    S    
C20   C21   A    
Cu2   O3    S    
C27   C28   S    
C25   O9    A    
C14   C15   A    
H20   N5    S    
C22   N1    A    
Cu1   N1    S    
