data_mof_unit_28809.cif
_audit_creation_date              2012-10-26T19:48:43-0400
_audit_creation_method            fapswitch 2.2
_symmetry_space_group_name_H-M    P1
_symmetry_Int_Tables_number       1
_space_group_crystal_system       triclinic
_cell_length_a                    10.714436
_cell_length_b                    9.440421
_cell_length_c                    27.798123
_cell_angle_alpha                 90.035054
_cell_angle_beta                  89.931216
_cell_angle_gamma                 89.762374
_cell_volume                      2811.71966893

loop_
_atom_site_label
_atom_site_type_symbol
_atom_type_description
_atom_site_fract_x
_atom_site_fract_y
_atom_site_fract_z
_atom_type_partial_charge
C1    C     C_R   0.259857 0.500247 0.501483 0.554347
C2    C     C_R   0.382678 0.497108 0.973683 0.017218
C3    C     C_R   0.612740 0.499394 0.974766 0.018555
C4    C     C_R   0.499768 0.499962 0.407502 0.557668
C5    C     C_R   0.498622 0.498003 0.948941 0.034654
C6    C     C_R   0.271923 0.484733 0.946237 -0.144339
C7    C     C_R   0.274826 0.482625 0.896299 -0.113917
C8    C     C_R   0.388121 0.490806 0.871652 0.024465
C9    C     C_R   0.500430 0.497340 0.897795 -0.027756
C10   C     C_R   0.614524 0.503165 0.872675 0.024818
C11   C     C_R   0.614105 0.503324 0.822151 0.395456
C12   C     C_R   0.507720 0.371876 0.278791 -0.059741
C13   C     C_R   0.391879 0.490973 0.821183 0.396389
C14   C     C_R   0.466160 0.620126 0.721158 -0.062657
C15   C     C_R   0.464927 0.620752 0.671023 -0.162801
C16   C     C_R   0.739532 0.499596 0.503022 0.540667
C17   C     C_R   0.541436 0.378374 0.670405 -0.157617
C18   C     C_R   0.543162 0.378242 0.720557 -0.061939
C19   C     C_R   0.505051 0.498878 0.746049 0.246392
C20   C     C_R   0.381039 0.506708 0.024775 0.002758
C21   C     C_R   0.494339 0.499840 0.050740 0.028267
C22   C     C_R   0.610470 0.492386 0.025854 0.022222
C23   C     C_R   0.495714 0.499613 0.253682 0.254425
C24   C     C_R   0.269081 0.525798 0.050602 -0.130606
C25   C     C_R   0.718023 0.474582 0.102816 -0.125544
C26   C     C_R   0.725573 0.508610 0.948368 -0.143517
C27   C     C_R   0.726167 0.510091 0.898389 -0.114730
C28   C     C_R   0.500475 0.499983 0.592455 0.539685
C29   C     C_R   0.720876 0.476680 0.053052 -0.145651
C30   C     C_3   0.073325 0.618179 0.538163 -0.220706
C31   C     C_3   0.074256 0.354847 0.521885 -0.215761
C32   C     C_3   0.928896 0.629344 0.535425 -0.102148
C33   C     C_3   0.930387 0.355320 0.526939 -0.102084
C34   C     C_R   0.491952 0.500524 0.101984 -0.039371
C35   C     C_3   0.069250 0.526294 0.452626 -0.249516
C36   C     C_3   0.121900 0.500376 0.503534 0.028087
C37   C     C_3   0.877678 0.498973 0.506106 0.051725
C38   C     C_3   0.926130 0.513638 0.453485 -0.257289
C39   C     C_3   0.612637 0.083145 0.476951 -0.104333
C40   C     C_3   0.612104 0.916069 0.476591 -0.103172
C41   C     C_3   0.498217 0.083724 0.550589 -0.102937
C42   C     C_3   0.496908 0.916659 0.550541 -0.105928
C43   C     C_3   0.390113 0.083923 0.475508 -0.103343
C44   C     C_3   0.390173 0.916711 0.475437 -0.103546
C45   C     C_R   0.377344 0.513218 0.127601 0.024360
C46   C     C_R   0.382212 0.511039 0.178749 0.384789
C47   C     C_R   0.603939 0.488124 0.177892 0.392034
C48   C     C_R   0.485379 0.627483 0.278877 -0.063924
C49   C     C_R   0.487220 0.627835 0.329030 -0.152220
C50   C     C_R   0.509023 0.371792 0.328951 -0.152250
C51   C     C_3   0.867821 0.652928 0.585939 -0.256742
C52   C     C_3   0.844646 0.809085 0.597280 -0.313920
C53   C     C_3   0.769372 0.825416 0.643755 -0.446869
C54   C     C_3   0.891497 0.325066 0.579714 -0.262886
C55   C     C_3   0.913065 0.170890 0.594790 -0.325156
C56   C     C_R   0.264355 0.528034 0.100926 0.000390
C57   C     C_3   0.914227 0.158241 0.649676 -0.441276
C58   C     C_3   0.135641 0.549236 0.123194 -0.214300
C59   C     C_3   0.116620 0.702960 0.139844 -0.278751
C60   C     C_3   0.990045 0.722480 0.164250 -0.423066
C61   C     C_R   0.605228 0.487980 0.127628 0.025823
C62   C     C_R   0.498850 0.499875 0.354539 0.001182
C63   C     C_R   0.502264 0.499727 0.645267 -0.002870
Cu1   Cu    Cu3+1 0.499860 0.642410 0.500020 0.868748
Cu2   Cu    Cu3+1 0.499860 0.357590 0.500020 0.867421
H1    H     H_    0.518220 0.271640 0.347627 0.114907
H2    H     H_    0.121133 0.329404 0.556574 0.124954
H3    H     H_    0.515660 0.272774 0.259374 0.118451
H4    H     H_    0.907523 0.724944 0.513326 0.131259
H5    H     H_    0.893964 0.266944 0.504455 0.130122
H6    H     H_    0.096169 0.633742 0.439910 0.119746
H7    H     H_    0.108736 0.447928 0.426749 0.121570
H8    H     H_    0.884618 0.608602 0.435805 0.117433
H9    H     H_    0.897514 0.419812 0.431907 0.118562
H10   H     H_    0.698433 0.119102 0.495665 0.107519
H11   H     H_    0.698459 0.877781 0.494246 0.106405
H12   H     H_    0.476110 0.726475 0.259522 0.114476
H13   H     H_    0.618887 0.123406 0.439434 0.114029
H14   H     H_    0.616581 0.877274 0.438831 0.114102
H15   H     H_    0.581227 0.120983 0.570958 0.108782
H16   H     H_    0.577593 0.876831 0.571469 0.121938
H17   H     H_    0.302601 0.121101 0.492961 0.109714
H18   H     H_    0.302511 0.879841 0.492675 0.109846
H19   H     H_    0.387616 0.123575 0.437853 0.114949
H20   H     H_    0.387987 0.877233 0.437740 0.112706
H21   H     H_    0.414583 0.123539 0.570227 0.117625
H22   H     H_    0.411857 0.879278 0.569636 0.109365
H23   H     H_    0.805559 0.461893 0.121851 0.151395
H24   H     H_    0.434032 0.715395 0.652440 0.110273
H25   H     H_    0.436644 0.713649 0.740740 0.125333
H26   H     H_    0.187301 0.474002 0.877052 0.164864
H27   H     H_    0.180936 0.472590 0.962188 0.102879
H28   H     H_    0.182559 0.545066 0.032036 0.101442
H29   H     H_    0.478993 0.728073 0.347765 0.114697
H30   H     H_    0.113454 0.722883 0.528431 0.108557
H31   H     H_    0.101497 0.269815 0.496095 0.103603
H32   H     H_    0.684002 0.759579 0.642480 0.163943
H33   H     H_    0.826603 0.792955 0.675185 0.174397
H34   H     H_    0.815616 0.518108 0.965192 0.103380
H35   H     H_    0.739273 0.937077 0.648356 0.132269
H36   H     H_    0.935751 0.863638 0.600880 0.156069
H37   H     H_    0.792139 0.859250 0.567569 0.143019
H38   H     H_    0.777085 0.597409 0.588283 0.163301
H39   H     H_    0.927200 0.611702 0.615410 0.140978
H40   H     H_    0.985613 0.229475 0.665446 0.167909
H41   H     H_    0.821137 0.186334 0.664619 0.155469
H42   H     H_    0.938807 0.048730 0.660502 0.150387
H43   H     H_    0.837148 0.104874 0.579704 0.145008
H44   H     H_    0.003515 0.130416 0.580740 0.150783
H45   H     H_    0.571465 0.284088 0.651336 0.106608
H46   H     H_    0.948145 0.391657 0.603866 0.154645
H47   H     H_    0.791333 0.350521 0.585545 0.155422
H48   H     H_    0.913524 0.698144 0.138673 0.157327
H49   H     H_    0.982501 0.651960 0.196089 0.198432
H50   H     H_    0.979555 0.834006 0.176351 0.146613
H51   H     H_    0.191107 0.735148 0.165264 0.204689
H52   H     H_    0.121523 0.774510 0.108143 0.152211
H53   H     H_    0.061394 0.525621 0.096425 0.106077
H54   H     H_    0.117904 0.471368 0.152187 0.202826
H55   H     H_    0.815094 0.516997 0.879954 0.163888
H56   H     H_    0.573217 0.284197 0.739661 0.122946
H57   H     H_    0.811576 0.462229 0.037023 0.100685
H58   H     H_    0.105991 0.593800 0.575215 0.113354
N1    N     N_R   0.493915 0.499543 0.202135 -0.394437
N2    N     N_R   0.503753 0.497568 0.797590 -0.398211
N3    N     N_3   0.500250 0.143650 0.501060 -0.222086
N4    N     N_3   0.500250 0.856350 0.501060 -0.221624
O1    O     O_R   0.317570 0.620260 0.500030 -0.512664
O2    O     O_2   0.284702 0.483973 0.795836 -0.499566
O3    O     O_2   0.712058 0.477437 0.202571 -0.517067
O4    O     O_2   0.722884 0.510096 0.797743 -0.503437
O5    O     O_R   0.317570 0.379740 0.500030 -0.513625
O6    O     O_R   0.499900 0.620250 0.430280 -0.507593
O7    O     O_R   0.499900 0.379750 0.430280 -0.507217
O8    O     O_R   0.682190 0.620260 0.500010 -0.511656
O9    O     O_R   0.682190 0.379740 0.500010 -0.517682
O10   O     O_R   0.499860 0.620280 0.569750 -0.513960
O11   O     O_R   0.499860 0.379720 0.569750 -0.512811
O12   O     O_2   0.277552 0.518990 0.205460 -0.527868

loop_
_geom_bond_atom_site_label_1
_geom_bond_atom_site_label_2
_ccdc_geom_bond_type
C10   C27   A    
C57   H40   S    
C44   N4    S    
C8    C13   A    
C22   C29   A    
C41   C42   S    
C60   H49   S    
C35   C36   S    
C1    O1    A    
C44   H18   S    
C17   H45   S    
C41   H15   S    
C7    C8    A    
C45   C46   A    
C31   H2    S    
C41   H21   S    
C12   H3    S    
C12   C23   A    
C52   H37   S    
C26   C27   A    
C30   H30   S    
C11   N2    A    
C51   H38   S    
C31   H31   S    
C4    C62   S    
C58   H53   S    
C18   C19   A    
C14   H25   S    
Cu1   O6    S    
C20   C24   A    
C45   C56   A    
C59   H51   S    
Cu1   O1    S    
C31   C33   S    
C49   C62   A    
C39   H10   S    
C49   H29   S    
C9    C10   A    
C3    C22   A    
Cu2   O7    S    
C16   C37   S    
C13   N2    A    
C1    O5    A    
C57   H41   S    
Cu1   O8    S    
C35   H6    S    
C59   C60   S    
C59   H52   S    
C39   N3    S    
C21   C22   A    
C55   H44   S    
C43   H19   S    
C46   N1    A    
C60   H48   S    
C2    C6    A    
C42   H16   S    
C14   C19   A    
C43   N3    S    
Cu1   O10   S    
C53   H35   S    
C25   C29   A    
C52   H36   S    
C47   O3    S    
C2    C20   A    
C51   C52   S    
C39   H13   S    
C35   C38   S    
C28   O11   A    
C39   C40   S    
C8    C9    A    
C21   C34   A    
C53   H32   S    
C58   C59   S    
C27   H55   S    
C40   N4    S    
C19   N2    S    
C34   C61   A    
C33   C37   S    
C40   H11   S    
C48   H12   S    
C43   C44   S    
C32   C51   S    
C5    C9    A    
C37   C38   S    
C15   H24   S    
Cu1   N4    S    
C7    H26   S    
C29   H57   S    
C17   C18   A    
C40   H14   S    
C54   H47   S    
C34   C45   A    
C25   C61   A    
C32   C37   S    
C30   H58   S    
C50   H1    S    
C32   H4    S    
C42   N4    S    
Cu2   O11   S    
C33   H5    S    
C48   C49   A    
C57   H42   S    
C35   H7    S    
C55   C57   S    
C50   C62   A    
C2    C5    A    
C44   H20   S    
C16   O9    A    
Cu2   O5    S    
C52   C53   S    
C4    O7    A    
C38   H9    S    
C33   C54   S    
C54   C55   S    
C15   C63   A    
C23   C48   A    
C31   C36   S    
C41   N3    S    
C3    C26   A    
C28   O10   A    
C3    C5    A    
C11   O4    S    
C47   C61   A    
C12   C50   A    
C6    C7    A    
C53   H33   S    
C24   C56   A    
C26   H34   S    
C30   C36   S    
C55   H43   S    
Cu2   N3    S    
C51   H39   S    
C24   H28   S    
Cu1   Cu2   S    
C30   C32   S    
C16   O8    A    
C47   N1    A    
C6    H27   S    
C58   H54   S    
C56   C58   S    
C54   H46   S    
C25   H23   S    
Cu2   O9    S    
C10   C11   A    
C18   H56   S    
C28   C63   S    
C20   C21   A    
C43   H17   S    
C13   O2    S    
C14   C15   A    
C4    O6    A    
C60   H50   S    
C42   H22   S    
C23   N1    S    
C17   C63   A    
C1    C36   S    
C46   O12   S    
C38   H8    S    
