data_mof_unit_65893.cif
_audit_creation_date              2013-03-05T16:25:04-0500
_audit_creation_method            fapswitch 2.2
_symmetry_space_group_name_H-M    P1
_symmetry_Int_Tables_number       1
_space_group_crystal_system       triclinic
_cell_length_a                    23.531562
_cell_length_b                    23.332301
_cell_length_c                    16.338726
_cell_angle_alpha                 90.003332
_cell_angle_beta                  94.937631
_cell_angle_gamma                 89.998
_cell_volume                      8937.41330969

loop_
_atom_site_label
_atom_site_type_symbol
_atom_site_description
_atom_site_fract_x
_atom_site_fract_y
_atom_site_fract_z
_atom_type_partial_charge
O1    O     O_R   0.445750 0.057890 0.422600 -0.621276
O2    O     O_R   0.554250 0.942110 0.577400 -0.606620
O3    O     O_R   0.554250 0.057890 0.577400 -0.620492
O4    O     O_R   0.445750 0.942110 0.422600 -0.605845
O5    O     O_R   0.945750 0.557890 0.422600 -0.620842
O6    O     O_R   0.054250 0.442110 0.577400 -0.606225
O7    O     O_R   0.054250 0.557890 0.577400 -0.620863
O8    O     O_R   0.945750 0.442110 0.422600 -0.606127
O9    O     O_R   0.439220 0.057900 0.561040 -0.595986
O10   O     O_R   0.560780 0.942100 0.438960 -0.617036
O11   O     O_R   0.560780 0.057900 0.438960 -0.595575
O12   O     O_R   0.439220 0.942100 0.561040 -0.616178
O13   O     O_R   0.939220 0.557900 0.561040 -0.595566
O14   O     O_R   0.060780 0.442100 0.438960 -0.616599
O15   O     O_R   0.060780 0.557900 0.438960 -0.595776
O16   O     O_R   0.939220 0.442100 0.561040 -0.616454
C1    C     C_R   0.422690 0.075472 0.487248 0.857548
C2    C     C_R   0.574891 0.922183 0.512182 0.852110
C3    C     C_R   0.577310 0.075471 0.512755 0.857658
C4    C     C_R   0.425101 0.922197 0.487814 0.852028
C5    C     C_R   0.922701 0.575477 0.487252 0.857299
C6    C     C_R   0.074896 0.422194 0.512182 0.851945
C7    C     C_R   0.077310 0.575472 0.512755 0.857498
C8    C     C_R   0.925102 0.422197 0.487814 0.851739
Zn1   Zn    Zn3+2 0.504350 0.000000 0.407560 0.966719
Zn2   Zn    Zn3+2 0.495650 0.000000 0.592440 0.966778
Zn3   Zn    Zn3+2 0.004350 0.500000 0.407560 0.966804
Zn4   Zn    Zn3+2 0.995650 0.500000 0.592440 0.966871
C9    C     C_R   0.394258 0.868649 0.480129 -0.042643
C10   C     C_R   0.630041 0.107522 0.525616 -0.042450
C11   C     C_R   0.605781 0.868650 0.519888 -0.042653
C12   C     C_R   0.369953 0.107511 0.474389 -0.042124
C13   C     C_R   0.894262 0.368647 0.480130 -0.042372
C14   C     C_R   0.130039 0.607522 0.525616 -0.042269
C15   C     C_R   0.105734 0.368641 0.519860 -0.042368
C16   C     C_R   0.869939 0.607455 0.474411 -0.041730
C17   C     C_R   0.345724 0.860281 0.521805 -0.168154
C18   C     C_R   0.642830 0.150427 0.470746 -0.161172
C19   C     C_R   0.654003 0.860097 0.477582 -0.168833
C20   C     C_R   0.357173 0.150445 0.529228 -0.161334
C21   C     C_R   0.845723 0.360281 0.521796 -0.168494
C22   C     C_R   0.142823 0.650435 0.470755 -0.161237
C23   C     C_R   0.154243 0.360249 0.478134 -0.168506
C24   C     C_R   0.857382 0.650756 0.528799 -0.161383
C25   C     C_R   0.320170 0.806676 0.520356 -0.106213
C26   C     C_R   0.695947 0.176629 0.479598 -0.105828
C27   C     C_R   0.679589 0.806503 0.479158 -0.106349
C28   C     C_R   0.304050 0.176637 0.520381 -0.105848
C29   C     C_R   0.820170 0.306677 0.520350 -0.106180
C30   C     C_R   0.195939 0.676637 0.479606 -0.105817
C31   C     C_R   0.179795 0.306642 0.479590 -0.106232
C32   C     C_R   0.804236 0.676902 0.520062 -0.105711
C33   C     C_R   0.344661 0.760352 0.480564 0.110712
C34   C     C_R   0.737672 0.158185 0.541046 0.114119
C35   C     C_R   0.655429 0.760355 0.519748 0.110982
C36   C     C_R   0.262311 0.158154 0.458977 0.114185
C37   C     C_R   0.844668 0.260350 0.480573 0.110871
C38   C     C_R   0.237669 0.658186 0.541043 0.114150
C39   C     C_R   0.155324 0.260337 0.519441 0.110884
C40   C     C_R   0.762265 0.658012 0.459264 0.114185
C41   C     C_R   0.392818 0.769280 0.437747 -0.044911
C42   C     C_R   0.724279 0.115774 0.596631 -0.050746
C43   C     C_R   0.607573 0.769461 0.563145 -0.045090
C44   C     C_R   0.275696 0.115713 0.403423 -0.050668
C45   C     C_R   0.892831 0.269275 0.437768 -0.045058
C46   C     C_R   0.224282 0.615766 0.596619 -0.050730
C47   C     C_R   0.107189 0.269287 0.562299 -0.045069
C48   C     C_R   0.775430 0.615206 0.404133 -0.050588
C49   C     C_R   0.417284 0.823445 0.436951 -0.194392
C50   C     C_R   0.670454 0.090911 0.589436 -0.196974
C51   C     C_R   0.583089 0.823623 0.563792 -0.194735
C52   C     C_R   0.329527 0.090861 0.410608 -0.197565
C53   C     C_R   0.917296 0.323441 0.436969 -0.194777
C54   C     C_R   0.170456 0.590903 0.589426 -0.197242
C55   C     C_R   0.082727 0.323456 0.563087 -0.194881
C56   C     C_R   0.829280 0.590391 0.411183 -0.197273
C57   C     C_2   0.317847 0.703305 0.481100 0.126526
C58   C     C_2   0.794118 0.185987 0.549633 0.128887
C59   C     C_2   0.682335 0.703339 0.519528 0.126567
C60   C     C_2   0.205856 0.185939 0.450405 0.128868
C61   C     C_2   0.817855 0.203302 0.481112 0.126459
C62   C     C_2   0.294116 0.685984 0.549624 0.128864
C63   C     C_2   0.182142 0.203289 0.518931 0.126516
C64   C     C_2   0.705757 0.685691 0.450916 0.128754
H1    H     H_    0.327825 0.895052 0.555265 0.159154
H2    H     H_    0.611834 0.163546 0.421424 0.151520
H3    H     H_    0.671650 0.894722 0.443555 0.159026
H4    H     H_    0.388180 0.163593 0.578519 0.151117
H5    H     H_    0.827818 0.395055 0.555245 0.158961
H6    H     H_    0.111823 0.663560 0.421442 0.151335
H7    H     H_    0.172127 0.395005 0.444634 0.158963
H8    H     H_    0.888579 0.664217 0.577658 0.150932
H9    H     H_    0.661166 0.057023 0.631637 0.161644
H10   H     H_    0.455595 0.829533 0.405597 0.159897
H11   H     H_    0.338811 0.056951 0.368433 0.161338
H12   H     H_    0.545012 0.829834 0.595643 0.159615
H13   H     H_    0.161172 0.557010 0.631620 0.161501
H14   H     H_    0.955612 0.329528 0.405625 0.159637
H15   H     H_    0.838408 0.556191 0.369385 0.161137
H16   H     H_    0.044434 0.329561 0.594478 0.159577
H17   H     H_    0.411912 0.734272 0.406271 0.179230
H18   H     H_    0.755617 0.101450 0.644728 0.174164
H19   H     H_    0.588738 0.734594 0.595235 0.179065
H20   H     H_    0.244347 0.101359 0.355360 0.174150
H21   H     H_    0.911931 0.234264 0.406304 0.179097
H22   H     H_    0.255624 0.601437 0.644706 0.174137
H23   H     H_    0.088111 0.234294 0.593819 0.179086
H24   H     H_    0.743894 0.600530 0.356540 0.174090
H25   H     H_    0.704593 0.211063 0.437997 0.152658
H26   H     H_    0.281586 0.801200 0.551175 0.154115
H27   H     H_    0.295409 0.211094 0.561955 0.152586
H28   H     H_    0.717953 0.800904 0.447862 0.154040
H29   H     H_    0.204583 0.711076 0.438012 0.152618
H30   H     H_    0.781581 0.301202 0.551159 0.154060
H31   H     H_    0.795747 0.711628 0.561272 0.152531
H32   H     H_    0.218363 0.301149 0.448736 0.154062
N1    N     N_R   0.489810 1.000000 0.715580 -0.102058
N2    N     N_R   0.510190 0.000000 0.284420 -0.101845
N3    N     N_R   0.989810 0.500000 0.715580 -0.102006
N4    N     N_R   0.010190 0.500000 0.284420 -0.101965
C65   C     C_R   0.503546 0.047808 0.760680 0.035860
C66   C     C_R   0.494666 0.047288 0.239172 0.035203
C67   C     C_R   0.004300 0.547598 0.760745 0.035737
C68   C     C_R   0.995421 0.547517 0.239237 0.035615
C69   C     C_R   0.499348 0.047675 0.845474 -0.197179
C70   C     C_R   0.498853 0.047394 0.154383 -0.197586
C71   C     C_R   0.000107 0.547566 0.845537 -0.197259
C72   C     C_R   0.999614 0.547521 0.154446 -0.197428
C73   C     C_R   0.480643 0.997951 0.883148 0.185234
C74   C     C_R   0.519411 0.998460 0.116830 0.185471
C75   C     C_R   0.980619 0.498166 0.883157 0.185263
C76   C     C_R   0.019391 0.498243 0.116840 0.185304
C77   C     C_R   0.466209 0.949559 0.835184 -0.159993
C78   C     C_R   0.535658 0.950608 0.164919 -0.159821
C79   C     C_R   0.965420 0.449993 0.835138 -0.159854
C80   C     C_R   0.034873 0.450154 0.164873 -0.159835
C81   C     C_R   0.471573 0.951349 0.750961 0.044794
C82   C     C_R   0.530239 0.952107 0.249145 0.043940
C83   C     C_R   0.970809 0.451659 0.750914 0.044594
C84   C     C_R   0.029475 0.451777 0.249098 0.044419
C85   C     C_2   0.476218 0.995838 0.972950 -0.170710
C86   C     C_2   0.523908 0.996629 0.027029 -0.170692
C87   C     C_2   0.976163 0.496173 0.972958 -0.170724
C88   C     C_2   0.023859 0.496291 0.027038 -0.170685
H33   H     H_    0.517776 0.085924 0.730786 0.132477
H34   H     H_    0.479029 0.084825 0.268939 0.133129
H35   H     H_    0.019124 0.585476 0.730906 0.132771
H36   H     H_    0.980377 0.585306 0.269060 0.132889
H37   H     H_    0.541971 0.914957 0.286364 0.143865
H38   H     H_    0.461262 0.913827 0.713788 0.143194
H39   H     H_    0.040606 0.414463 0.286296 0.143694
H40   H     H_    0.959900 0.414287 0.713719 0.143585
H41   H     H_    0.451745 0.910636 0.862969 0.154936
H42   H     H_    0.551586 0.912292 0.137230 0.154785
H43   H     H_    0.950340 0.411319 0.862881 0.154932
H44   H     H_    0.050183 0.411573 0.137142 0.154905
H45   H     H_    0.486226 0.084986 0.118412 0.144343
H46   H     H_    0.510548 0.085682 0.881354 0.144337
H47   H     H_    0.987588 0.585294 0.118514 0.144358
H48   H     H_    0.011909 0.585405 0.881458 0.144362
N5    N     N_R   0.317557 0.704218 0.630077 0.199352
O17   O     O_R   0.284668 0.710931 0.689450 -0.368218
O18   O     O_R   0.372242 0.712026 0.645044 -0.354749
N6    N     N_R   0.807722 0.172197 0.404788 0.200789
O19   O     O_R   0.808128 0.198639 0.334711 -0.359691
O20   O     O_R   0.800690 0.116859 0.405140 -0.344806
N7    N     N_R   0.681902 0.703443 0.370447 0.199314
O21   O     O_R   0.714450 0.709742 0.310586 -0.368332
O22   O     O_R   0.627171 0.711171 0.355963 -0.354685
N8    N     N_R   0.192314 0.172226 0.595280 0.200746
O23   O     O_R   0.191946 0.198710 0.665337 -0.359944
O24   O     O_R   0.199350 0.116888 0.594977 -0.344748
N9    N     N_R   0.817551 0.204228 0.630087 0.199333
O25   O     O_R   0.784654 0.210950 0.689449 -0.368254
O26   O     O_R   0.872234 0.212036 0.645064 -0.354727
N10   N     N_R   0.307705 0.672206 0.404772 0.200787
O27   O     O_R   0.308103 0.698655 0.334698 -0.359731
O28   O     O_R   0.300672 0.616869 0.405116 -0.344751
N11   N     N_R   0.182386 0.204130 0.369948 0.199318
O29   O     O_R   0.215254 0.210817 0.310545 -0.368436
O30   O     O_R   0.127698 0.211925 0.355009 -0.354718
N12   N     N_R   0.692937 0.672664 0.596135 0.200775
O31   O     O_R   0.692929 0.699499 0.665964 -0.360021
O32   O     O_R   0.700037 0.617330 0.596326 -0.344658
C89   C     C_2   0.582939 0.994177 0.000012 0.938383
O33   O     O_2   0.622745 0.013363 0.044868 -0.586278
O34   O     O_R   0.593651 0.968471 0.925540 -0.789026
H49   H     H_    0.635510 0.969458 0.915210 0.358536
C90   C     C_2   0.417312 0.991233 0.999964 0.938552
O35   O     O_2   0.376859 0.009092 0.955119 -0.586191
O36   O     O_R   0.407510 0.964982 0.074419 -0.788716
H50   H     H_    0.365643 0.964452 0.084747 0.358658
C91   C     C_2   0.082845 0.492925 0.000023 0.938473
O37   O     O_2   0.122932 0.511546 0.044874 -0.586218
O38   O     O_R   0.093171 0.466986 0.925551 -0.788914
H51   H     H_    0.135039 0.467331 0.915219 0.358581
C92   C     C_2   0.917195 0.492483 0.999973 0.938567
O39   O     O_2   0.877011 0.510909 0.955129 -0.586065
O40   O     O_R   0.907007 0.466456 0.074434 -0.788813
H52   H     H_    0.865138 0.466574 0.084766 0.358652

loop_
_geom_bond_atom_site_label_1
_geom_bond_atom_site_label_2
_geom_bond_distance
_ccdc_geom_bond_type
O16   Zn4   1.932436 S    
C21   H5    1.083534 S    
C76   C88   1.480707 S    
O2    C2    1.294823 A    
C41   H17   1.083174 S    
C14   C22   1.393913 A    
Zn2   N1    2.028407 S    
C19   H3    1.083532 S    
C77   C81   1.393273 A    
C80   C84   1.393325 A    
C47   H23   1.083175 S    
Zn1   N2    2.028405 S    
N5    O17   1.301448 A    
C29   C37   1.409775 A    
N7    O22   1.301808 A    
C5    C16   1.448214 S    
N9    O25   1.301440 A    
C56   H15   1.083710 S    
C79   C83   1.393313 A    
C6    C15   1.444956 S    
C68   H36   1.081557 S    
O11   C3    1.300912 A    
N5    O18   1.301809 A    
C18   H2    1.083486 S    
C77   H41   1.083217 S    
C13   C53   1.403324 A    
C17   H1    1.083536 S    
N6    O19   1.301418 A    
C39   C63   1.473390 S    
C75   C79   1.399442 A    
C38   C62   1.474000 S    
C59   C64   1.355120 D    
C80   H44   1.083247 S    
C89   O34   1.398750 S    
C73   C85   1.480676 S    
N8    O23   1.301429 A    
O11   Zn1   1.932433 S    
C27   H28   1.083035 S    
C46   C54   1.388899 A    
C63   N8    1.444788 S    
C83   H40   1.081046 S    
C79   H43   1.083232 S    
C42   C50   1.388901 A    
C90   O36   1.398798 S    
N2    C66   1.360498 A    
C45   H21   1.083170 S    
C92   O40   1.398812 S    
N1    C65   1.360399 A    
N12   O31   1.301425 A    
C16   C56   1.403914 A    
C39   C47   1.397659 A    
O5    Zn3   1.960729 S    
C52   H11   1.083689 S    
C33   C41   1.397661 A    
C38   C46   1.397404 A    
O6    Zn4   1.960729 S    
C91   O38   1.398805 S    
C35   C43   1.397658 A    
C58   N9    1.445097 S    
C36   C44   1.397404 A    
O13   Zn4   1.932411 S    
O3    C3    1.295016 A    
N4    C84   1.360139 A    
O14   Zn3   1.932412 S    
C15   C23   1.392856 A    
C24   H8    1.083493 S    
C68   C72   1.397334 A    
C24   C32   1.387740 A    
O15   C7    1.300909 A    
C29   H30   1.083035 S    
C27   C35   1.409762 A    
C25   C33   1.409775 A    
O40   H52   1.013808 S    
O16   C8    1.299599 A    
O1    Zn1   1.960729 S    
C26   C34   1.409802 A    
C74   C78   1.399446 A    
C46   H22   1.083187 S    
C60   C63   1.355111 D    
C72   C76   1.401857 A    
C21   C29   1.387097 A    
C10   C50   1.403996 A    
O9    Zn2   1.932411 S    
O4    Zn1   1.960817 S    
C54   H13   1.083678 S    
C9    C49   1.403325 A    
C4    C9    1.444954 S    
N9    O26   1.301812 A    
C82   H37   1.080967 S    
C53   H14   1.083926 S    
C87   C92   1.494358 S    
N1    C81   1.360048 A    
C32   H31   1.082977 S    
O36   H50   1.013838 S    
C30   C38   1.409801 A    
C60   N11   1.445096 S    
C50   H9    1.083678 S    
C85   C90   1.494370 S    
C12   C52   1.403986 A    
C49   H10   1.083925 S    
C45   C53   1.389304 A    
N7    O21   1.301450 A    
C25   H26   1.083035 S    
C66   H34   1.081534 S    
C51   H12   1.083926 S    
C34   C42   1.397405 A    
Zn3   N4    2.028405 S    
C23   H7    1.083540 S    
O7    Zn4   1.960813 S    
N11   O29   1.301448 A    
O12   Zn2   1.932436 S    
C22   H6    1.083487 S    
O5    C5    1.294979 A    
C66   C70   1.397275 A    
C33   C57   1.473389 S    
C65   C69   1.397409 A    
C35   C59   1.473412 S    
O15   Zn3   1.932433 S    
C92   O39   1.223345 D    
C76   C80   1.399444 A    
C7    C14   1.448498 S    
C15   C55   1.403333 A    
O12   C4    1.299602 A    
O13   C5    1.300820 A    
O2    Zn2   1.960729 S    
O9    C1    1.300906 A    
C84   H39   1.081026 S    
C43   C51   1.389270 A    
C22   C30   1.387759 A    
C73   C77   1.399438 A    
O10   Zn1   1.932412 S    
C43   H19   1.083173 S    
N10   O27   1.301422 A    
C14   C54   1.403995 A    
C57   N10   1.444792 S    
N3    C67   1.360441 A    
C1    C12   1.448469 S    
C61   N6    1.444789 S    
C65   H33   1.081590 S    
C81   H38   1.081101 S    
C16   C24   1.393831 A    
C47   C55   1.389294 A    
C17   C25   1.387099 A    
C67   C71   1.397354 A    
C12   C20   1.393909 A    
C75   C87   1.480696 S    
C19   C27   1.387117 A    
C70   H45   1.083057 S    
C41   C49   1.389302 A    
C20   C28   1.387757 A    
C86   C89   1.494404 S    
C69   H46   1.082996 S    
O3    Zn2   1.960813 S    
C44   H20   1.083186 S    
C8    C13   1.444941 S    
C37   C45   1.397666 A    
Zn4   N3    2.028407 S    
C78   C82   1.393352 A    
C88   C91   1.494368 S    
C62   N5    1.445097 S    
C28   C36   1.409809 A    
C48   C56   1.388926 A    
O1    C1    1.295001 A    
C31   H32   1.083034 S    
C36   C60   1.474003 S    
C59   N12   1.444816 S    
C30   H29   1.082952 S    
N3    C83   1.360112 A    
O14   C6    1.299604 A    
C71   C75   1.401879 A    
N6    O20   1.301794 A    
C67   H35   1.081564 S    
C13   C21   1.392857 A    
O34   H49   1.013844 S    
C64   N7    1.445088 S    
C85   C86   1.367380 D    
C40   C64   1.473958 S    
C58   C61   1.355115 D    
C23   C31   1.387091 A    
C89   O33   1.223411 D    
C78   H42   1.083288 S    
N8    O24   1.301797 A    
C57   C62   1.355116 D    
O10   C2    1.299669 A    
O7    C7    1.295010 A    
N10   O28   1.301795 A    
C55   H16   1.083927 S    
O8    C8    1.294793 A    
C34   C58   1.474006 S    
C11   C19   1.392946 A    
C37   C61   1.473394 S    
C44   C52   1.388894 A    
C90   O35   1.223354 D    
C74   C86   1.480723 S    
N12   O32   1.301794 A    
C18   C26   1.387761 A    
N4    C68   1.360455 A    
O38   H51   1.013810 S    
O4    C4    1.294794 A    
C69   C73   1.401941 A    
C28   H27   1.082957 S    
C31   C39   1.409778 A    
C40   C48   1.397411 A    
C32   C40   1.409810 A    
C91   O37   1.223353 D    
C26   H25   1.082949 S    
C9    C17   1.392856 A    
O8    Zn3   1.960817 S    
C70   C74   1.401798 A    
C2    C11   1.445187 S    
C48   H24   1.083188 S    
C10   C18   1.393917 A    
C42   H18   1.083187 S    
N2    C82   1.360209 A    
C3    C10   1.448513 S    
C71   H48   1.083016 S    
C20   H4    1.083488 S    
C87   C88   1.367374 D    
C72   H47   1.083025 S    
C11   C51   1.403373 A    
N11   O30   1.301809 A    
O6    C6    1.294788 A    
