data_mof_unit_13757.cif
_audit_creation_date              2012-10-26T18:47:33-0400
_audit_creation_method            fapswitch 2.2
_symmetry_space_group_name_H-M    P1
_symmetry_Int_Tables_number       1
_space_group_crystal_system       triclinic
_cell_length_a                    10.813891
_cell_length_b                    12.977109
_cell_length_c                    11.667279
_cell_angle_alpha                 99.976343
_cell_angle_beta                  93.556281
_cell_angle_gamma                 89.579862
_cell_volume                      1609.43276649

loop_
_atom_site_label
_atom_site_type_symbol
_atom_type_description
_atom_site_fract_x
_atom_site_fract_y
_atom_site_fract_z
_atom_type_partial_charge
C1    C     C_R   0.497208 0.299067 0.478523 0.547870
C2    C     C_R   0.475486 0.984576 0.652341 -0.156044
C3    C     C_R   0.517103 0.123490 0.357600 -0.147327
C4    C     C_R   0.482897 0.876510 0.642400 -0.147326
C5    C     C_R   0.480162 0.139044 0.563260 -0.133955
C6    C     C_R   0.519837 0.860956 0.436740 -0.133952
C7    C     C_R   0.488558 0.031123 0.554277 0.036522
C8    C     C_R   0.511441 0.968876 0.445722 0.036523
C9    C     C_R   0.401347 0.389809 0.020597 -0.189000
C10   C     C_R   0.598653 0.610191 0.979403 -0.189000
C11   C     C_R   0.408730 0.401711 0.143037 0.032592
C12   C     C_R   0.502792 0.700933 0.521477 0.547871
C13   C     C_R   0.591270 0.598289 0.856963 0.032593
C14   C     C_R   0.539281 0.549770 0.157713 0.046262
C15   C     C_R   0.460719 0.450229 0.842287 0.046263
C16   C     C_R   0.262517 0.501126 0.500672 0.557584
C17   C     C_R   0.737483 0.498873 0.499328 0.557584
C18   C     C_R   0.534925 0.540603 0.034690 0.005286
C19   C     C_R   0.465075 0.459397 0.965310 0.005286
C20   C     C_R   0.214125 0.829414 0.422212 -0.116480
C21   C     C_R   0.785870 0.170594 0.577805 -0.116481
C22   C     C_R   0.162750 0.748880 0.469203 -0.110733
C23   C     C_R   0.871417 0.498994 0.498437 -0.000377
C24   C     C_R   0.837247 0.251123 0.530809 -0.110732
C25   C     C_R   0.124974 0.655088 0.396772 0.065048
C26   C     C_R   0.875026 0.344916 0.603234 0.065050
C27   C     C_R   0.140972 0.641909 0.275376 0.058174
C28   C     C_R   0.859031 0.358100 0.724631 0.058175
C29   C     C_R   0.195518 0.722919 0.230103 -0.093868
C30   C     C_R   0.804482 0.277095 0.769909 -0.093865
C31   C     C_R   0.231341 0.816215 0.303062 -0.118588
C32   C     C_R   0.768655 0.183798 0.696956 -0.118588
C33   C     C_R   0.930489 0.575478 0.448386 -0.037528
C34   C     C_R   0.128583 0.501006 0.501563 -0.000378
C35   C     C_R   0.069511 0.424522 0.551613 -0.037529
C36   C     C_3   0.099767 0.544710 0.191713 -0.392349
C37   C     C_3   0.900240 0.455301 0.808289 -0.392351
C38   C     C_3   0.854053 0.657671 0.397537 -0.380579
C39   C     C_3   0.145947 0.342329 0.602462 -0.380579
C40   C     C_R   0.939688 0.424431 0.550817 -0.030428
C41   C     C_R   0.060312 0.575570 0.449184 -0.030428
C42   C     C_R   0.503408 0.814396 0.534281 0.002550
C43   C     C_R   0.496592 0.185604 0.465719 0.002548
C44   C     C_R   0.524513 0.015423 0.347659 -0.156043
Cu1   Cu    Cu3+1 0.509250 0.507730 0.615930 0.929329
Cu2   Cu    Cu3+1 0.490750 0.492270 0.384070 0.929328
H1    H     H_    0.272273 0.878530 0.267114 0.110240
H2    H     H_    0.759025 0.097854 0.521629 0.126919
H3    H     H_    0.149695 0.760403 0.561855 0.103075
H4    H     H_    0.850301 0.239596 0.438156 0.103075
H5    H     H_    0.209074 0.714145 0.137697 0.102884
H6    H     H_    0.790928 0.285875 0.862315 0.102886
H7    H     H_    0.536701 0.813200 0.353282 0.113482
H8    H     H_    0.463298 0.186800 0.646718 0.113483
H9    H     H_    0.470109 0.841510 0.718652 0.127228
H10   H     H_    0.529891 0.158490 0.281348 0.127228
H11   H     H_    0.541409 0.968466 0.263864 0.098284
H12   H     H_    0.727721 0.121487 0.732907 0.110237
H13   H     H_    0.458590 0.031534 0.736136 0.098284
H14   H     H_    0.064181 0.483054 0.236052 0.139982
H15   H     H_    0.025228 0.565056 0.129745 0.110131
H16   H     H_    0.178985 0.511609 0.141583 0.136336
H17   H     H_    0.935832 0.516952 0.763946 0.139981
H18   H     H_    0.821023 0.488409 0.858416 0.136335
H19   H     H_    0.974776 0.434955 0.870260 0.110132
H20   H     H_    0.909596 0.722232 0.375990 0.129499
H21   H     H_    0.802440 0.620440 0.315962 0.140949
H22   H     H_    0.787675 0.694642 0.461125 0.127300
H23   H     H_    0.406647 0.388317 0.788277 0.104565
H24   H     H_    0.090404 0.277767 0.624008 0.129498
H25   H     H_    0.212325 0.305357 0.538875 0.127299
H26   H     H_    0.197559 0.379559 0.684038 0.140949
H27   H     H_    0.593353 0.611683 0.211723 0.104565
H28   H     H_    0.640403 0.652566 0.815378 0.123638
H29   H     H_    0.359597 0.347434 0.184622 0.123638
H30   H     H_    0.346483 0.326532 0.969700 0.078997
H31   H     H_    0.653517 0.673468 0.030300 0.078997
H32   H     H_    0.240968 0.902153 0.478392 0.126918
N1    N     N_R   0.523180 0.519350 0.790130 -0.225895
N2    N     N_R   0.476820 0.480650 0.209870 -0.225896
O1    O     O_R   0.506570 0.354460 0.582000 -0.505647
O2    O     O_R   0.493430 0.645540 0.418000 -0.505647
O3    O     O_R   0.490940 0.341410 0.386200 -0.514668
O4    O     O_R   0.509060 0.658590 0.613800 -0.514669
O5    O     O_R   0.327460 0.506540 0.597900 -0.506674
O6    O     O_R   0.672540 0.493460 0.402100 -0.506674
O7    O     O_R   0.311830 0.493480 0.402100 -0.494590
O8    O     O_R   0.688170 0.506520 0.597900 -0.494589

loop_
_geom_bond_atom_site_label_1
_geom_bond_atom_site_label_2
_ccdc_geom_bond_type
C30   C32   A    
C13   N1    A    
C27   C29   A    
C17   O8    A    
C14   C18   A    
C2    C4    A    
C2    C7    A    
C32   H12   S    
C7    C8    A    
Cu1   Cu2   S    
C15   C19   A    
C3    C43   A    
C17   C23   S    
C24   C26   A    
C18   C19   A    
C1    O1    A    
C23   C40   A    
C12   O4    A    
C34   C35   A    
C12   C42   S    
C16   C34   S    
Cu2   O2    S    
C1    C43   S    
C15   N1    A    
C38   H20   S    
C23   C33   A    
C22   C25   A    
C37   H19   S    
C16   O7    A    
C39   H26   S    
C9    H30   S    
C14   N2    A    
C21   H2    S    
C5    C43   A    
C31   H1    S    
C34   C41   A    
C36   H16   S    
C37   H17   S    
C10   H31   S    
C9    C19   A    
C24   H4    S    
C15   H23   S    
C21   C32   A    
C3    C44   A    
C17   O6    A    
C14   H27   S    
C5    H8    S    
Cu1   O8    S    
C25   C41   S    
C5    C7    A    
C2    H13   S    
C6    C8    A    
C35   C39   S    
C3    H10   S    
C44   H11   S    
C12   O2    A    
Cu1   N1    S    
C38   H21   S    
C9    C11   A    
C22   H3    S    
C20   C22   A    
C4    H9    S    
C16   O5    A    
Cu1   O4    S    
C25   C27   A    
C6    H7    S    
C36   H15   S    
C37   H18   S    
Cu2   O7    S    
C29   H5    S    
C30   H6    S    
Cu1   O1    S    
C8    C44   A    
C38   H22   S    
C36   H14   S    
C10   C13   A    
C27   C36   S    
C1    O3    A    
C26   C28   A    
C33   C38   S    
C20   H32   S    
Cu1   O5    S    
C33   C41   A    
C28   C30   A    
C35   C40   A    
C29   C31   A    
C11   H29   S    
Cu2   N2    S    
C26   C40   S    
C4    C42   A    
C28   C37   S    
C10   C18   A    
C39   H24   S    
C11   N2    A    
Cu2   O3    S    
C13   H28   S    
C6    C42   A    
C21   C24   A    
C39   H25   S    
Cu2   O6    S    
C20   C31   A    
