data_mof_unit_55398.cif
_audit_creation_date              2012-12-10T18:13:54-0500
_audit_creation_method            fapswitch 2.2
_symmetry_space_group_name_H-M    P1
_symmetry_Int_Tables_number       1
_space_group_crystal_system       triclinic
_cell_length_a                    10.721854
_cell_length_b                    9.409942
_cell_length_c                    23.513165
_cell_angle_alpha                 89.858798
_cell_angle_beta                  89.79216
_cell_angle_gamma                 89.99779
_cell_volume                      2372.26800079

loop_
_atom_site_label
_atom_site_type_symbol
_atom_type_description
_atom_site_fract_x
_atom_site_fract_y
_atom_site_fract_z
_atom_type_partial_charge
C1    C     C_R   0.259646 0.499790 0.500041 0.759232
C2    C     C_R   0.287643 0.441253 0.970242 -0.135972
C3    C     C_R   0.287721 0.437983 0.029408 -0.128582
C4    C     C_R   0.398149 0.463160 0.059749 -0.014946
C5    C     C_R   0.510424 0.490656 0.030174 -0.010964
C6    C     C_R   0.622545 0.515100 0.060474 -0.099244
C7    C     C_R   0.735611 0.535618 0.029289 -0.019539
C8    C     C_R   0.731771 0.542612 0.969685 -0.127921
C9    C     C_R   0.398587 0.461745 0.119206 0.550097
C10   C     C_R   0.614969 0.522393 0.120601 0.527772
C11   C     C_R   0.570255 0.396751 0.240707 -0.091449
C12   C     C_R   0.496405 0.500185 0.391098 0.790156
C13   C     C_R   0.566131 0.398850 0.299838 -0.217532
C14   C     C_R   0.493381 0.500005 0.328616 -0.130604
C15   C     C_R   0.421236 0.598914 0.297112 -0.040652
C16   C     C_R   0.428179 0.596642 0.237474 -0.063355
C17   C     C_R   0.501825 0.495850 0.209312 0.303031
C18   C     C_R   0.441164 0.602318 0.760538 -0.080117
C19   C     C_R   0.441957 0.601686 0.701343 -0.218295
C20   C     C_R   0.510808 0.499194 0.671347 -0.131506
C21   C     C_R   0.582734 0.397667 0.701638 -0.039064
C22   C     C_R   0.578931 0.398411 0.761304 -0.070692
C23   C     C_R   0.740110 0.499776 0.500015 0.759769
C24   C     C_R   0.508957 0.500272 0.790725 0.292309
C25   C     C_3   0.071386 0.575979 0.553679 -0.368833
C26   C     C_3   0.071254 0.344141 0.500216 -0.367420
C27   C     C_3   0.927421 0.575788 0.553717 -0.373507
C28   C     C_3   0.928508 0.344129 0.500166 -0.376252
C29   C     C_3   0.072288 0.575999 0.446294 -0.378804
C30   C     C_3   0.121708 0.499016 0.500058 0.149529
C31   C     C_3   0.878036 0.498988 0.500056 0.146267
C32   C     C_3   0.928351 0.576136 0.446330 -0.359953
C33   C     C_3   0.628421 0.083641 0.504916 -0.191412
C34   C     C_3   0.628436 0.916289 0.504822 -0.183537
C35   C     C_3   0.428466 0.083584 0.550070 -0.182687
C36   C     C_3   0.428652 0.915890 0.550133 -0.187177
C37   C     C_3   0.443153 0.083977 0.448842 -0.170822
C38   C     C_3   0.442856 0.916663 0.448919 -0.177546
C39   C     C_R   0.504155 0.499734 0.608924 0.789927
C40   C     C_R   0.617451 0.526230 0.880249 0.551330
C41   C     C_R   0.399801 0.472801 0.880437 0.549164
C42   C     C_R   0.398038 0.469508 0.940098 -0.021190
C43   C     C_R   0.509732 0.494015 0.970082 -0.014137
C44   C     C_R   0.620312 0.522215 0.939943 -0.057917
Cu1   Cu    Cu3+1 0.499860 0.642410 0.500030 0.897288
Cu2   Cu    Cu3+1 0.499860 0.357590 0.500030 0.895656
H1    H     H_    0.200712 0.421844 0.948255 0.200396
H2    H     H_    0.387103 0.680374 0.678842 0.150143
H3    H     H_    0.632426 0.321550 0.785429 0.185908
H4    H     H_    0.105614 0.687629 0.554673 0.163269
H5    H     H_    0.105787 0.286003 0.462079 0.166010
H6    H     H_    0.106048 0.522106 0.592747 0.162066
H7    H     H_    0.105035 0.286111 0.538520 0.166355
H8    H     H_    0.892302 0.521576 0.592748 0.156927
H9    H     H_    0.893967 0.285934 0.538405 0.164574
H10   H     H_    0.892951 0.687344 0.554824 0.166427
H11   H     H_    0.894775 0.286184 0.461952 0.163501
H12   H     H_    0.106732 0.687569 0.445020 0.166105
H13   H     H_    0.107382 0.521951 0.407334 0.155776
H14   H     H_    0.894106 0.687785 0.445178 0.164873
H15   H     H_    0.893711 0.522378 0.407338 0.161252
H16   H     H_    0.674738 0.122381 0.544205 0.145925
H17   H     H_    0.674970 0.876799 0.544024 0.149695
H18   H     H_    0.200626 0.416492 0.051286 0.201979
H19   H     H_    0.685492 0.122187 0.468407 0.139590
H20   H     H_    0.685333 0.878373 0.468217 0.140980
H21   H     H_    0.468844 0.120937 0.590844 0.161078
H22   H     H_    0.469404 0.878464 0.590889 0.157766
H23   H     H_    0.346113 0.124102 0.444207 0.144331
H24   H     H_    0.345566 0.877226 0.444598 0.140366
H25   H     H_    0.495511 0.120908 0.410702 0.154506
H26   H     H_    0.494625 0.879627 0.410710 0.157805
H27   H     H_    0.330717 0.123021 0.548983 0.138932
H28   H     H_    0.330991 0.876140 0.549246 0.136948
H29   H     H_    0.817808 0.559056 0.946221 0.219281
H30   H     H_    0.626750 0.317957 0.219170 0.149537
H31   H     H_    0.621332 0.322208 0.323273 0.151171
H32   H     H_    0.374329 0.671251 0.212405 0.187562
H33   H     H_    0.387586 0.682053 0.783040 0.156871
N1    N     N_R   0.508481 0.500806 0.851796 -0.464915
N2    N     N_R   0.505335 0.492602 0.148251 -0.456915
N3    N     N_3   0.500250 0.143650 0.501250 -0.124155
N4    N     N_3   0.500250 0.856350 0.501250 -0.122708
O1    O     O_R   0.317570 0.620260 0.500030 -0.599682
O2    O     O_R   0.317570 0.379740 0.500030 -0.592419
O3    O     O_R   0.499840 0.620290 0.417900 -0.595868
O4    O     O_R   0.499840 0.379710 0.417900 -0.581760
O5    O     O_R   0.682190 0.620260 0.500010 -0.593232
O6    O     O_R   0.682190 0.379740 0.500010 -0.602685
O7    O     O_R   0.499920 0.620230 0.582140 -0.578925
O8    O     O_R   0.499920 0.379770 0.582140 -0.595699
O9    O     O_2   0.722636 0.555866 0.850819 -0.522534
O10   O     O_2   0.294145 0.446612 0.851250 -0.525636
O11   O     O_2   0.292909 0.430160 0.147954 -0.527784
O12   O     O_2   0.713965 0.564394 0.151447 -0.548721
C45   C     C_2   0.667522 0.296188 0.672348 0.345276
H34   H     H_    0.694989 0.312884 0.628435 0.069408
O13   O     O_2   0.709833 0.193166 0.697395 -0.540070
C46   C     C_2   0.860638 0.539422 0.056332 0.440092
H35   H     H_    0.879308 0.479071 0.094661 0.126168
O14   O     O_2   0.946096 0.606740 0.034805 -0.535587
C47   C     C_2   0.333093 0.698820 0.325108 0.342144
H36   H     H_    0.305272 0.683502 0.369031 0.065389
O15   O     O_2   0.288521 0.798907 0.299000 -0.536987

loop_
_geom_bond_atom_site_label_1
_geom_bond_atom_site_label_2
_ccdc_geom_bond_type
C38   H24   S    
C37   H23   S    
C38   N4    S    
C41   C42   A    
C19   C20   A    
C34   H20   S    
C41   N1    A    
C27   H8    S    
C33   H19   S    
C7    C8    A    
Cu2   O6    S    
C28   H11   S    
C1    O1    A    
C29   C30   S    
C7    C46   S    
C18   C24   A    
C32   H15   S    
C29   C32   S    
C11   H30   S    
C5    C6    A    
C36   N4    S    
C15   C16   A    
C18   C19   A    
C25   H4    S    
C1    C30   S    
Cu2   N3    S    
C28   H9    S    
C35   H27   S    
C29   H13   S    
C33   H16   S    
C45   O13   D    
C23   O6    A    
C33   N3    S    
C39   O7    A    
C17   N2    S    
Cu2   O2    S    
C5    C43   A    
C21   C22   A    
Cu1   N4    S    
C39   O8    A    
C35   N3    S    
C24   N1    S    
C38   H26   S    
C1    O2    A    
C13   H31   S    
C27   C31   S    
Cu1   O5    S    
C20   C39   S    
C19   H2    S    
C18   H33   S    
Cu2   O8    S    
Cu1   Cu2   S    
C8    H29   S    
C35   C36   S    
C23   C31   S    
C43   C44   A    
C37   C38   S    
C31   C32   S    
C35   H21   S    
C45   H34   S    
C20   C21   A    
C40   N1    A    
C33   C34   S    
C40   O9    S    
C47   O15   D    
Cu1   O7    S    
C36   H28   S    
C22   H3    S    
C46   O14   D    
C12   C14   S    
C26   C30   S    
C23   O5    A    
C37   H25   S    
C22   C24   A    
C37   N3    S    
Cu1   O1    S    
C42   C43   A    
C32   H14   S    
C3    C4    A    
C26   H7    S    
Cu2   O4    S    
C25   C30   S    
C11   C17   A    
C12   O4    A    
C27   H10   S    
C28   C31   S    
C8    C44   A    
C4    C5    A    
C6    C10   A    
C36   H22   S    
C6    C7    A    
C21   C45   S    
C2    H1    S    
C25   C27   S    
C10   N2    A    
C26   C28   S    
C46   H35   S    
C12   O3    A    
C41   O10   S    
C2    C3    A    
C25   H6    S    
C26   H5    S    
C11   C13   A    
C16   C17   A    
C10   O12   S    
C2    C42   A    
C34   H17   S    
Cu1   O3    S    
C16   H32   S    
C15   C47   S    
C3    H18   S    
C47   H36   S    
C40   C44   A    
C29   H12   S    
C34   N4    S    
C14   C15   A    
C4    C9    A    
C13   C14   A    
C9    O11   S    
C9    N2    A    
