data_mof_unit_27196.cif
_audit_creation_date              2012-12-11T15:48:00-0500
_audit_creation_method            fapswitch 2.2
_symmetry_space_group_name_H-M    P1
_symmetry_Int_Tables_number       1
_space_group_crystal_system       triclinic
_cell_length_a                    6.908924
_cell_length_b                    17.610749
_cell_length_c                    19.526109
_cell_angle_alpha                 108.615926
_cell_angle_beta                  89.723116
_cell_angle_gamma                 90.76539
_cell_volume                      2251.26545449

loop_
_atom_site_label
_atom_site_type_symbol
_atom_type_description
_atom_site_fract_x
_atom_site_fract_y
_atom_site_fract_z
_atom_type_partial_charge
O1    O     O_R   0.494330 0.415710 0.413720 -0.524079
O2    O     O_R   0.819360 0.430070 0.560210 -0.547600
O3    O     O_R   0.994320 0.584290 0.586280 -0.543676
C1    C     C_R   0.650094 0.416421 0.583010 0.743642
O4    O     O_R   0.823740 0.406290 0.412670 -0.545357
O5    O     O_R   0.998730 0.560340 0.437690 -0.542982
C2    C     C_R   0.654062 0.384470 0.383744 0.737096
O6    O     O_R   0.489920 0.439660 0.562310 -0.525948
O7    O     O_3   0.662330 0.550570 0.508380 -0.347148
V1    V     V_3+5 0.935370 0.490620 0.498440 1.572485
O8    O     O_R   0.328720 0.569930 0.439790 -0.513579
C3    C     C_R   0.161116 0.587520 0.420143 0.794760
O9    O     O_R   0.324340 0.593710 0.587330 -0.512476
C4    C     C_R   0.155984 0.618401 0.614337 0.788020
V2    V     V_3+5 0.435940 0.509380 0.501560 1.645359
O10   O     O_3   0.159110 0.449430 0.491620 -0.369852
C5    C     C_R   0.292264 0.750286 0.699298 0.255853
C6    C     C_R   0.277322 0.816046 0.763562 0.249665
C7    C     C_R   0.121998 0.819790 0.812427 -0.151239
C8    C     C_R   0.977849 0.759836 0.793335 -0.132322
C9    C     C_R   0.989891 0.695899 0.728893 -0.097184
C10   C     C_R   0.147625 0.689056 0.681588 -0.148456
C11   C     C_R   0.998236 0.633352 0.326646 -0.158406
C12   C     C_R   0.156076 0.640296 0.373602 -0.126469
C13   C     C_R   0.306584 0.696653 0.374566 0.209514
C14   C     C_R   0.297144 0.743750 0.327847 0.062819
C15   C     C_R   0.138287 0.734884 0.280317 0.042710
C16   C     C_R   0.988989 0.679518 0.280011 0.042795
C17   C     C_R   0.443455 0.799825 0.327398 -0.128169
C18   C     C_R   0.432700 0.846437 0.282097 -0.106433
C19   C     C_R   0.276425 0.838472 0.234388 0.089472
C20   C     C_R   0.128620 0.781506 0.232960 0.011327
C21   C     C_R   0.971352 0.771066 0.184468 0.036223
C22   C     C_R   0.823734 0.714637 0.184482 0.271804
C23   C     C_R   0.832821 0.670273 0.232404 -0.169482
C24   C     C_R   0.266268 0.885695 0.187997 0.247190
C25   C     C_R   0.113508 0.872743 0.137051 -0.130883
C26   C     C_R   0.966828 0.816510 0.136800 -0.175838
H1    H     H_    0.883010 0.590488 0.325367 0.155856
C27   C     C_R   0.484167 0.202114 0.882128 0.239493
C28   C     C_R   0.623053 0.141734 0.875214 -0.126798
C29   C     C_R   0.767487 0.130167 0.822315 -0.119926
C30   C     C_R   0.773793 0.175332 0.774212 -0.000708
C31   C     C_R   0.628897 0.232917 0.778764 0.014829
C32   C     C_R   0.483878 0.245840 0.832530 0.054893
C33   C     C_R   0.920735 0.163482 0.721325 0.247315
C34   C     C_R   0.919985 0.207063 0.672035 0.255563
C35   C     C_R   0.773954 0.263935 0.675802 0.037153
C36   C     C_R   0.629709 0.278206 0.730088 -0.013777
C37   C     C_R   0.488060 0.338436 0.736419 0.035883
C38   C     C_R   0.335512 0.345472 0.787061 0.307037
C39   C     C_R   0.337471 0.300764 0.834391 -0.144717
C40   C     C_R   0.770509 0.307555 0.626734 -0.130555
C41   C     C_R   0.639133 0.369472 0.634231 -0.142662
C42   C     C_R   0.506365 0.388807 0.692229 0.280595
C43   C     C_R   0.788488 0.259629 0.296990 -0.164846
H2    H     H_    0.909564 0.265364 0.333433 0.181412
C44   C     C_R   0.781331 0.193754 0.233628 0.300476
C45   C     C_R   0.623683 0.183765 0.185131 -0.145771
C46   C     C_R   0.475779 0.240684 0.202878 -0.146252
C47   C     C_R   0.482868 0.306549 0.266283 0.280197
C48   C     C_R   0.640689 0.316584 0.314732 -0.150642
O11   O     O_R   0.774940 0.060470 0.937800 -0.546585
O12   O     O_R   0.440880 0.093730 0.087350 -0.526870
O13   O     O_R   0.266130 0.939630 0.062280 -0.522812
C49   C     C_R   0.610564 0.115909 0.116111 0.803366
O14   O     O_R   0.445480 0.069960 0.939820 -0.513165
O15   O     O_R   0.270770 0.915690 0.913690 -0.528061
C50   C     C_R   0.614989 0.088297 0.920993 0.784089
O16   O     O_R   0.770300 0.084410 0.086380 -0.525230
O17   O     O_3   0.602600 0.949510 0.991670 -0.369723
V3    V     V_3+5 0.329470 0.009370 0.001550 1.636303
O18   O     O_R   0.940760 0.906160 0.912560 -0.547311
C51   C     C_R   0.109665 0.885235 0.883144 0.741644
O19   O     O_R   0.936150 0.929930 0.060100 -0.541242
C52   C     C_R   0.104254 0.917701 0.084123 0.789771
V4    V     V_3+5 0.828930 0.990450 0.998310 1.587143
O20   O     O_3   0.105670 0.050490 0.008320 -0.354781
Br1   Br    Br    0.508841 0.748328 0.635661 -0.377745
H3    H     H_    0.849816 0.808055 0.098391 0.188265
Br2   Br    Br    0.606308 0.694029 0.119735 -0.512537
H4    H     H_    0.717636 0.627682 0.231865 0.172575
Br3   Br    Br    0.305762 0.230111 0.963267 -0.517316
H5    H     H_    0.872364 0.083970 0.818335 0.185995
Br4   Br    Br    0.127232 0.088542 0.716154 -0.405477
Br5   Br    Br    0.126581 0.190370 0.601583 -0.446507
H6    H     H_    0.873179 0.295332 0.582738 0.175706
Br6   Br    Br    0.399279 0.495536 0.720714 -0.470568
Br7   Br    Br    0.098548 0.402768 0.789626 -0.458059
Br8   Br    Br    0.463403 0.903343 0.779987 -0.433430
H7    H     H_    0.216965 0.307865 0.871274 0.204742
Br9   Br    Br    0.987734 0.118159 0.220215 -0.473707
H8    H     H_    0.354725 0.234923 0.166417 0.192329
Br10  Br    Br    0.276183 0.382093 0.279889 -0.532855
H9    H     H_    0.856225 0.761644 0.829032 0.159931
H10   H     H_    0.876512 0.650453 0.716753 0.168436
Br11  Br    Br    0.521394 0.713487 0.441612 -0.467719
H11   H     H_    0.569536 0.808699 0.361662 0.187517
H12   H     H_    0.551675 0.887597 0.284381 0.185013
Br12  Br    Br    0.452867 0.972207 0.199305 -0.498331

loop_
_geom_bond_atom_site_label_1
_geom_bond_atom_site_label_2
_ccdc_geom_bond_type
C31   C36   A    
O18   C51   A    
C7    C8    A    
O19   C52   A    
C40   C41   A    
C14   C15   A    
C17   C18   A    
O13   C52   A    
C17   H11   S    
C21   C26   A    
C24   C25   A    
C22   C23   A    
C45   C49   S    
O5    C3    A    
C18   C19   A    
O15   C51   A    
V2    O10   S    
C5    Br1   S    
C43   H2    S    
O14   V3    S    
C28   C29   A    
C42   Br6   S    
V3    O20   S    
C33   C34   A    
O8    V2    S    
O11   C50   A    
C16   C23   A    
C11   C12   A    
O1    V2    S    
C22   Br2   S    
O7    V1    S    
C1    O6    A    
C33   Br4   S    
C46   H8    S    
C45   C46   A    
O9    C4    A    
O16   V4    S    
C27   Br3   S    
C35   C40   A    
C23   H4    S    
C5    C6    A    
C7    C51   S    
C27   C32   A    
C38   C39   A    
C6    Br8   S    
C34   Br5   S    
C29   H5    S    
C12   C13   A    
C40   H6    S    
O4    C2    A    
C47   Br10  S    
C6    C7    A    
C32   C39   A    
C37   C38   A    
C44   C45   A    
V4    O20   S    
C18   H12   S    
C46   C47   A    
O14   C50   A    
O12   C49   A    
O2    C1    A    
C30   C31   A    
C2    C48   S    
C25   C26   A    
C34   C35   A    
O15   V3    S    
C21   C22   A    
C24   Br12  S    
C11   C16   A    
O19   V4    S    
O3    C4    A    
C13   Br11  S    
C35   C36   A    
C8    H9    S    
O6    V2    S    
O9    V2    S    
C43   C48   A    
C29   C30   A    
O2    V1    S    
O17   V4    S    
C31   C32   A    
C28   C50   S    
O11   V4    S    
C41   C42   A    
C27   C28   A    
C1    C41   S    
C15   C20   A    
O1    C2    A    
C25   C52   S    
C19   C20   A    
C37   C42   A    
O5    V1    S    
O8    C3    A    
C9    H10   S    
O13   V3    S    
C3    C12   S    
C5    C10   A    
C20   C21   A    
C4    C10   S    
C13   C14   A    
O17   V3    S    
O3    V1    S    
V1    O10   S    
C38   Br7   S    
C49   O16   A    
C26   H3    S    
C11   H1    S    
C43   C44   A    
O12   V3    S    
O7    V2    S    
C47   C48   A    
C30   C33   A    
O4    V1    S    
C8    C9    A    
C14   C17   A    
C36   C37   A    
C15   C16   A    
O18   V4    S    
C19   C24   A    
C39   H7    S    
C9    C10   A    
C44   Br9   S    
