data_mof_unit_48469.cif
_audit_creation_date              2013-03-05T16:02:01-0500
_audit_creation_method            fapswitch 2.2
_symmetry_space_group_name_H-M    P1
_symmetry_Int_Tables_number       1
_space_group_crystal_system       triclinic
_cell_length_a                    6.936537
_cell_length_b                    17.727836
_cell_length_c                    19.300794
_cell_angle_alpha                 108.426317
_cell_angle_beta                  88.627452
_cell_angle_gamma                 90.688778
_cell_volume                      2251.06098824

loop_
_atom_site_label
_atom_site_type_symbol
_atom_site_description
_atom_site_fract_x
_atom_site_fract_y
_atom_site_fract_z
_atom_type_partial_charge
O1    O     O_R   0.494330 0.415720 0.413720 -0.568899
O2    O     O_R   0.819330 0.430070 0.560210 -0.586057
O3    O     O_R   0.994320 0.584280 0.586280 -0.597192
C1    C     C_R   0.648977 0.415647 0.582107 0.919250
O4    O     O_R   0.823730 0.406300 0.412670 -0.607282
O5    O     O_R   0.998760 0.560340 0.437690 -0.589692
C2    C     C_R   0.655996 0.383574 0.384803 0.978631
O6    O     O_R   0.489890 0.439660 0.562310 -0.601747
O7    O     O_3   0.662340 0.550560 0.508380 -0.257192
V1    V     V_3+5 0.935370 0.490620 0.498450 1.212593
O8    O     O_R   0.328750 0.569930 0.439790 -0.554562
C3    C     C_R   0.162174 0.583464 0.416834 1.004992
O9    O     O_R   0.324340 0.593700 0.587330 -0.591515
C4    C     C_R   0.153825 0.614567 0.616001 0.922285
V2    V     V_3+5 0.435940 0.509380 0.501550 1.241528
O10   O     O_3   0.159100 0.449440 0.491620 -0.279745
C5    C     C_R   0.051690 0.596985 0.756225 -0.389961
C6    C     C_R   0.012863 0.584418 0.823429 0.331204
C7    C     C_R   0.024111 0.649789 0.887885 0.486924
C8    C     C_R   0.059436 0.726001 0.883802 -0.336464
C9    C     C_R   0.091267 0.739759 0.816166 0.084598
C10   C     C_R   0.093632 0.673455 0.751408 0.075437
C11   C     C_R   0.127741 0.817747 0.812909 -0.219442
C12   C     C_R   0.174813 0.828151 0.743397 -0.043910
C13   C     C_R   0.169867 0.761273 0.678629 0.062334
C14   C     C_R   0.137835 0.684155 0.683124 -0.180716
C15   C     C_R   0.230412 0.902596 0.735308 0.258047
C16   C     C_R   0.260642 0.910967 0.666272 -0.151344
C17   C     C_R   0.245227 0.846555 0.602952 0.377127
C18   C     C_R   0.200249 0.772192 0.609477 -0.306002
H1    H     H_    0.047235 0.546057 0.707314 0.183173
H2    H     H_    0.066688 0.774113 0.934839 0.154245
H3    H     H_    0.311164 0.967703 0.662710 0.222394
H4    H     H_    0.190591 0.722676 0.559639 0.147237
C19   C     C_R   0.303912 0.621952 0.310435 0.415314
C20   C     C_R   0.158199 0.630114 0.364990 -0.291722
C21   C     C_R   0.006709 0.683138 0.370549 -0.049489
C22   C     C_R   0.997926 0.729204 0.323831 0.171052
C23   C     C_R   0.142616 0.722495 0.269548 0.059143
C24   C     C_R   0.296200 0.667591 0.261264 -0.179203
C25   C     C_R   0.844999 0.782215 0.331345 -0.218250
C26   C     C_R   0.832556 0.830202 0.286284 0.311418
C27   C     C_R   0.974655 0.823654 0.230730 0.029511
C28   C     C_R   0.131172 0.770226 0.223071 0.057915
C29   C     C_R   0.275777 0.764584 0.168812 0.024726
C30   C     C_R   0.426121 0.709369 0.159369 0.344410
C31   C     C_R   0.434473 0.659912 0.203651 0.244417
C32   C     C_R   0.962716 0.867994 0.181778 -0.100164
C33   C     C_R   0.109649 0.864570 0.129819 -0.190143
C34   C     C_R   0.265476 0.813574 0.124164 -0.073929
H5    H     H_    0.896549 0.689849 0.412889 0.155705
H6    H     H_    0.735679 0.787534 0.373722 0.200319
H7    H     H_    0.840930 0.906233 0.183972 0.159402
H8    H     H_    0.376137 0.811393 0.083142 0.174782
C35   C     C_R   0.544066 0.216702 0.896333 0.320858
C36   C     C_R   0.627219 0.140264 0.874301 -0.308282
C37   C     C_R   0.711604 0.110070 0.804374 -0.020999
C38   C     C_R   0.705984 0.152672 0.753850 -0.062518
C39   C     C_R   0.630146 0.230650 0.776842 -0.010295
C40   C     C_R   0.550808 0.263051 0.848401 -0.033641
C41   C     C_R   0.776087 0.119208 0.681101 0.222225
C42   C     C_R   0.780268 0.165069 0.633050 0.209261
C43   C     C_R   0.710260 0.243774 0.656549 -0.015053
C44   C     C_R   0.632613 0.276293 0.728253 0.006595
C45   C     C_R   0.557958 0.354734 0.751478 0.048755
C46   C     C_R   0.485483 0.387079 0.823552 0.492657
C47   C     C_R   0.478419 0.341029 0.870353 -0.152230
C48   C     C_R   0.712301 0.290168 0.609120 -0.105831
C49   C     C_R   0.636997 0.367108 0.631579 -0.170737
C50   C     C_R   0.558920 0.398961 0.702240 -0.080943
H9    H     H_    0.777475 0.051951 0.789369 0.187879
H10   H     H_    0.770013 0.266828 0.553910 0.147186
H11   H     H_    0.502713 0.458889 0.718589 0.152240
H12   H     H_    0.417361 0.367650 0.924602 0.235118
H13   H     H_    0.314797 0.159613 0.431497 0.183106
C51   C     C_R   0.834808 0.389608 0.248764 -0.211453
C52   C     C_R   0.921571 0.394353 0.184298 0.560428
C53   C     C_R   0.908961 0.330803 0.120294 -0.081855
C54   C     C_R   0.809176 0.262226 0.120048 -0.155688
C55   C     C_R   0.721543 0.254961 0.184664 0.097388
C56   C     C_R   0.735315 0.319938 0.250608 0.058028
C57   C     C_R   0.618754 0.184968 0.183903 -0.250581
C58   C     C_R   0.533718 0.179270 0.249708 0.106478
C59   C     C_R   0.548852 0.243937 0.315854 0.108300
C60   C     C_R   0.647553 0.314757 0.316245 -0.251651
C61   C     C_R   0.438281 0.108830 0.251639 -0.179350
C62   C     C_R   0.358928 0.102432 0.316537 -0.001854
C63   C     C_R   0.374539 0.165253 0.381032 -0.034124
C64   C     C_R   0.468938 0.235080 0.381096 -0.189833
H14   H     H_    0.845871 0.441213 0.296814 0.180073
H15   H     H_    0.974812 0.334754 0.070103 0.204859
H16   H     H_    0.799854 0.215696 0.068143 0.147754
H17   H     H_    0.425811 0.057430 0.203465 0.125588
H18   H     H_    0.286843 0.048026 0.316888 0.167101
H19   H     H_    0.480841 0.281292 0.433141 0.114222
O11   O     O_R   0.775200 0.060470 0.937800 -0.601455
O12   O     O_R   0.441110 0.093720 0.087350 -0.591894
O13   O     O_R   0.266330 0.939630 0.062280 -0.615502
C65   C     C_R   0.609005 0.116437 0.115240 0.915293
O14   O     O_R   0.445750 0.069950 0.939820 -0.503197
O15   O     O_R   0.271000 0.915700 0.913700 -0.553935
C66   C     C_R   0.616606 0.089218 0.922163 1.073862
O16   O     O_R   0.770530 0.084400 0.086380 -0.610726
O17   O     O_3   0.602830 0.949510 0.991680 -0.268994
V3    V     V_3+5 0.329710 0.009370 0.001550 1.279944
O18   O     O_R   0.940990 0.906170 0.912570 -0.582933
C67   C     C_R   0.111442 0.886804 0.882103 0.978840
O19   O     O_R   0.936350 0.929940 0.060100 -0.592393
C68   C     C_R   0.103335 0.914934 0.081674 0.923946
V4    V     V_3+5 0.829160 0.990450 0.998310 1.236415
O20   O     O_3   0.105910 0.050480 0.008320 -0.252505
N1    N     N_R   0.288062 0.855657 0.532560 0.264888
O21   O     O_R   0.322592 0.925634 0.526439 -0.265247
O22   O     O_R   0.303733 0.793740 0.474496 -0.419919
N2    N     N_R   0.678380 0.886868 0.299663 0.236381
O23   O     O_R   0.716786 0.961267 0.308252 -0.385315
O24   O     O_R   0.507456 0.867948 0.318267 -0.382626
Cl1   Cl    Cl    0.602506 0.697687 0.088878 -0.482830
N3    N     N_R   0.578797 0.599321 0.186285 0.292744
O25   O     O_R   0.532099 0.526654 0.149402 -0.228578
O26   O     O_R   0.759978 0.619200 0.193718 -0.297091
N4    N     N_R   0.455770 0.247437 0.967622 0.203545
O27   O     O_R   0.285556 0.222505 0.980325 -0.383710
O28   O     O_R   0.534615 0.306774 0.016991 -0.383426
N5    N     N_R   0.841422 0.038282 0.655007 0.252464
O29   O     O_R   0.727004 0.980821 0.658479 -0.379442
O30   O     O_R   0.003091 0.021024 0.618161 -0.326458
N6    N     N_R   0.849451 0.130091 0.559254 0.260621
O31   O     O_R   0.009757 0.155142 0.537545 -0.384849
O32   O     O_R   0.760515 0.069139 0.515525 -0.273162
Cl2   Cl    Cl    0.409725 0.486690 0.859487 -0.525070
Cl3   Cl    Cl    0.045765 0.480570 0.183191 -0.481040
N7    N     N_R   0.965836 0.505210 0.824623 0.266624
O33   O     O_R   0.875608 0.493664 0.880272 -0.261954
O34   O     O_R   0.002637 0.443784 0.767691 -0.408594
Cl4   Cl    Cl    0.009695 0.639536 0.975734 -0.406705
N8    N     N_R   0.306222 0.964453 0.794305 0.221115
O35   O     O_R   0.484223 0.956652 0.810327 -0.421531
O36   O     O_R   0.231274 0.035091 0.811497 -0.408325
N9    N     N_R   0.456374 0.566407 0.305096 0.244069
O37   O     O_R   0.623662 0.592012 0.332001 -0.405426
O38   O     O_R   0.418699 0.490585 0.285483 -0.370595

loop_
_geom_bond_atom_site_label_1
_geom_bond_atom_site_label_2
_geom_bond_distance
_ccdc_geom_bond_type
O15   C67   1.296346 A    
C24   C31   1.425247 A    
C65   O16   1.293680 A    
C35   C36   1.411568 A    
O11   C66   1.299094 A    
C25   C26   1.400207 A    
C17   N1    1.441608 S    
C19   C20   1.416836 A    
C12   C15   1.424771 A    
C1    O6    1.295870 A    
N6    O31   1.301046 A    
N1    O22   1.300765 A    
C2    C60   1.491355 S    
C52   C53   1.387773 A    
C36   C37   1.401304 A    
N8    O36   1.301246 A    
O14   V3    1.990718 S    
C42   C43   1.412087 A    
O13   V3    1.993508 S    
O16   V4    2.005542 S    
C9    C10   1.419451 A    
C20   C21   1.397816 A    
C21   C22   1.397511 A    
N9    O38   1.301143 A    
O5    C3    1.298562 A    
C22   C23   1.411690 A    
C21   H5    1.084736 S    
O18   C67   1.307831 A    
V2    O10   2.166399 S    
C62   H18   1.082915 S    
O19   C68   1.298593 A    
C30   Cl1   1.771766 S    
C6    N7    1.444908 S    
C6    C7    1.409912 A    
C57   C65   1.490413 S    
V4    O20   2.166501 S    
O17   V3    2.157502 S    
C43   C48   1.410562 A    
O8    V2    1.999125 S    
C59   C60   1.420796 A    
C7    C8    1.396456 A    
C40   C47   1.406714 A    
C48   C49   1.397759 A    
N2    O24   1.301273 A    
C11   C12   1.440369 A    
O1    V2    1.999632 S    
C3    C20   1.486941 S    
C27   C32   1.411434 A    
C25   H6    1.084510 S    
O12   V3    2.010873 S    
C38   C41   1.416879 A    
C31   N3    1.431965 S    
C46   C47   1.395663 A    
V3    O20   1.707464 S    
C35   N4    1.434880 S    
C39   C40   1.417768 A    
O13   C68   1.296737 A    
O9    C4    1.300694 A    
C45   C50   1.410145 A    
C41   C42   1.413062 A    
O7    V1    2.157522 S    
C1    C49   1.474096 S    
O12   C65   1.299996 A    
C8    H2    1.081912 S    
N3    O26   1.300105 A    
O15   V3    2.008775 S    
C32   H7    1.081147 S    
C18   H4    1.080839 S    
C12   C13   1.426053 A    
C22   C25   1.399967 A    
C55   C57   1.419843 A    
C23   C24   1.423473 A    
O4    C2    1.298862 A    
C61   C62   1.392867 A    
C7    Cl4   1.761871 S    
C29   C30   1.407681 A    
O11   V4    1.998367 S    
C4    C14   1.482771 S    
C54   C55   1.415898 A    
C52   Cl3   1.751245 S    
C64   H19   1.081262 S    
O2    C1    1.295160 A    
C27   C28   1.423452 A    
C17   C18   1.394380 A    
C61   H17   1.081040 S    
C19   N9    1.433306 S    
C37   H9    1.081924 S    
C26   N2    1.438111 S    
C58   C59   1.425985 A    
C48   H10   1.082482 S    
C11   C67   1.502526 S    
C8    C9    1.413705 A    
C50   H11   1.082783 S    
O14   C66   1.296886 A    
C5    C6    1.403252 A    
C39   C44   1.418828 A    
C47   H12   1.081486 S    
C15   N8    1.414599 S    
C51   C52   1.395179 A    
N3    O25   1.300971 A    
N5    O30   1.299790 A    
C54   H16   1.080575 S    
O3    C4    1.289541 A    
C32   C33   1.400793 A    
C16   H3    1.083185 S    
C57   C58   1.419517 A    
O6    V2    1.997853 S    
C9    C11   1.423092 A    
C10   C14   1.415705 A    
N7    O33   1.300358 A    
C5    H1    1.081282 S    
C38   C39   1.415317 A    
C26   C27   1.417112 A    
N4    O28   1.300418 A    
O2    V1    1.990770 S    
C28   C29   1.413752 A    
C33   C68   1.479856 S    
C46   Cl2   1.762421 S    
O18   V4    1.993973 S    
C13   C18   1.418501 A    
C30   C31   1.407061 A    
C16   C17   1.389266 A    
O1    C2    1.295426 A    
C55   C56   1.425589 A    
N6    O32   1.301105 A    
C51   C56   1.417439 A    
O5    V1    1.993688 S    
O8    C3    1.298985 A    
C23   C28   1.418405 A    
C42   N6    1.435123 S    
C53   H15   1.083001 S    
N8    O35   1.299500 A    
C5    C10   1.414210 A    
C44   C45   1.419502 A    
O9    V2    1.994168 S    
C19   C24   1.430754 A    
C13   C14   1.411639 A    
C36   C66   1.483680 S    
O4    V1    2.011045 S    
C34   H8    1.081580 S    
O3    V1    2.008805 S    
V1    O10   1.707441 S    
O17   V4    1.712127 S    
C53   C54   1.390449 A    
C37   C38   1.411022 A    
N5    O29   1.301249 A    
C29   C34   1.406974 A    
N9    O37   1.299775 A    
O19   V4    1.999056 S    
N1    O21   1.301699 A    
C45   C46   1.409193 A    
O7    V2    1.714088 S    
C49   C50   1.399040 A    
C43   C44   1.416018 A    
H13   C63   1.082433 S    
C58   C61   1.416826 A    
C63   C64   1.393090 A    
C62   C63   1.388796 A    
C33   C34   1.397497 A    
C59   C64   1.416703 A    
C15   C16   1.397222 A    
N7    O34   1.302015 A    
C41   N5    1.437067 S    
N4    O27   1.300623 A    
C35   C40   1.417998 A    
C56   C60   1.420988 A    
N2    O23   1.301333 A    
C51   H14   1.080870 S    
