data_mof_unit_35333.cif
_audit_creation_date              2012-12-10T18:29:36-0500
_audit_creation_method            fapswitch 2.2
_symmetry_space_group_name_H-M    P1
_symmetry_Int_Tables_number       1
_space_group_crystal_system       triclinic
_cell_length_a                    11.550707
_cell_length_b                    15.052548
_cell_length_c                    15.415684
_cell_angle_alpha                 82.688951
_cell_angle_beta                  90.216758
_cell_angle_gamma                 104.884978
_cell_volume                      2568.11821689

loop_
_atom_site_label
_atom_site_type_symbol
_atom_type_description
_atom_site_fract_x
_atom_site_fract_y
_atom_site_fract_z
_atom_type_partial_charge
C1    C     C_R   0.485086 0.442385 0.662646 0.914469
C2    C     C_R   0.518433 0.557977 0.337734 0.927029
C3    C     C_R   0.520184 0.348124 0.933457 -0.125299
C4    C     C_R   0.651486 0.645431 0.075302 -0.106509
C5    C     C_R   0.594821 0.510203 0.959287 0.026302
C6    C     C_R   0.572354 0.483650 0.048694 0.047611
C7    C     C_R   0.543418 0.388481 0.081219 -0.247070
C8    C     C_R   0.663909 0.600831 0.930158 -0.248652
C9    C     C_R   0.519658 0.320555 0.024616 0.450597
C10   C     C_R   0.694555 0.668081 0.987371 0.462535
C11   C     C_R   0.702283 0.851056 0.618412 0.291363
C12   C     C_R   0.307897 0.150857 0.372775 0.293517
C13   C     C_R   0.659117 0.758280 0.606684 0.435111
C14   C     C_R   0.342914 0.241812 0.391629 0.433338
C15   C     C_R   0.509894 0.793123 0.511822 -0.189251
C16   C     C_R   0.493498 0.207803 0.485466 -0.169383
C17   C     C_R   0.545099 0.887675 0.524977 -0.060048
C18   C     C_R   0.465016 0.114923 0.466896 -0.059008
C19   C     C_R   0.641536 0.915310 0.581121 -0.013821
C20   C     C_R   0.371538 0.087819 0.408166 -0.008690
C21   C     C_R   0.488787 0.955271 0.484252 0.138058
C22   C     C_R   0.524845 0.048305 0.504908 0.138711
C23   C     C_R   0.718193 0.501353 0.500246 0.898038
C24   C     C_R   0.281813 0.498652 0.499756 0.891379
C25   C     C_R   0.619492 0.071649 0.562729 -0.252956
C26   C     C_R   0.398717 0.933083 0.422800 -0.256848
C27   C     C_R   0.676972 0.006651 0.599307 -0.178726
C28   C     C_R   0.341866 0.998100 0.385529 -0.181383
C29   C     C_1   0.839512 0.503429 0.500750 -0.156045
C30   C     C_1   0.160502 0.496602 0.499227 -0.162983
C31   C     C_1   0.941217 0.501788 0.500384 0.005320
C32   C     C_1   0.058804 0.498262 0.499580 0.003311
C33   C     C_R   0.491413 0.408945 0.755995 -0.233853
C34   C     C_R   0.551176 0.593512 0.246003 -0.224928
C35   C     C_R   0.489294 0.283170 0.872871 0.499962
C36   C     C_R   0.672020 0.711742 0.135401 0.527114
C37   C     C_R   0.476733 0.314478 0.784585 -0.408896
C38   C     C_R   0.628317 0.681710 0.222618 -0.441098
C39   C     C_R   0.520540 0.473163 0.816358 0.465672
C40   C     C_R   0.518714 0.533935 0.183187 0.435043
C41   C     C_R   0.549536 0.444371 0.901958 -0.140868
C42   C     C_R   0.582958 0.553259 0.103394 -0.134013
H1    H     H_    0.652915 0.140105 0.580854 0.136832
H2    H     H_    0.370158 0.865963 0.400968 0.139387
H3    H     H_    0.654835 0.726515 0.272684 0.181948
H4    H     H_    0.452857 0.264215 0.738821 0.197028
H5    H     H_    0.543215 0.366211 0.150815 0.202104
H6    H     H_    0.699798 0.618640 0.863672 0.234937
H7    H     H_    0.749441 0.028508 0.643065 0.180490
H8    H     H_    0.273209 0.977100 0.338724 0.184257
H9    H     H_    0.561313 0.234324 0.530231 0.162162
H10   H     H_    0.438700 0.765779 0.469828 0.167752
N1    N     N_R   0.566020 0.731700 0.552730 -0.154017
N2    N     N_R   0.433980 0.268300 0.447270 -0.149195
O1    O     O_R   0.466720 0.383110 0.605620 -0.635573
O2    O     O_R   0.533280 0.616890 0.394380 -0.638411
O3    O     O_R   0.509090 0.531900 0.639510 -0.513571
O4    O     O_R   0.490910 0.468100 0.360490 -0.527370
O5    O     O_R   0.644370 0.425610 0.483050 -0.626774
O6    O     O_R   0.355630 0.574390 0.516950 -0.629499
O7    O     O_R   0.686740 0.574390 0.516930 -0.564617
O8    O     O_R   0.313260 0.425610 0.483070 -0.557532
Zn1   Zn    Zn3+2 0.471710 0.400660 0.477370 0.995138
Zn2   Zn    Zn3+2 0.528290 0.599340 0.522630 0.987699
O9    O     O_3   0.496676 0.227862 0.058732 -0.585725
C43   C     C_3   0.381463 0.199130 0.099724 0.160738
H11   H     H_    0.312131 0.215374 0.054313 0.141749
H12   H     H_    0.379321 0.232784 0.159732 0.174609
C44   C     C_3   0.349693 0.094767 0.126588 -0.762426
H13   H     H_    0.415606 0.076272 0.173518 0.246362
H14   H     H_    0.258919 0.071245 0.158289 0.235559
H15   H     H_    0.350041 0.058746 0.068095 0.259897
O10   O     O_3   0.772671 0.753136 0.958426 -0.555821
C45   C     C_3   0.713175 0.806362 0.901013 0.140606
H16   H     H_    0.635535 0.819367 0.935285 0.125556
H17   H     H_    0.681511 0.771739 0.842477 0.174303
C46   C     C_3   0.800369 0.899150 0.869179 -0.719114
H18   H     H_    0.877808 0.887815 0.833898 0.284445
H19   H     H_    0.754940 0.942250 0.824288 0.204495
H20   H     H_    0.834327 0.936641 0.925290 0.245817
O11   O     O_3   0.418959 0.459119 0.197785 -0.581593
C47   C     C_3   0.317693 0.484725 0.160772 0.172978
H21   H     H_    0.339195 0.550188 0.113796 0.090133
H22   H     H_    0.260232 0.494510 0.214524 0.176840
C48   C     C_3   0.246083 0.407581 0.112086 -0.822437
H23   H     H_    0.222813 0.340561 0.155689 0.293255
H24   H     H_    0.162072 0.424224 0.088791 0.208464
H25   H     H_    0.299147 0.400734 0.054571 0.223648
O12   O     O_3   0.514625 0.563872 0.793079 -0.574254
C49   C     C_3   0.398527 0.570475 0.814148 0.111743
H26   H     H_    0.379354 0.553921 0.886012 0.128571
H27   H     H_    0.329178 0.522906 0.779329 0.127796
C50   C     C_3   0.390518 0.669186 0.785763 -0.790522
H28   H     H_    0.408397 0.687532 0.714115 0.267128
H29   H     H_    0.299434 0.675356 0.801569 0.205599
H30   H     H_    0.457242 0.718310 0.820520 0.228935
O13   O     O_3   0.464581 0.188862 0.900017 -0.573285
C51   C     C_3   0.563034 0.156580 0.876303 0.163155
H31   H     H_    0.647729 0.196018 0.903296 0.143807
H32   H     H_    0.573341 0.162344 0.803854 0.116790
C52   C     C_3   0.541923 0.054962 0.913390 -0.829145
H33   H     H_    0.457407 0.013590 0.888516 0.255112
H34   H     H_    0.617426 0.028300 0.893189 0.193259
H35   H     H_    0.535841 0.047103 0.985961 0.268092
O14   O     O_3   0.742595 0.801449 0.109037 -0.558555
C53   C     C_3   0.708544 0.868986 0.152044 0.098189
H36   H     H_    0.751150 0.872622 0.216742 0.146148
H37   H     H_    0.609275 0.854445 0.160497 0.128571
C54   C     C_3   0.752605 0.963701 0.098190 -0.825171
H38   H     H_    0.706702 0.964442 0.034885 0.244476
H39   H     H_    0.732059 0.017586 0.134034 0.216939
H40   H     H_    0.850998 0.980125 0.085968 0.264041
Cl1   Cl    Cl    0.264877 0.320059 0.343317 -0.582931
Cl2   Cl    Cl    0.729223 0.677653 0.661873 -0.565861
O15   O     O_3   0.803075 0.878268 0.667166 -0.604117
C55   C     C_3   0.904783 0.904604 0.609756 0.114191
H41   H     H_    0.899142 0.962996 0.559026 0.121654
H42   H     H_    0.914507 0.845082 0.576795 0.169515
C56   C     C_3   0.016700 0.936583 0.661582 -0.824464
H43   H     H_    0.027140 0.879047 0.711174 0.270764
H44   H     H_    0.096857 0.958408 0.616733 0.205322
H45   H     H_    0.010001 0.996259 0.695085 0.248149
O16   O     O_3   0.215057 0.125217 0.316457 -0.605386
C57   C     C_3   0.106837 0.090013 0.366338 0.114711
H46   H     H_    0.085734 0.144589 0.401249 0.173944
H47   H     H_    0.111318 0.029737 0.415154 0.120270
C58   C     C_3   0.005085 0.057588 0.305459 -0.823182
H48   H     H_    0.022862 0.002121 0.270458 0.249450
H49   H     H_    0.919446 0.029762 0.343913 0.200999
H50   H     H_    0.996676 0.116524 0.256785 0.269884

loop_
_geom_bond_atom_site_label_1
_geom_bond_atom_site_label_2
_ccdc_geom_bond_type
C43   H12   S    
C21   C26   A    
C4    C36   A    
C50   H28   S    
O7    Zn2   S    
O10   C45   S    
C16   H9    S    
C25   H1    S    
C8    H6    S    
O13   C51   S    
C26   H2    S    
O16   C57   S    
C39   C41   A    
C46   H18   S    
C23   O5    A    
C11   C19   A    
C33   C39   A    
C45   H17   S    
O3    Zn2   S    
C47   C48   S    
C34   C40   A    
C15   N1    A    
C50   H30   S    
C35   C37   A    
C54   H39   S    
C5    C6    A    
C53   H37   S    
C10   O10   S    
C48   H25   S    
C43   C44   S    
C53   H36   S    
O15   C55   S    
C55   H41   S    
C15   C17   A    
C44   H14   S    
N2    Zn1   S    
C38   H3    S    
C17   C19   A    
C28   H8    S    
C22   C25   A    
O1    Zn1   S    
O2    Zn2   S    
C19   C27   A    
C13   Cl2   S    
C2    C34   S    
C56   H44   S    
C43   H11   S    
C52   H34   S    
C34   C38   A    
C21   C22   A    
C26   C28   A    
O11   C47   S    
C13   N1    A    
C46   H19   S    
C45   H16   S    
C48   H24   S    
C1    C33   S    
C52   H33   S    
C54   H40   S    
O12   C49   S    
C20   C28   A    
C48   H23   S    
C45   C46   S    
C33   C37   A    
C7    H5    S    
C44   H15   S    
C58   H49   S    
O8    Zn1   S    
C3    C9    A    
C1    O3    A    
C49   H27   S    
C31   C32   S    
C3    C35   A    
C24   O6    A    
C12   C20   A    
C9    O9    S    
C15   H10   S    
C57   C58   S    
C16   C18   A    
C14   N2    A    
C12   C14   A    
C51   H31   S    
C52   H35   S    
C47   H22   S    
C4    C10   A    
C58   H48   S    
C14   Cl1   S    
C23   C29   S    
C11   O15   S    
C49   C50   S    
C57   H47   S    
C46   H20   S    
O4    Zn1   S    
C7    C9    A    
C5    C41   A    
C3    C41   A    
C24   O8    A    
C36   O14   S    
C18   C22   A    
C56   H45   S    
C40   O11   S    
C5    C8    A    
C56   H43   S    
C2    O4    A    
C6    C7    A    
C25   C27   A    
C51   C52   S    
O14   C53   S    
O5    Zn1   S    
C55   C56   S    
O6    Zn2   S    
C16   N2    A    
C36   C38   A    
C1    O1    A    
C58   H50   S    
C29   C31   T    
C2    O2    A    
C54   H38   S    
C30   C32   T    
C11   C13   A    
C49   H26   S    
C50   H29   S    
C12   O16   S    
C4    C42   A    
C40   C42   A    
N1    Zn2   S    
C55   H42   S    
C18   C20   A    
O9    C43   S    
C44   H13   S    
C51   H32   S    
C24   C30   S    
C23   O7    A    
C8    C10   A    
C47   H21   S    
C6    C42   A    
C37   H4    S    
C35   O13   S    
C39   O12   S    
C27   H7    S    
C57   H46   S    
C53   C54   S    
C17   C21   A    
