data_mof_unit_8380.cif
_audit_creation_date              2012-12-10T20:34:49-0500
_audit_creation_method            fapswitch 2.2
_symmetry_space_group_name_H-M    P1
_symmetry_Int_Tables_number       1
_space_group_crystal_system       triclinic
_cell_length_a                    10.644549
_cell_length_b                    10.714511
_cell_length_c                    9.848545
_cell_angle_alpha                 89.738596
_cell_angle_beta                  89.990548
_cell_angle_gamma                 90.356386
_cell_volume                      1123.20431875

loop_
_atom_site_label
_atom_site_type_symbol
_atom_type_description
_atom_site_fract_x
_atom_site_fract_y
_atom_site_fract_z
_atom_type_partial_charge
C1    C     C_R   0.503053 0.260245 0.500004 0.919819
C2    C     C_3   0.878739 0.499526 0.498783 0.052317
C3    C     C_3   0.928548 0.624284 0.559041 0.363024
C4    C     C_3   0.928447 0.484294 0.351201 -0.354963
C5    C     C_R   0.549649 0.062677 0.612982 0.121167
C6    C     C_R   0.516375 0.129032 0.497022 -0.166938
C7    C     C_R   0.498417 0.066812 0.373705 -0.340070
C8    C     C_R   0.488803 0.938340 0.372729 0.444143
C9    C     C_R   0.507206 0.872237 0.495659 -0.230211
C10   C     C_R   0.545603 0.935442 0.611969 0.061377
C11   C     C_3   0.498934 0.928052 0.754993 -0.454245
C12   C     C_R   0.257536 0.498650 0.499712 0.879540
C13   C     C_3   0.503724 0.069656 0.756164 -0.455690
C14   C     C_R   0.437467 0.408792 0.071770 0.216589
C15   C     C_R   0.570942 0.583172 0.071620 -0.112667
C16   C     C_R   0.570892 0.583226 0.927502 -0.143897
C17   C     C_R   0.437705 0.408555 0.929047 0.227867
C18   C     C_3   0.300296 0.381655 0.923446 -0.537447
C19   C     C_3   0.299961 0.382908 0.077320 -0.512876
C20   C     C_R   0.498688 0.740062 0.499249 0.916725
C21   C     C_R   0.742344 0.499442 0.499714 0.891035
C22   C     C_3   0.070780 0.383245 0.581107 0.358977
C23   C     C_3   0.926326 0.388341 0.585663 -0.544207
C24   C     C_3   0.073406 0.620145 0.563525 -0.566806
C25   C     C_3   0.070949 0.490187 0.350644 -0.372634
C26   C     C_3   0.120936 0.497518 0.498757 0.062535
H1    H     H_    0.105860 0.391616 0.687817 0.045472
H2    H     H_    0.891800 0.559052 0.283253 0.211122
H3    H     H_    0.114291 0.702044 0.508718 0.197133
H4    H     H_    0.480432 0.116892 0.279897 0.189016
H5    H     H_    0.402020 0.889262 0.762554 0.197343
H6    H     H_    0.568669 0.884676 0.824366 0.200342
H7    H     H_    0.409644 0.112855 0.765420 0.191959
H8    H     H_    0.576372 0.107763 0.825932 0.200096
H9    H     H_    0.626082 0.651935 0.125794 0.174814
H10   H     H_    0.626238 0.651819 0.872650 0.140284
H11   H     H_    0.245794 0.459486 0.877907 0.214162
H12   H     H_    0.279714 0.287911 0.881036 0.177274
H13   H     H_    0.246407 0.462474 0.119337 0.206169
H14   H     H_    0.278423 0.290361 0.123531 0.200781
H15   H     H_    0.884909 0.299282 0.547833 0.204780
H16   H     H_    0.895318 0.398616 0.693010 0.146228
H17   H     H_    0.105174 0.626422 0.671007 0.139631
H18   H     H_    0.892314 0.631925 0.665364 0.047127
H19   H     H_    0.102366 0.573602 0.291445 0.175527
H20   H     H_    0.107496 0.405772 0.298896 0.208490
H21   H     H_    0.896699 0.393083 0.309024 0.177142
N1    N     N_R   0.499150 0.499140 0.142800 -0.119456
N2    N     N_R   0.499150 0.499180 0.857150 -0.107658
O1    O     O_R   0.500020 0.316790 0.614690 -0.626695
O2    O     O_R   0.500000 0.316760 0.385350 -0.623893
O3    O     O_R   0.314800 0.500000 0.614670 -0.644238
O4    O     O_R   0.314790 0.499960 0.385330 -0.629737
O5    O     O_R   0.500000 0.683240 0.614650 -0.628414
O6    O     O_R   0.499980 0.683210 0.385310 -0.562132
O7    O     O_R   0.685210 0.500040 0.614670 -0.641963
O8    O     O_R   0.685200 0.500000 0.385330 -0.623611
Zn1   Zn    Zn3+2 0.500010 0.500020 0.653130 0.926368
Zn2   Zn    Zn3+2 0.499990 0.499980 0.346870 0.957583
O9    O     O_3   0.888400 0.724891 0.475580 -0.606076
C27   C     C_3   0.872409 0.834329 0.552696 0.069746
H22   H     H_    0.958751 0.857191 0.611616 0.133680
H23   H     H_    0.791788 0.822851 0.623691 0.142506
C28   C     C_3   0.844786 0.942499 0.456855 -0.797465
H24   H     H_    0.758102 0.922830 0.398131 0.263479
H25   H     H_    0.832023 0.029683 0.515714 0.208229
H26   H     H_    0.923501 0.955548 0.384129 0.250135
O10   O     O_3   0.459295 0.878904 0.252250 -0.589956
C29   C     C_3   0.327529 0.880143 0.234877 0.124869
H27   H     H_    0.295130 0.976339 0.210844 0.129815
H28   H     H_    0.277535 0.845105 0.327257 0.123938
C30   C     C_3   0.292283 0.795415 0.117180 -0.819301
H29   H     H_    0.318876 0.697742 0.141062 0.265011
H30   H     H_    0.189298 0.798855 0.099699 0.193623
H31   H     H_    0.341610 0.826131 0.023291 0.251795
O11   O     O_3   0.107960 0.271018 0.516418 -0.607392
C31   C     C_3   0.164200 0.188351 0.609752 0.092179
H32   H     H_    0.100952 0.169319 0.697695 0.131932
H33   H     H_    0.254532 0.228451 0.645950 0.148891
C32   C     C_3   0.191051 0.065588 0.539195 -0.873277
H34   H     H_    0.246722 0.082954 0.445845 0.257549
H35   H     H_    0.244054 0.002728 0.607931 0.208686
H36   H     H_    0.101803 0.019277 0.510619 0.253895

loop_
_geom_bond_atom_site_label_1
_geom_bond_atom_site_label_2
_ccdc_geom_bond_type
C8    C9    A    
O6    Zn2   S    
C29   C30   S    
C22   O11   S    
C4    C25   S    
O4    Zn2   S    
C7    C8    A    
C31   H32   S    
C21   O8    A    
C23   H16   S    
C19   H13   S    
C18   H11   S    
C24   C26   S    
C20   O6    A    
O5    Zn1   S    
C5    C6    A    
O8    Zn2   S    
C15   C16   A    
C29   H28   S    
C18   C19   S    
C27   H23   S    
C24   H3    S    
C12   O3    A    
O10   C29   S    
C1    O1    A    
C5    C13   S    
C12   O4    A    
C3    O9    S    
C11   H5    S    
C7    H4    S    
C14   C17   A    
C3    C24   S    
C29   H27   S    
C15   N1    A    
C30   H31   S    
C15   H9    S    
C4    H2    S    
C31   H33   S    
C3    H18   S    
C1    C6    S    
O1    Zn1   S    
C28   H26   S    
C16   N2    A    
C20   O5    A    
C10   C11   S    
C17   N2    A    
C32   H34   S    
C14   N1    A    
C25   C26   S    
N2    Zn1   S    
C12   C26   S    
O9    C27   S    
C28   H25   S    
C27   C28   S    
C2    C4    S    
C13   H7    S    
C9    C20   S    
C2    C21   S    
C17   C18   S    
O11   C31   S    
C1    O2    A    
O3    Zn1   S    
C30   H30   S    
C11   H6    S    
C8    O10   S    
C22   H1    S    
O2    Zn2   S    
C25   H19   S    
N1    Zn2   S    
C32   H36   S    
C9    C10   A    
C31   C32   S    
C14   C19   S    
C30   H29   S    
C21   O7    A    
C6    C7    A    
C23   H15   S    
C28   H24   S    
C2    C3    S    
C18   H12   S    
C5    C10   A    
C16   H10   S    
C11   C13   S    
C32   H35   S    
O7    Zn1   S    
C27   H22   S    
C19   H14   S    
C13   H8    S    
C22   C26   S    
C2    C23   S    
C24   H17   S    
C22   C23   S    
C25   H20   S    
C4    H21   S    
