data_mof_unit_29830.cif
_audit_creation_date              2012-12-10T17:51:24-0500
_audit_creation_method            fapswitch 2.2
_symmetry_space_group_name_H-M    P1
_symmetry_Int_Tables_number       1
_space_group_crystal_system       triclinic
_cell_length_a                    14.785373
_cell_length_b                    14.9396
_cell_length_c                    17.338894
_cell_angle_alpha                 107.637849
_cell_angle_beta                  73.909314
_cell_angle_gamma                 115.744669
_cell_volume                      3240.00524397

loop_
_atom_site_label
_atom_site_type_symbol
_atom_type_description
_atom_site_fract_x
_atom_site_fract_y
_atom_site_fract_z
_atom_type_partial_charge
C1    C     C_R   0.118767 0.687725 0.514960 0.818312
C2    C     C_R   0.881230 0.312375 0.487445 0.815992
C3    C     C_R   0.186366 0.795573 0.529891 -0.049754
C4    C     C_R   0.813818 0.205126 0.485324 -0.048718
C5    C     C_R   0.214138 0.973284 0.582616 -0.196555
C6    C     C_R   0.786343 0.027696 0.460992 -0.196546
C7    C     C_R   0.147697 0.872170 0.564723 -0.200480
C8    C     C_R   0.852544 0.128539 0.461997 -0.198068
C9    C     C_R   0.291709 0.821136 0.512880 -0.209291
C10   C     C_R   0.708835 0.179983 0.509113 -0.227990
C11   C     C_R   0.360137 0.921842 0.533660 0.079876
C12   C     C_R   0.640482 0.079278 0.509717 0.083829
C13   C     C_R   0.319764 0.998662 0.567292 0.166104
C14   C     C_R   0.680795 0.002380 0.483485 0.162122
C15   C     C_R   0.467337 0.948332 0.520259 0.066111
C16   C     C_R   0.533243 0.052750 0.532679 0.069563
C17   C     C_R   0.489730 0.126949 0.568063 -0.219976
C18   C     C_R   0.510746 0.874052 0.496128 -0.216886
C19   C     C_R   0.385024 0.100004 0.585422 -0.227164
C20   C     C_R   0.615461 0.900970 0.479154 -0.229731
C21   C     C_R   0.309862 0.359842 0.339832 -0.316978
C22   C     C_R   0.722535 0.687943 0.626910 -0.320184
C23   C     C_R   0.989813 0.503386 0.652297 0.804517
C24   C     C_R   0.008877 0.494617 0.347537 0.809045
C25   C     C_R   0.219269 0.375288 0.371817 0.043172
C26   C     C_R   0.797553 0.649035 0.610859 0.042906
C27   C     C_R   0.286610 0.488149 0.491181 0.127647
C28   C     C_R   0.711798 0.510410 0.510439 0.129350
C29   C     C_R   0.384093 0.481683 0.458172 -0.089453
C30   C     C_R   0.637754 0.551852 0.519345 -0.089064
C31   C     C_R   0.392234 0.412602 0.382459 0.165964
C32   C     C_R   0.642576 0.639734 0.581694 0.163417
C33   C     C_R   0.473049 0.538736 0.497452 0.067091
C34   C     C_R   0.557967 0.508831 0.470505 0.066620
C35   C     C_R   0.564452 0.445066 0.391956 -0.236182
C36   C     C_R   0.485043 0.630135 0.556814 -0.245159
C37   C     C_R   0.483375 0.398060 0.348958 -0.192886
C38   C     C_R   0.568318 0.679850 0.597515 -0.197119
C39   C     C_R   0.985628 0.505664 0.737970 -0.020270
C40   C     C_R   0.007413 0.484005 0.261310 -0.027321
C41   C     C_R   0.050733 0.473448 0.757829 -0.179742
C42   C     C_R   0.930738 0.499252 0.240484 -0.164388
C43   C     C_R   0.048625 0.476697 0.838955 -0.149229
C44   C     C_R   0.926527 0.486247 0.158821 -0.159774
C45   C     C_R   0.979630 0.510263 0.901508 0.191398
C46   C     C_R   0.999757 0.459048 0.096797 0.190835
C47   C     C_R   0.915348 0.543663 0.882012 -0.169826
C48   C     C_R   0.074748 0.441137 0.117123 -0.165575
C49   C     C_R   0.917940 0.541056 0.800584 -0.197259
C50   C     C_R   0.079021 0.454064 0.199103 -0.202059
C51   C     C_2   0.974712 0.513538 0.987759 -0.224799
C52   C     C_2   0.000522 0.450861 0.010503 -0.228119
Cu1   Cu    Cu3+1 0.916740 0.524770 0.521640 0.972028
Cu2   Cu    Cu3+1 0.083260 0.475230 0.478360 0.971300
H1    H     H_    0.103462 0.445590 0.710813 0.142798
H2    H     H_    0.873389 0.520610 0.287119 0.173991
H3    H     H_    0.534313 0.206866 0.585458 0.133846
H4    H     H_    0.465930 0.794041 0.491421 0.150158
H5    H     H_    0.491984 0.349219 0.289061 0.143687
H6    H     H_    0.573954 0.749881 0.642484 0.149113
H7    H     H_    0.861575 0.689100 0.643320 0.131135
H8    H     H_    0.157505 0.337791 0.336941 0.132990
H9    H     H_    0.316224 0.308321 0.281042 0.139738
H10   H     H_    0.728101 0.756697 0.673476 0.140394
H11   H     H_    0.634381 0.435777 0.359712 0.180603
H12   H     H_    0.434614 0.669059 0.568948 0.181827
H13   H     H_    0.138088 0.440545 0.213638 0.151843
H14   H     H_    0.867379 0.567006 0.786809 0.152069
H15   H     H_    0.027093 0.395255 0.965302 0.143619
H16   H     H_    0.948607 0.569116 0.033697 0.146219
H17   H     H_    0.862533 0.570880 0.929769 0.125010
H18   H     H_    0.131151 0.419229 0.069613 0.124893
H19   H     H_    0.865579 0.496846 0.144432 0.127340
H20   H     H_    0.102236 0.454318 0.852143 0.121612
H21   H     H_    0.354968 0.159262 0.612459 0.139051
H22   H     H_    0.645406 0.841590 0.460756 0.153522
H23   H     H_    0.681892 0.240368 0.525093 0.145642
H24   H     H_    0.318682 0.760931 0.481998 0.162394
H25   H     H_    0.933676 0.146338 0.443977 0.155329
H26   H     H_    0.066375 0.854008 0.578571 0.152210
H27   H     H_    0.182920 0.031696 0.609001 0.131580
H28   H     H_    0.817571 0.969260 0.441705 0.135232
N1    N     N_R   0.208390 0.438070 0.445820 -0.199304
N2    N     N_R   0.791610 0.561930 0.554180 -0.196937
O1    O     O_R   0.020090 0.662480 0.528530 -0.603314
O2    O     O_R   0.979910 0.337520 0.471470 -0.600826
O3    O     O_R   0.160710 0.620650 0.491980 -0.537096
O4    O     O_R   0.839290 0.379350 0.508020 -0.560286
O5    O     O_R   0.921540 0.523360 0.633990 -0.603097
O6    O     O_R   0.078460 0.476640 0.366010 -0.605454
O7    O     O_R   0.062170 0.481520 0.597440 -0.562341
O8    O     O_R   0.937830 0.518480 0.402560 -0.538296
C53   C     C_2   0.693052 0.404973 0.464753 0.379654
H29   H     H_    0.623640 0.344202 0.484325 0.028321
O9    O     O_2   0.749358 0.385684 0.401573 -0.545565
C54   C     C_2   0.264601 0.534078 0.578712 0.385551
H30   H     H_    0.269651 0.501495 0.624648 0.024427
O10   O     O_2   0.249028 0.612552 0.600276 -0.543933

loop_
_geom_bond_atom_site_label_1
_geom_bond_atom_site_label_2
_ccdc_geom_bond_type
C1    O3    A    
C15   C18   A    
C53   H29   S    
C6    H28   S    
C49   H14   S    
C29   C33   A    
C28   N2    A    
C4    C8    A    
C39   C41   A    
Cu1   Cu2   S    
C21   C31   A    
C22   C32   A    
Cu1   N2    S    
C35   C37   A    
C26   H7    S    
Cu2   O6    S    
C3    C7    A    
Cu2   O3    S    
C36   H12   S    
C27   C29   A    
C45   C51   S    
C15   C16   A    
C46   C52   S    
C33   C36   A    
C20   H22   S    
C34   C35   A    
C41   H1    S    
C52   H15   S    
C42   H2    S    
C11   C15   A    
C18   H4    S    
C12   C16   A    
C16   C17   A    
C54   O10   D    
C8    H25   S    
C23   O5    A    
C2    O4    A    
C51   H16   S    
C32   C38   A    
C50   H13   S    
C5    C13   A    
C9    H24   S    
C43   H20   S    
C40   C42   A    
C53   O9    D    
C41   C43   A    
C27   C54   S    
C42   C44   A    
C48   H18   S    
C24   O8    A    
Cu2   N1    S    
C10   H23   S    
C44   C46   A    
C45   C47   A    
C1    O1    A    
C46   C48   A    
C30   C34   A    
C51   C52   D    
C14   C20   A    
C47   C49   A    
Cu2   O2    S    
C13   C19   A    
C17   C19   A    
C6    C8    A    
C31   C37   A    
C28   C53   S    
C1    C3    S    
C2    C4    S    
C3    C9    A    
C6    C14   A    
C5    H27   S    
C54   H30   S    
Cu1   O8    S    
C33   C34   A    
C9    C11   A    
C47   H17   S    
C37   H5    S    
C10   C12   A    
C38   H6    S    
C39   C49   A    
C12   C14   A    
Cu1   O5    S    
C23   O7    A    
C4    C10   A    
C36   C38   A    
C5    C7    A    
C21   C25   A    
C26   N2    A    
C24   O6    A    
C19   H21   S    
C28   C30   A    
C43   C45   A    
C30   C32   A    
C11   C13   A    
C40   C50   A    
C48   C50   A    
C24   C40   S    
C2    O2    A    
Cu1   O4    S    
C18   C20   A    
C25   H8    S    
C44   H19   S    
C21   H9    S    
C22   H10   S    
C27   N1    A    
Cu2   O7    S    
C29   C31   A    
C22   C26   A    
C25   N1    A    
C35   H11   S    
Cu1   O1    S    
C23   C39   S    
C17   H3    S    
C7    H26   S    
