data_mof_unit_66193.cif
_audit_creation_date              2012-12-10T17:12:05-0500
_audit_creation_method            fapswitch 2.2
_symmetry_space_group_name_H-M    P1
_symmetry_Int_Tables_number       1
_space_group_crystal_system       triclinic
_cell_length_a                    21.618812
_cell_length_b                    21.668208
_cell_length_c                    22.061688
_cell_angle_alpha                 60.214055
_cell_angle_beta                  119.258691
_cell_angle_gamma                 90.4577
_cell_volume                      7439.21304349

loop_
_atom_site_label
_atom_site_type_symbol
_atom_type_description
_atom_site_fract_x
_atom_site_fract_y
_atom_site_fract_z
_atom_type_partial_charge
C1    C     C_R   0.619612 0.500692 0.499007 0.880976
C2    C     C_R   0.831423 0.375656 0.729288 0.188735
C3    C     C_R   0.890118 0.403900 0.732480 -0.196975
C4    C     C_R   0.418626 0.581338 0.337487 0.890000
C5    C     C_R   0.883391 0.458600 0.658209 0.176426
C6    C     C_R   0.819297 0.480469 0.578909 0.018724
C7    C     C_R   0.755943 0.462083 0.576430 0.016167
C8    C     C_R   0.686165 0.502245 0.498975 -0.144455
C9    C     C_R   0.679667 0.556673 0.424241 -0.079587
C10   C     C_R   0.743848 0.566768 0.425106 0.139019
C11   C     C_R   0.814450 0.522077 0.501822 -0.187355
C12   C     C_3   0.290113 0.709430 0.082285 0.191683
C13   C     C_3   0.724868 0.191247 0.029163 -0.160509
C14   C     C_3   0.678113 0.274530 0.973135 -0.157453
C15   C     C_1   0.624968 0.373883 0.751637 -0.132632
C16   C     C_R   0.379789 0.500007 0.499430 0.896306
C17   C     C_1   0.874757 0.126483 0.248343 -0.148939
C18   C     C_3   0.753519 0.208152 0.972213 -0.138883
C19   C     C_3   0.707613 0.290616 0.917841 0.189856
C20   C     C_3   0.820220 0.224945 0.026947 -0.134207
C21   C     C_3   0.790762 0.208877 0.082240 0.174142
C22   C     C_3   0.773512 0.308186 0.970988 -0.137206
C23   C     C_3   0.182583 0.738085 0.972781 -0.157259
C24   C     C_3   0.744834 0.291316 0.027883 -0.171316
C25   C     C_1   0.662092 0.336148 0.826812 -0.019237
C26   C     C_1   0.836907 0.163774 0.173202 -0.048815
C27   C     C_R   0.248997 0.629007 0.363122 -0.149002
C28   C     C_R   0.581073 0.418646 0.662535 0.910987
C29   C     C_R   0.189461 0.695074 0.304409 -0.129661
C30   C     C_R   0.130372 0.701272 0.312483 -0.137178
C31   C     C_R   0.129304 0.640406 0.377281 -0.154951
C32   C     C_R   0.187427 0.571644 0.435171 0.105924
C33   C     C_R   0.249953 0.567468 0.431053 0.068739
C34   C     C_3   0.207823 0.791634 0.917869 0.192859
C35   C     C_R   0.311894 0.501861 0.495312 -0.156750
C36   C     C_R   0.310822 0.439913 0.559833 0.141695
C37   C     C_R   0.247451 0.442617 0.560021 -0.197889
C38   C     C_R   0.186011 0.507153 0.498386 -0.148531
C39   C     C_R   0.996538 0.882887 0.494368 0.897543
C40   C     C_3   0.283430 0.732380 0.971742 -0.157354
C41   C     C_R   0.081077 0.918681 0.662584 0.890604
C42   C     C_R   0.002480 0.117686 0.504670 0.873189
C43   C     C_R   0.918958 0.081998 0.337433 0.919800
C44   C     C_R   0.007086 0.620589 0.499651 0.870337
C45   C     C_3   0.214514 0.768678 0.028445 -0.166586
C46   C     C_R   0.880362 0.509535 0.500376 0.927887
C47   C     C_R   0.999566 0.379719 0.500090 0.915736
C48   C     C_R   0.120192 0.503498 0.499590 0.886311
C49   C     C_R   0.900012 0.887408 0.337680 0.112601
C50   C     C_R   0.882557 0.896167 0.263430 -0.135263
C51   C     C_R   0.916263 0.839304 0.266780 -0.173901
C52   C     C_3   0.315350 0.762980 0.027378 -0.146035
C53   C     C_R   0.961595 0.770790 0.343627 -0.137097
C54   C     C_R   0.977916 0.759808 0.419394 0.089213
C55   C     C_R   0.956429 0.822527 0.416849 0.042876
C56   C     C_3   0.238934 0.823050 0.971891 -0.161620
C57   C     C_R   0.994141 0.817507 0.493170 -0.087991
C58   C     C_R   0.043006 0.750136 0.569888 -0.230858
C59   C     C_R   0.052096 0.685127 0.573532 -0.004075
C60   C     C_R   0.015152 0.688703 0.497841 -0.179714
C61   C     C_R   0.969456 0.131050 0.613092 -0.157211
C62   C     C_R   0.942693 0.143099 0.653640 -0.138940
C63   C     C_R   0.929481 0.212948 0.639941 -0.123870
C64   C     C_1   0.373680 0.626071 0.248422 -0.155234
C65   C     C_R   0.945782 0.270133 0.588272 -0.152963
C66   C     C_R   0.975490 0.258222 0.548827 0.065206
C67   C     C_1   0.335813 0.663817 0.173273 -0.057472
C68   C     C_R   0.983090 0.189458 0.557233 0.104859
C69   C     C_R   0.005404 0.181082 0.510475 -0.151821
C70   C     C_R   0.026975 0.236263 0.463807 -0.218131
C71   C     C_R   0.024646 0.301600 0.460008 0.144093
C72   C     C_R   0.997896 0.313158 0.501189 -0.167845
C73   C     C_1   0.125154 0.874379 0.751684 -0.174525
C74   C     C_3   0.259000 0.678026 0.028260 -0.156249
C75   C     C_1   0.102679 0.616933 0.655654 0.247420
C76   C     C_1   0.606749 0.601547 0.346140 0.228523
C77   C     C_1   0.162454 0.836997 0.826854 -0.065704
C78   C     C_R   0.763427 0.406999 0.652159 -0.206536
H1    H     H_    0.370602 0.772316 0.051448 0.154560
H2    H     H_    0.293786 0.626712 0.354424 0.139223
H3    H     H_    0.189733 0.741914 0.253264 0.136962
H4    H     H_    0.085075 0.753276 0.268293 0.135590
H5    H     H_    0.083489 0.648497 0.382375 0.129674
H6    H     H_    0.246142 0.393686 0.608659 0.190201
H7    H     H_    0.073750 0.748421 0.627361 0.142906
H8    H     H_    0.840230 0.945745 0.202785 0.157647
H9    H     H_    0.903568 0.846586 0.209258 0.148930
H10   H     H_    0.984959 0.727843 0.342725 0.143384
H11   H     H_    0.229870 0.883309 0.947124 0.143970
H12   H     H_    0.939552 0.386129 0.792913 0.183502
H13   H     H_    0.045171 0.228851 0.429305 0.186656
H14   H     H_    0.980659 0.075259 0.627593 0.152792
H15   H     H_    0.931898 0.098128 0.695583 0.143151
H16   H     H_    0.907500 0.222596 0.670350 0.150610
H17   H     H_    0.934520 0.323515 0.579444 0.148398
H18   H     H_    0.187132 0.782689 0.053384 0.138420
H19   H     H_    0.127351 0.728712 0.948753 0.145359
H20   H     H_    0.268055 0.617770 0.053016 0.147210
H21   H     H_    0.716893 0.388236 0.652135 0.161587
H22   H     H_    0.619039 0.295659 0.949409 0.154204
H23   H     H_    0.705879 0.142431 0.054771 0.158081
H24   H     H_    0.742142 0.324576 0.052358 0.149756
H25   H     H_    0.792646 0.356901 0.945474 0.161041
H26   H     H_    0.879275 0.203829 0.050604 0.162520
H27   H     H_    0.756254 0.174914 0.947727 0.161399
H28   H     H_    0.310852 0.718323 0.946866 0.146348
I1    I     I_    0.955756 0.524643 0.672312 -0.317298
I2    I     I_    0.730834 0.657236 0.311552 -0.288667
I3    I     I_    0.403853 0.341460 0.662050 -0.340218
I4    I     I_    0.816007 0.955092 0.321782 -0.329607
I5    I     I_    0.066265 0.378339 0.394163 -0.326671
I6    I     I_    0.842772 0.292163 0.841713 -0.448219
N1    N     N_1   0.143337 0.562508 0.721490 -0.177364
N2    N     N_1   0.548534 0.637306 0.283860 -0.195345
O1    O     O_R   0.591660 0.448290 0.500000 -0.624077
O2    O     O_R   0.034730 0.556800 0.569600 -0.595594
O3    O     O_R   0.873600 0.534810 0.430420 -0.588903
O4    O     O_R   0.591590 0.551700 0.500020 -0.605500
O5    O     O_R   0.943150 0.465220 0.569550 -0.616952
O6    O     O_R   0.965270 0.443220 0.430400 -0.588305
O7    O     O_R   0.034830 0.373630 0.569530 -0.622920
O8    O     O_R   0.056850 0.534790 0.430450 -0.619491
O9    O     O_R   0.126400 0.465210 0.569580 -0.622568
O10   O     O_R   0.438430 0.509910 0.376770 -0.613260
O11   O     O_R   0.438360 0.613320 0.376790 -0.622026
O12   O     O_R   0.948250 0.908380 0.499990 -0.587655
O13   O     O_R   0.408410 0.448300 0.499980 -0.590569
O14   O     O_R   0.408340 0.551710 0.500000 -0.626934
O15   O     O_R   0.561640 0.386680 0.623210 -0.601585
O16   O     O_R   0.561570 0.490090 0.623230 -0.613550
O17   O     O_R   0.051700 0.908270 0.500000 -0.621162
O18   O     O_R   0.113330 0.938270 0.623230 -0.611756
O19   O     O_R   0.009880 0.938380 0.623210 -0.624793
O20   O     O_R   0.051750 0.091470 0.500010 -0.617895
O21   O     O_R   0.948300 0.091580 0.500000 -0.627239
O22   O     O_R   0.990120 0.061470 0.376790 -0.621526
O23   O     O_R   0.886670 0.061580 0.376770 -0.588126
O24   O     O_R   0.965170 0.626380 0.430470 -0.628775
Zn1   Zn    Zn3+2 0.500040 0.430950 0.499990 1.011427
Zn2   Zn    Zn3+2 0.499960 0.569050 0.500010 0.992837
Zn3   Zn    Zn3+2 0.069070 0.999850 0.500010 0.985239
Zn4   Zn    Zn3+2 0.930930 0.000000 0.499990 1.007938
Zn5   Zn    Zn3+2 0.953560 0.546470 0.407100 1.018799
Zn6   Zn    Zn3+2 0.046440 0.453550 0.592900 1.011579

loop_
_geom_bond_atom_site_label_1
_geom_bond_atom_site_label_2
_ccdc_geom_bond_type
C66   C68   A    
O23   Zn4   S    
C63   C65   A    
C34   C56   S    
C23   C45   S    
C12   C74   S    
C27   C29   A    
C1    C8    S    
O10   Zn1   S    
C10   I2    S    
C70   H13   S    
C21   C26   S    
O16   Zn2   S    
C48   O9    A    
C41   O19   A    
C15   C28   S    
C7    C8    A    
C74   H20   S    
C54   C60   A    
C53   C54   A    
C27   C33   A    
C63   H16   S    
C2    I6    S    
O19   Zn4   S    
C37   C38   A    
C13   C18   S    
C3    H12   S    
C34   C40   S    
C17   C26   T    
C36   C37   A    
O3    Zn5   S    
C18   C19   S    
O24   Zn5   S    
C34   C77   S    
C48   O8    A    
C30   C31   A    
C47   O7    A    
C39   C57   S    
C31   H5    S    
C4    O10   A    
C28   O15   A    
C14   C24   S    
O2    Zn6   S    
O21   Zn4   S    
C66   C72   A    
C35   C36   A    
C45   C56   S    
C68   C69   A    
C71   I5    S    
O9    Zn6   S    
C76   N2    T    
C37   H6    S    
C70   C71   A    
C75   N1    T    
C9    C76   S    
C32   C38   A    
C52   H1    S    
C9    C10   A    
C28   O16   A    
O17   Zn3   S    
C61   H14   S    
C59   C60   A    
C39   O12   A    
C13   C14   S    
O5    Zn6   S    
O7    Zn6   S    
C61   C62   A    
O6    Zn5   S    
O13   Zn1   S    
O8    Zn5   S    
O4    Zn2   S    
C12   C52   S    
O11   Zn2   S    
C12   C67   S    
C64   C67   T    
C19   C22   S    
C27   H2    S    
C51   H9    S    
C6    C11   A    
C8    C9    A    
C58   C59   A    
C49   C55   A    
C41   C73   S    
O12   Zn4   S    
C42   C69   S    
C22   H25   S    
C46   O3    A    
C42   O21   A    
C51   C53   A    
C30   H4    S    
C17   C43   S    
C29   H3    S    
C62   C63   A    
C2    C78   A    
C24   H24   S    
C31   C32   A    
O15   Zn1   S    
C23   C34   S    
C50   C51   A    
C13   C21   S    
C16   O14   A    
C7    C78   A    
C4    O11   A    
C56   H11   S    
C23   H19   S    
O1    Zn1   S    
C65   C66   A    
C55   C57   A    
C22   C24   S    
C21   C24   S    
C23   C74   S    
C13   H23   S    
C58   H7    S    
C59   C75   S    
C78   H21   S    
C40   H28   S    
C5    I1    S    
O18   Zn3   S    
C54   C55   A    
C47   O6    A    
C44   O24   A    
C38   C48   S    
C14   C19   S    
C20   C22   S    
C12   C45   S    
C3    C5    A    
C41   O18   A    
C14   H22   S    
C6    C7    A    
C20   H26   S    
C4    C64   S    
C42   O20   A    
C32   C33   A    
C2    C3    A    
O14   Zn2   S    
C18   H27   S    
C71   C72   A    
C16   C35   S    
C40   C52   S    
O20   Zn3   S    
C61   C68   A    
C57   C58   A    
C5    C6    A    
C39   O17   A    
C44   C60   S    
C33   C35   A    
O22   Zn3   S    
C40   C74   S    
C46   O5    A    
C43   O23   A    
C53   H10   S    
C18   C20   S    
C1    O4    A    
C43   O22   A    
C19   C25   S    
C16   O13   A    
C69   C70   A    
C47   C72   S    
C15   C25   T    
C10   C11   A    
C50   H8    S    
C29   C30   A    
C65   H17   S    
C20   C21   S    
C44   O2    A    
C49   C50   A    
C62   H15   S    
C36   I3    S    
C73   C77   T    
C11   C46   S    
C1    O1    A    
C45   H18   S    
C52   C56   S    
C49   I4    S    
