data_mof_unit_47745.cif
_audit_creation_date              2012-12-10T16:59:12-0500
_audit_creation_method            fapswitch 2.2
_symmetry_space_group_name_H-M    P1
_symmetry_Int_Tables_number       1
_space_group_crystal_system       triclinic
_cell_length_a                    7.697945
_cell_length_b                    8.597771
_cell_length_c                    27.515372
_cell_angle_alpha                 90.420797
_cell_angle_beta                  87.572458
_cell_angle_gamma                 93.092514
_cell_volume                      1816.80222236

loop_
_atom_site_label
_atom_site_type_symbol
_atom_type_description
_atom_site_fract_x
_atom_site_fract_y
_atom_site_fract_z
_atom_type_partial_charge
Br1   Br    Br    0.248986 0.636792 0.775061 -0.315174
Br2   Br    Br    0.751230 0.364129 0.224833 -0.315423
Br3   Br    Br    0.934970 0.838672 0.866540 -0.222178
Br4   Br    Br    0.065206 0.161733 0.133479 -0.221951
Br5   Br    Br    0.140562 0.707998 0.255085 -0.334631
Br6   Br    Br    0.858893 0.291698 0.744944 -0.333790
Br7   Br    Br    0.954507 0.782271 0.983339 -0.412281
Br8   Br    Br    0.045222 0.218394 0.016701 -0.412283
C1    C     C_R   0.544746 0.794411 0.497874 0.875040
C2    C     C_R   0.512409 0.665780 0.125192 -0.064362
C3    C     C_R   0.517679 0.484670 0.647257 -0.228857
C4    C     C_R   0.482339 0.515534 0.352731 -0.228877
C5    C     C_R   0.570661 0.632715 0.024184 0.074845
C6    C     C_R   0.429020 0.368004 0.975807 0.074835
C7    C     C_R   0.380826 0.393828 0.025294 -0.027335
C8    C     C_R   0.618894 0.606875 0.974701 -0.027357
C9    C     C_R   0.462922 0.520198 0.050000 0.067675
C10   C     C_R   0.536797 0.480507 0.949994 0.067665
C11   C     C_R   0.612989 0.774755 0.047569 -0.259218
C12   C     C_R   0.455254 0.205589 0.502127 0.875189
C13   C     C_R   0.386659 0.225975 0.952420 -0.259248
C14   C     C_R   0.589505 0.791567 0.097976 0.520845
C15   C     C_R   0.410178 0.209155 0.902014 0.520795
C16   C     C_R   0.504792 0.496795 0.594213 1.007277
C17   C     C_R   0.495210 0.503238 0.405782 1.007108
C18   C     C_R   0.754560 0.695852 0.949547 0.184428
C19   C     C_R   0.245242 0.304799 0.050462 0.184394
C20   C     C_2   0.562537 0.956264 0.489973 0.211880
C21   C     C_2   0.437465 0.043736 0.510029 0.211897
C22   C     C_R   0.656428 0.578785 0.821653 0.678039
C23   C     C_R   0.563536 0.465315 0.899182 -0.167548
C24   C     C_R   0.343600 0.421799 0.178346 0.678185
C25   C     C_R   0.490849 0.335438 0.823869 0.666571
C26   C     C_R   0.509003 0.665236 0.176123 0.666594
C27   C     C_R   0.669356 0.393058 0.716648 0.200664
C28   C     C_R   0.330406 0.607016 0.283363 0.200258
C29   C     C_R   0.650929 0.398143 0.666042 0.314462
C30   C     C_R   0.348693 0.601663 0.333971 0.314373
C31   C     C_R   0.398227 0.559056 0.678685 0.328039
C32   C     C_R   0.602376 0.441933 0.321274 0.328422
C33   C     C_R   0.413082 0.546628 0.729373 0.191517
C34   C     C_R   0.436252 0.535364 0.100815 -0.167549
C35   C     C_R   0.587383 0.454363 0.270585 0.191480
C36   C     C_R   0.549914 0.466136 0.747682 0.056788
C37   C     C_R   0.450193 0.534457 0.252308 0.057058
C38   C     C_R   0.662691 0.582228 0.872734 -0.145052
C39   C     C_R   0.337224 0.418390 0.127268 -0.145024
C40   C     C_R   0.766094 0.693958 0.898467 0.311199
C41   C     C_R   0.233843 0.306629 0.101542 0.311219
C42   C     C_R   0.487355 0.334916 0.874802 -0.064348
H1    H     H_    0.014302 0.384136 0.463524 0.223744
H2    H     H_    0.308733 0.996005 0.903690 0.364628
H3    H     H_    0.762062 0.932883 0.444150 0.357385
H4    H     H_    0.237942 0.067117 0.555853 0.357355
H5    H     H_    0.985698 0.615865 0.536475 0.223715
H6    H     H_    0.662317 0.874735 0.026663 0.188952
H7    H     H_    0.337309 0.125995 0.973323 0.188976
H8    H     H_    0.205025 0.699086 0.683962 0.393302
H9    H     H_    0.799088 0.305675 0.315911 0.393471
H10   H     H_    0.168870 0.750682 0.348525 0.382059
H11   H     H_    0.829728 0.248156 0.651543 0.382008
H12   H     H_    0.690948 0.004719 0.096299 0.364616
N1    N     N_R   0.567716 0.459129 0.799036 -0.338891
N2    N     N_R   0.432286 0.541483 0.200958 -0.338882
N3    N     N_2   0.950320 0.457960 0.486880 -0.143329
N4    N     N_2   0.049680 0.542040 0.513120 -0.143330
O1    O     O_R   0.389250 0.738570 0.503220 -0.550144
O2    O     O_2   0.267972 0.305454 0.205638 -0.439270
O3    O     O_2   0.586697 0.783757 0.200957 -0.406342
O4    O     O_2   0.413089 0.216955 0.799033 -0.406577
O5    O     O_3   0.271921 0.643964 0.658455 -0.691371
O6    O     O_3   0.729214 0.357605 0.341487 -0.691399
O7    O     O_3   0.240569 0.679832 0.366145 -0.713491
O8    O     O_3   0.758555 0.319373 0.633892 -0.713535
O9    O     O_3   0.639944 0.929537 0.120818 -0.639488
O10   O     O_3   0.359739 0.071188 0.879172 -0.639548
O11   O     O_3   0.692975 0.017810 0.458042 -0.741977
O12   O     O_R   0.610750 0.261430 0.496780 -0.550124
O13   O     O_3   0.307029 0.982190 0.541960 -0.742081
O14   O     O_R   0.678390 0.711630 0.494810 -0.662999
O15   O     O_R   0.321610 0.288370 0.505190 -0.662986
O16   O     O_R   0.355440 0.513440 0.575450 -0.561550
O17   O     O_R   0.644560 0.486560 0.424550 -0.561514
O18   O     O_R   0.644590 0.486500 0.567040 -0.590348
O19   O     O_R   0.355410 0.513500 0.432960 -0.590194
O20   O     O_2   0.732192 0.695073 0.794362 -0.439249
Zn1   Zn    Zn3+2 0.306940 0.517990 0.505620 1.056094
Zn2   Zn    Zn3+2 0.693060 0.482010 0.494380 1.056054

loop_
_geom_bond_atom_site_label_1
_geom_bond_atom_site_label_2
_ccdc_geom_bond_type
C11   H6    S    
C29   O8    S    
C2    C34   A    
Br3   C40   S    
C6    C10   A    
C15   O10   S    
C39   C41   A    
C2    C14   A    
Br7   C18   S    
C6    C13   A    
C20   C21   D    
C27   C29   A    
H8    O5    S    
O16   Zn1   S    
Br5   C28   S    
H10   O7    S    
Br6   C27   S    
H1    N3    S    
C3    C29   A    
C16   O16   A    
C9    C34   A    
C32   C35   A    
C23   C38   A    
C22   O20   S    
C18   C40   A    
H9    O6    S    
C24   O2    S    
O17   Zn2   S    
C22   N1    A    
C14   O9    S    
C17   O19   A    
C12   C21   S    
O19   Zn1   S    
C36   N1    S    
C8    C18   A    
C3    C16   S    
C38   C40   A    
C5    C11   A    
C11   C14   A    
C24   N2    A    
C31   C33   A    
N4    Zn1   S    
C15   C42   A    
C25   C42   A    
C1    O14   A    
C4    C32   A    
H3    O11   S    
C1    O1    A    
C13   H7    S    
C27   C36   A    
C7    C19   A    
C21   O13   S    
Br2   C35   S    
C25   N1    A    
C26   N2    A    
C28   C37   A    
C2    C26   A    
C3    C31   A    
C20   O11   S    
C35   C37   A    
C26   O3    S    
O15   Zn1   S    
C25   O4    S    
Br1   C33   S    
C13   C15   A    
C24   C39   A    
H12   O9    S    
C23   C42   A    
H5    N4    S    
N3    Zn2   S    
H4    O13   S    
O12   Zn2   S    
C7    C9    A    
C32   O6    S    
C22   C38   A    
O18   Zn2   S    
H2    O10   S    
C12   O12   A    
H11   O8    S    
Br4   C41   S    
C37   N2    S    
O1    Zn1   S    
C5    C9    A    
C4    C17   S    
C28   C30   A    
C16   O18   A    
O14   Zn2   S    
C33   C36   A    
C34   C39   A    
C4    C30   A    
C8    C10   A    
N3    N4    D    
C5    C8    A    
C17   O17   A    
Br8   C19   S    
C31   O5    S    
C6    C7    A    
C10   C23   A    
C12   O15   A    
C19   C41   A    
C1    C20   S    
C30   O7    S    
