data_mof_unit_18012.cif
_audit_creation_date              2012-12-10T21:07:47-0500
_audit_creation_method            fapswitch 2.2
_symmetry_space_group_name_H-M    P1
_symmetry_Int_Tables_number       1
_space_group_crystal_system       triclinic
_cell_length_a                    8.569812
_cell_length_b                    17.444513
_cell_length_c                    16.889127
_cell_angle_alpha                 89.945024
_cell_angle_beta                  96.872785
_cell_angle_gamma                 92.527574
_cell_volume                      2504.25487092

loop_
_atom_site_label
_atom_site_type_symbol
_atom_type_description
_atom_site_fract_x
_atom_site_fract_y
_atom_site_fract_z
_atom_type_partial_charge
C1    C     C_R   0.496048 0.352977 0.499772 0.885077
C2    C     C_R   0.400976 0.451327 0.242672 0.313142
C3    C     C_R   0.607706 0.550930 0.837150 -0.373274
C4    C     C_R   0.410131 0.450638 0.159239 -0.310653
C5    C     C_R   0.515154 0.498695 0.876559 0.050721
C6    C     C_R   0.501598 0.505639 0.123426 0.030844
C7    C     C_1   0.514358 0.502571 0.964046 -0.019213
C8    C     C_1   0.508390 0.503937 0.036282 -0.024357
C9    C     C_R   0.201385 0.497142 0.480082 0.969864
C10   C     C_R   0.798627 0.502584 0.519931 0.980610
C11   C     C_2   0.037639 0.486994 0.471230 -0.381803
C12   C     C_R   0.497548 0.646824 0.499700 0.892718
C13   C     C_2   0.962428 0.512286 0.528886 -0.392238
C14   C     C_R   0.385278 0.841917 0.557226 0.222132
C15   C     C_R   0.421884 0.152490 0.420557 0.206656
C16   C     C_R   0.413914 0.764184 0.560336 -0.281296
C17   C     C_R   0.459668 0.230867 0.424707 -0.279726
C18   C     C_R   0.475848 0.728948 0.497518 -0.113017
C19   C     C_R   0.469893 0.269952 0.497708 -0.093307
C20   C     C_R   0.505199 0.770919 0.429781 -0.225068
C21   C     C_R   0.441449 0.230391 0.567139 -0.287076
C22   C     C_R   0.472168 0.848810 0.423642 0.212979
C23   C     C_1   0.394659 0.964002 0.488876 -0.024287
C24   C     C_R   0.403322 0.151893 0.564143 0.204367
C25   C     C_R   0.413791 0.883768 0.488922 0.018727
C26   C     C_R   0.396467 0.113111 0.490793 0.071370
C27   C     C_3   0.448502 0.912308 0.680208 -0.764860
C28   C     C_3   0.258973 0.093307 0.308805 -0.811118
C29   C     C_3   0.527511 0.854194 0.281809 -0.803242
C30   C     C_3   0.214995 0.091188 0.642278 -0.763871
C31   C     C_3   0.340113 0.377158 0.870458 -0.403000
C32   C     C_3   0.460499 0.321393 0.907641 -0.874402
C33   C     C_3   0.663418 0.630987 0.136246 -0.401962
C34   C     C_1   0.389173 0.031898 0.489664 0.009833
C35   C     C_3   0.539493 0.684757 0.098625 -0.872392
C36   C     C_3   0.123281 0.435675 0.706213 -0.808621
C37   C     C_3   0.877679 0.568126 0.298104 -0.813584
C38   C     C_3   0.688025 0.681049 0.728330 -0.794342
C39   C     C_3   0.129054 0.401894 0.236935 -0.837314
C40   C     C_R   0.419650 0.443768 0.829888 0.111071
C41   C     C_R   0.587111 0.561223 0.173173 0.111881
C42   C     C_R   0.402960 0.450057 0.744891 0.239635
C43   C     C_R   0.598537 0.552106 0.257893 0.257188
C44   C     C_R   0.602064 0.549783 0.752767 0.320854
H1    H     H_    0.979719 0.455619 0.419739 0.167059
H2    H     H_    0.524738 0.867487 0.708514 0.227169
H3    H     H_    0.393495 0.941811 0.727330 0.237104
H4    H     H_    0.521735 0.955437 0.651070 0.262190
H5    H     H_    0.485698 0.138610 0.307056 0.227833
H6    H     H_    0.194983 0.146276 0.292869 0.246926
H7    H     H_    0.192582 0.057638 0.349044 0.249626
H8    H     H_    0.265739 0.059753 0.253577 0.238621
H9    H     H_    0.435886 0.941158 0.344358 0.248751
H10   H     H_    0.538925 0.897078 0.233949 0.239256
H11   H     H_    0.427038 0.813512 0.261972 0.239465
H12   H     H_    0.020410 0.543532 0.580440 0.163554
H13   H     H_    0.639148 0.823641 0.290971 0.249559
H14   H     H_    0.434456 0.137381 0.686737 0.220996
H15   H     H_    0.206779 0.058035 0.697886 0.235192
H16   H     H_    0.162677 0.054831 0.591123 0.256391
H17   H     H_    0.146823 0.143725 0.644652 0.233100
H18   H     H_    0.527808 0.298768 0.861134 0.257250
H19   H     H_    0.543844 0.349496 0.955256 0.265595
H20   H     H_    0.398538 0.272428 0.934439 0.246316
H21   H     H_    0.271768 0.399190 0.916843 0.201609
H22   H     H_    0.256382 0.342752 0.828118 0.231936
H23   H     H_    0.386532 0.731383 0.611722 0.160436
H24   H     H_    0.462116 0.656227 0.048942 0.265770
H25   H     H_    0.466214 0.703900 0.144259 0.258356
H26   H     H_    0.598654 0.736093 0.074538 0.246620
H27   H     H_    0.741091 0.665843 0.180941 0.231171
H28   H     H_    0.737559 0.612403 0.090748 0.202708
H29   H     H_    0.294050 0.394345 0.642442 0.279975
H30   H     H_    0.034399 0.406001 0.662089 0.249744
H31   H     H_    0.123597 0.498427 0.695840 0.242413
H32   H     H_    0.087819 0.425107 0.766381 0.230487
H33   H     H_    0.705535 0.606772 0.362325 0.281878
H34   H     H_    0.479461 0.261181 0.370515 0.169886
H35   H     H_    0.965067 0.597327 0.343317 0.252862
H36   H     H_    0.913302 0.581086 0.238412 0.230691
H37   H     H_    0.879257 0.505196 0.306580 0.248815
H38   H     H_    0.819675 0.584621 0.723653 0.209660
H39   H     H_    0.746555 0.714711 0.683548 0.241310
H40   H     H_    0.744467 0.697964 0.788795 0.216299
H41   H     H_    0.562025 0.695004 0.722332 0.244395
H42   H     H_    0.298251 0.394500 0.333795 0.281757
H43   H     H_    0.051346 0.365605 0.271255 0.234946
H44   H     H_    0.116041 0.379303 0.175036 0.245830
H45   H     H_    0.552453 0.742000 0.381953 0.170237
H46   H     H_    0.090215 0.461751 0.236708 0.251604
H47   H     H_    0.446612 0.260454 0.623577 0.164455
H48   H     H_    0.686191 0.591880 0.872000 0.170199
H49   H     H_    0.342290 0.407872 0.121639 0.170139
H50   H     H_    0.248700 0.843013 0.649907 0.216866
N1    N     N_R   0.500040 0.500030 0.707230 -0.145295
N2    N     N_2   0.290602 0.399018 0.273301 -0.301608
N3    N     N_R   0.499960 0.499970 0.292770 -0.162300
N4    N     N_2   0.326945 0.877786 0.622772 -0.301032
N5    N     N_2   0.416293 0.112988 0.346366 -0.312651
N6    N     N_2   0.500719 0.892992 0.354481 -0.297840
N7    N     N_2   0.378194 0.111803 0.635407 -0.307880
N8    N     N_2   0.277734 0.407247 0.699792 -0.316790
N9    N     N_2   0.721877 0.594391 0.305052 -0.318657
N10   N     N_2   0.704129 0.600047 0.714650 -0.248747
O1    O     O_R   0.500000 0.389130 0.566570 -0.645054
O2    O     O_R   0.500000 0.610870 0.433430 -0.651297
O3    O     O_R   0.499990 0.389100 0.433480 -0.646123
O4    O     O_R   0.500010 0.610900 0.566520 -0.588153
O5    O     O_R   0.271750 0.500010 0.550980 -0.618998
O6    O     O_R   0.728250 0.499990 0.449020 -0.616724
O7    O     O_R   0.271740 0.499980 0.417890 -0.632279
O8    O     O_R   0.728260 0.500020 0.582110 -0.614428
Zn1   Zn    Zn3+2 0.500010 0.500020 0.588860 0.937653
Zn2   Zn    Zn3+2 0.499990 0.499980 0.411140 0.917549

loop_
_geom_bond_atom_site_label_1
_geom_bond_atom_site_label_2
_ccdc_geom_bond_type
C27   H4    S    
C9    O7    A    
C31   H22   S    
C27   N4    S    
C38   H39   S    
C28   H8    S    
C39   H43   S    
C44   N10   S    
C7    C8    T    
C37   H35   S    
O2    Zn2   S    
O1    Zn1   S    
C19   C21   A    
C24   C26   A    
H14   N7    S    
C28   H7    S    
C29   H10   S    
H50   N4    S    
C31   C40   S    
C31   H21   S    
C24   N7    S    
C38   N10   S    
C36   H32   S    
C33   H28   S    
C17   C19   A    
C28   H6    S    
C26   C34   S    
C35   H26   S    
C22   C25   A    
C30   H16   S    
C10   O8    A    
O6    Zn2   S    
C39   H46   S    
O5    Zn1   S    
C13   H12   S    
C40   C42   A    
C12   O4    A    
C41   C43   A    
C37   H37   S    
C39   H44   S    
C2    N3    A    
C42   N8    S    
O8    Zn1   S    
C14   N4    S    
H9    N6    S    
C9    O5    A    
C37   H36   S    
C3    C44   A    
C1    C19   S    
C22   N6    S    
C29   H13   S    
C38   H41   S    
C42   N1    A    
C32   H20   S    
C4    C6    A    
C37   N9    S    
C15   C26   A    
C6    C8    S    
C29   H11   S    
C6    C41   A    
C3    H48   S    
O4    Zn1   S    
C2    C4    A    
O3    Zn2   S    
C36   H31   S    
H5    N5    S    
C31   C32   S    
C23   C34   T    
C30   H15   S    
C16   H23   S    
C9    C11   S    
H42   N2    S    
C1    O3    A    
C28   N5    S    
H29   N8    S    
C20   C22   A    
C14   C16   A    
H33   N9    S    
C21   C24   A    
C27   H2    S    
C5    C7    S    
C21   H47   S    
C27   H3    S    
C15   C17   A    
C36   H30   S    
C29   N6    S    
C38   H40   S    
C43   N3    A    
C32   H19   S    
C15   N5    S    
C3    C5    A    
C10   C13   S    
C20   H45   S    
C33   C41   S    
C2    N2    S    
C32   H18   S    
C44   N1    A    
C12   O2    A    
C11   C13   D    
C35   H24   S    
N1    Zn1   S    
C30   N7    S    
C17   H34   S    
C33   C35   S    
C36   N8    S    
C10   O6    A    
O7    Zn2   S    
C18   C20   A    
C23   C25   S    
C14   C25   A    
C43   N9    S    
C39   N2    S    
C11   H1    S    
C33   H27   S    
C4    H49   S    
C35   H25   S    
C16   C18   A    
C30   H17   S    
C12   C18   S    
H38   N10   S    
N3    Zn2   S    
C5    C40   A    
C1    O1    A    
