data_mof_unit_25353.cif
_audit_creation_date              2012-12-10T18:59:15-0500
_audit_creation_method            fapswitch 2.2
_symmetry_space_group_name_H-M    P1
_symmetry_Int_Tables_number       1
_space_group_crystal_system       triclinic
_cell_length_a                    10.776091
_cell_length_b                    10.83568
_cell_length_c                    9.543886
_cell_angle_alpha                 90.474076
_cell_angle_beta                  89.929644
_cell_angle_gamma                 90.333191
_cell_volume                      1114.34623992

loop_
_atom_site_label
_atom_site_type_symbol
_atom_type_description
_atom_site_fract_x
_atom_site_fract_y
_atom_site_fract_z
_atom_type_partial_charge
C1    C     C_R   0.494397 0.262385 0.499060 0.771924
C2    C     C_R   0.064744 0.396734 0.580862 0.105028
C3    C     C_R   0.128713 0.486149 0.500297 -0.098169
C4    C     C_R   0.064358 0.568691 0.416200 -0.197446
C5    C     C_R   0.936488 0.568637 0.416048 -0.216513
C6    C     C_R   0.870928 0.485674 0.499526 -0.106487
C7    C     C_R   0.559660 0.066093 0.597883 0.084208
C8    C     C_R   0.492471 0.128551 0.495546 -0.114605
C9    C     C_R   0.434187 0.059294 0.385860 0.083385
C10   C     C_R   0.442735 0.930470 0.387564 -0.245763
C11   C     C_R   0.500928 0.870133 0.498363 -0.120991
C12   C     C_R   0.262523 0.495546 0.500180 0.772382
C13   C     C_R   0.563312 0.939116 0.599800 0.110080
C14   C     C_3   0.555169 0.934370 0.755753 -0.462639
C15   C     C_3   0.551014 0.074374 0.754134 -0.454908
C16   C     C_R   0.575971 0.578765 0.074227 0.262797
C17   C     C_R   0.415991 0.432454 0.073836 -0.089215
C18   C     C_R   0.416520 0.431565 0.925021 -0.073049
C19   C     C_R   0.575884 0.578843 0.926844 0.251729
C20   C     C_3   0.714151 0.583772 0.920891 -0.492329
C21   C     C_3   0.714217 0.583850 0.079762 -0.505311
C22   C     C_R   0.500394 0.737316 0.500382 0.816407
C23   C     C_R   0.737334 0.495117 0.499887 0.795690
C24   C     C_R   0.127730 0.305308 0.657901 -0.209287
C25   C     C_R   0.062119 0.216726 0.733359 -0.142728
C26   C     C_R   0.933116 0.215821 0.731762 -0.133749
C27   C     C_R   0.868948 0.303709 0.654985 -0.198285
C28   C     C_R   0.933490 0.396172 0.579890 0.096263
Cu1   Cu    Cu3+1 0.499990 0.499980 0.640670 0.929741
Cu2   Cu    Cu3+1 0.500010 0.500020 0.359330 0.934440
H1    H     H_    0.113534 0.635895 0.353114 0.150113
H2    H     H_    0.641321 0.897714 0.803512 0.188174
H3    H     H_    0.460890 0.112409 0.790935 0.197234
H4    H     H_    0.634613 0.118505 0.801324 0.191466
H5    H     H_    0.348895 0.377263 0.129245 0.141385
H6    H     H_    0.350803 0.373886 0.868947 0.134006
H7    H     H_    0.755587 0.498732 0.875234 0.226716
H8    H     H_    0.748822 0.671667 0.875621 0.189924
H9    H     H_    0.755805 0.498958 0.123873 0.225438
H10   H     H_    0.748767 0.671900 0.126294 0.187985
H11   H     H_    0.227681 0.298788 0.658040 0.134633
H12   H     H_    0.111682 0.147286 0.791549 0.127392
H13   H     H_    0.882517 0.145646 0.788685 0.127680
H14   H     H_    0.768933 0.296355 0.653097 0.152067
H15   H     H_    0.888295 0.635962 0.353114 0.146745
H16   H     H_    0.396065 0.876282 0.307198 0.155646
H17   H     H_    0.467471 0.891239 0.793347 0.204220
N1    N     N_R   0.500790 0.500930 0.147930 -0.185002
N2    N     N_R   0.500790 0.500890 0.852020 -0.185365
O1    O     O_R   0.500000 0.319640 0.618810 -0.593337
O2    O     O_R   0.500010 0.319680 0.381230 -0.581134
O3    O     O_R   0.319640 0.499980 0.618820 -0.583663
O4    O     O_R   0.319650 0.500020 0.381230 -0.581965
O5    O     O_R   0.499990 0.680320 0.618770 -0.574854
O6    O     O_R   0.500000 0.680360 0.381190 -0.584062
O7    O     O_R   0.680350 0.499980 0.618770 -0.587567
O8    O     O_R   0.680360 0.500020 0.381180 -0.579111
C29   C     C_3   0.351177 0.115118 0.274826 -0.399411
C30   C     C_3   0.231695 0.166495 0.340232 -0.333184
C31   C     C_3   0.133471 0.194197 0.229893 -0.839745
H18   H     H_    0.050728 0.234989 0.281616 0.253137
H19   H     H_    0.169405 0.260653 0.151817 0.244731
H20   H     H_    0.104720 0.107880 0.175049 0.244055
H21   H     H_    0.192097 0.098685 0.415137 0.222955
H22   H     H_    0.253288 0.252511 0.398591 0.213400
H23   H     H_    0.401793 0.186301 0.214885 0.209167
H24   H     H_    0.324803 0.043769 0.195637 0.187530

loop_
_geom_bond_atom_site_label_1
_geom_bond_atom_site_label_2
_ccdc_geom_bond_type
C25   H12   S    
C10   H16   S    
Cu2   O2    S    
C16   C21   S    
C14   H17   S    
C20   H7    S    
Cu1   O7    S    
C1    C8    S    
C20   H8    S    
C9    C10   A    
C19   N2    A    
C11   C22   S    
C12   O4    A    
C21   H9    S    
C17   N1    A    
C7    C13   A    
C10   C11   A    
C16   N1    A    
C7    C15   S    
C2    C3    A    
C26   C27   A    
C22   O6    A    
C30   C31   S    
C22   O5    A    
C25   C26   A    
Cu1   N2    S    
C13   C14   S    
C20   C21   S    
C24   H11   S    
C1    O2    A    
C30   H21   S    
Cu1   Cu2   S    
C21   H10   S    
C18   H6    S    
C16   C19   A    
C6    C23   S    
Cu2   N1    S    
C26   H13   S    
C12   O3    A    
C15   H3    S    
C1    O1    A    
C17   C18   A    
Cu1   O1    S    
C31   H20   S    
C2    C24   A    
C5    C6    A    
Cu2   O4    S    
C6    C28   A    
C11   C13   A    
C7    C8    A    
Cu1   O5    S    
C3    C4    A    
C4    H1    S    
Cu2   O8    S    
C29   H24   S    
C23   O7    A    
C24   C25   A    
C15   H4    S    
C31   H19   S    
C9    C29   S    
Cu2   O6    S    
C27   C28   A    
C23   O8    A    
C14   C15   S    
C8    C9    A    
C2    C28   A    
C3    C12   S    
C17   H5    S    
C29   C30   S    
C4    C5    A    
C5    H15   S    
C27   H14   S    
C29   H23   S    
C30   H22   S    
C19   C20   S    
C18   N2    A    
C14   H2    S    
C31   H18   S    
Cu1   O3    S    
