data_mof_unit_45238.cif
_audit_creation_date              2012-12-11T17:36:24-0500
_audit_creation_method            fapswitch 2.2
_symmetry_space_group_name_H-M    P1
_symmetry_Int_Tables_number       1
_space_group_crystal_system       triclinic
_cell_length_a                    26.468072
_cell_length_b                    6.896264
_cell_length_c                    21.25371
_cell_angle_alpha                 90.213775
_cell_angle_beta                  95.803368
_cell_angle_gamma                 90.476063
_cell_volume                      3859.399855

loop_
_atom_site_label
_atom_site_type_symbol
_atom_type_description
_atom_site_fract_x
_atom_site_fract_y
_atom_site_fract_z
_atom_type_partial_charge
O1    O     O_R   0.208650 0.594520 0.175450 -0.537721
O2    O     O_R   0.791350 0.405480 0.824550 -0.498437
O3    O     O_R   0.291350 0.094520 0.324550 -0.519714
O4    O     O_R   0.708650 0.905480 0.675450 -0.518784
O5    O     O_R   0.192980 0.260780 0.300160 -0.542151
O6    O     O_R   0.807020 0.739220 0.699840 -0.558088
O7    O     O_R   0.307020 0.760780 0.199840 -0.548554
O8    O     O_R   0.692980 0.239220 0.800160 -0.551490
C1    C     C_R   0.178724 0.432820 0.318316 0.808338
C2    C     C_R   0.821366 0.567132 0.681815 0.776931
C3    C     C_R   0.321251 0.933561 0.181712 0.797635
C4    C     C_R   0.678537 0.066673 0.818073 0.817829
O9    O     O_R   0.202550 0.264660 0.174420 -0.518470
O10   O     O_R   0.797450 0.735340 0.825580 -0.544138
O11   O     O_R   0.297450 0.764660 0.325580 -0.527133
O12   O     O_R   0.702550 0.235340 0.674420 -0.528055
O13   O     O_R   0.300990 0.096480 0.197920 -0.547705
O14   O     O_R   0.699010 0.903520 0.802080 -0.541230
O15   O     O_R   0.199010 0.596480 0.302080 -0.546616
O16   O     O_R   0.800990 0.403520 0.697920 -0.537978
C5    C     C_R   0.189424 0.433407 0.151751 0.843662
C6    C     C_R   0.811093 0.566601 0.847936 0.795740
C7    C     C_R   0.310542 0.935577 0.347799 0.848977
C8    C     C_R   0.689506 0.064426 0.652132 0.845747
O17   O     O_3   0.282290 0.427760 0.257860 -0.370652
O18   O     O_3   0.717710 0.572240 0.742140 -0.371425
O19   O     O_3   0.217710 0.927760 0.242140 -0.373906
O20   O     O_3   0.782290 0.072240 0.757860 -0.367496
V1    V     V_3+5 0.244010 0.152080 0.248540 1.613271
V2    V     V_3+5 0.755990 0.847920 0.751460 1.589280
V3    V     V_3+5 0.255990 0.652080 0.251460 1.601005
V4    V     V_3+5 0.744010 0.347920 0.748540 1.631639
C9    C     C_R   0.654316 0.047279 0.592894 -0.313071
C10   C     C_R   0.345831 0.952722 0.406918 -0.313943
C11   C     C_R   0.845234 0.565333 0.909079 -0.302816
C12   C     C_R   0.154942 0.443238 0.091215 -0.334100
C13   C     C_R   0.644595 0.969567 0.480724 -0.126117
C14   C     C_R   0.355711 0.030844 0.519029 -0.129089
C15   C     C_R   0.861315 0.686305 0.017047 -0.119992
C16   C     C_R   0.145323 0.469685 0.976503 -0.136006
C17   C     C_R   0.675099 0.032154 0.534427 0.371508
C18   C     C_R   0.325142 0.967988 0.465434 0.372625
C19   C     C_R   0.828093 0.654114 0.962860 0.391390
C20   C     C_R   0.176445 0.453345 0.033135 0.380007
C21   C     C_R   0.600888 0.019440 0.594371 0.439356
C22   C     C_R   0.399247 0.980571 0.405252 0.437949
C23   C     C_R   0.895860 0.492482 0.913572 0.432707
C24   C     C_R   0.100834 0.444053 0.090527 0.364418
C25   C     C_R   0.568881 0.005879 0.535647 -0.010037
C26   C     C_R   0.431348 0.994604 0.463907 -0.009801
C27   C     C_R   0.931795 0.550916 0.966106 -0.004431
C28   C     C_R   0.069728 0.491514 0.032861 0.000823
C29   C     C_R   0.592194 0.950639 0.481502 -0.119439
C30   C     C_R   0.408089 0.049959 0.518101 -0.117643
C31   C     C_R   0.912546 0.639100 0.018904 -0.115449
C32   C     C_R   0.092916 0.489920 0.975731 -0.117314
C33   C     C_R   0.514928 0.034913 0.527823 -0.107841
C34   C     C_R   0.485322 0.965800 0.471662 -0.109169
C35   C     C_R   0.986018 0.529312 0.968900 -0.103616
C36   C     C_R   0.016796 0.541376 0.028562 -0.113398
C37   C     C_R   0.510497 0.859479 0.427694 0.753261
C38   C     C_R   0.489789 0.141402 0.571774 0.753390
C39   C     C_R   0.995756 0.635544 0.078593 0.747372
C40   C     C_R   0.011440 0.530591 0.913790 0.752382
C41   C     C_R   0.563086 0.868632 0.429488 -0.137187
C42   C     C_R   0.437218 0.132249 0.570038 -0.140608
C43   C     C_R   0.944656 0.683697 0.073492 -0.138131
C44   C     C_R   0.063901 0.512818 0.917500 -0.163161
H1    H     H_    0.581300 0.803828 0.391185 0.181377
H2    H     H_    0.419032 0.197167 0.608346 0.178553
H3    H     H_    0.930123 0.758619 0.112740 0.184116
H4    H     H_    0.082100 0.518278 0.874062 0.178966
H5    H     H_    0.661612 0.937666 0.437622 0.200089
H6    H     H_    0.338759 0.062850 0.562170 0.198093
H7    H     H_    0.847244 0.752609 0.058106 0.196087
H8    H     H_    0.162223 0.469484 0.932145 0.197661
C45   C     C_R   0.438214 0.818219 0.096364 -0.085031
C46   C     C_R   0.558678 0.182687 0.897741 -0.102349
C47   C     C_R   0.060754 0.313837 0.402104 -0.086488
C48   C     C_R   0.939339 0.686080 0.598004 -0.082513
H9    H     H_    0.465925 0.703898 0.095745 0.219017
H10   H     H_    0.529916 0.293847 0.895325 0.210269
H11   H     H_    0.032660 0.198847 0.402003 0.217219
H12   H     H_    0.967393 0.801196 0.598027 0.214736
C49   C     C_R   0.398962 0.799884 0.136005 -0.039595
C50   C     C_R   0.598813 0.198872 0.859315 -0.128699
C51   C     C_R   0.100325 0.296591 0.362901 -0.041441
C52   C     C_R   0.899786 0.703301 0.637241 -0.084295
H13   H     H_    0.396976 0.670607 0.164455 0.157815
H14   H     H_    0.600337 0.323503 0.828695 0.162635
H15   H     H_    0.102035 0.167888 0.333867 0.174617
H16   H     H_    0.898021 0.832210 0.666164 0.155115
C53   C     C_R   0.363328 0.948634 0.139676 -0.107989
C54   C     C_R   0.635858 0.053600 0.859445 -0.092867
C55   C     C_R   0.136572 0.445968 0.360271 -0.100057
C56   C     C_R   0.863573 0.553844 0.639941 -0.095894
C57   C     C_R   0.368131 0.115213 0.102463 -0.183446
C58   C     C_R   0.631773 0.893738 0.899785 -0.183788
C59   C     C_R   0.132214 0.611644 0.398274 -0.156081
C60   C     C_R   0.867955 0.388078 0.601976 -0.143419
H17   H     H_    0.342218 0.233480 0.105697 0.189892
H18   H     H_    0.658830 0.778817 0.899944 0.180478
H19   H     H_    0.158852 0.729789 0.396168 0.191025
H20   H     H_    0.841335 0.269887 0.604111 0.189185
C61   C     C_R   0.405415 0.129710 0.059991 0.466360
C62   C     C_R   0.593621 0.882318 0.941185 0.420164
C63   C     C_R   0.094366 0.625668 0.439965 0.460028
C64   C     C_R   0.905776 0.374082 0.560244 0.454780
C65   C     C_R   0.441324 0.981007 0.057293 -0.081825
C66   C     C_R   0.555983 0.025923 0.939374 -0.037467
C67   C     C_R   0.057672 0.476826 0.441445 -0.081804
C68   C     C_R   0.942438 0.523016 0.558701 -0.079550
C69   C     C_1   0.481486 0.995822 0.015178 0.196508
C70   C     C_1   0.514886 0.012204 0.980169 0.194492
C71   C     C_1   0.016863 0.491606 0.482714 0.195378
C72   C     C_1   0.983233 0.508266 0.517409 0.191472
S1    S     S_3+6 0.421408 0.057424 0.332413 0.057442
O21   O     O_2   0.474301 0.140571 0.342012 -0.288941
O22   O     O_2   0.420074 0.888017 0.287585 -0.318822
O23   O     O_3   0.383375 0.231709 0.299780 -0.499231
H21   H     H_    0.396307 0.259830 0.258598 0.355498
S2    S     S_3+6 0.578522 0.942193 0.667023 0.054246
O24   O     O_2   0.579514 0.111708 0.711744 -0.319994
O25   O     O_2   0.525708 0.858419 0.657094 -0.291589
O26   O     O_3   0.616591 0.768467 0.699947 -0.499741
H22   H     H_    0.603682 0.741078 0.741192 0.353332
S3    S     S_3+6 0.074296 0.334372 0.155971 0.073897
O27   O     O_2   0.080195 0.470599 0.211609 -0.289063
O28   O     O_2   0.019110 0.282990 0.140739 -0.289844
O29   O     O_3   0.105461 0.128979 0.176401 -0.479839
H23   H     H_    0.101556 0.047101 0.137785 0.353196
S4    S     S_3+6 0.906892 0.286868 0.865798 0.061299
O30   O     O_2   0.907439 0.347877 0.798045 -0.311608
O31   O     O_2   0.955849 0.187728 0.887794 -0.316161
O32   O     O_3   0.859370 0.126140 0.870717 -0.483673
H24   H     H_    0.870664 0.006626 0.850494 0.360314
S5    S     S_3+6 0.260147 0.924434 0.471826 0.068873
O33   O     O_2   0.247442 0.720821 0.449828 -0.346187
O34   O     O_2   0.247897 0.946299 0.539008 -0.244676
O35   O     O_3   0.225881 0.084383 0.426204 -0.484177
H25   H     H_    0.209700 0.008025 0.390020 0.332345
S6    S     S_3+6 0.740118 0.075656 0.528220 0.071998
O36   O     O_2   0.752497 0.053715 0.461093 -0.241326
O37   O     O_2   0.752793 0.279279 0.550232 -0.345400
O38   O     O_3   0.774293 0.915728 0.573951 -0.481778
H26   H     H_    0.790400 0.992115 0.610171 0.332905
S7    S     S_3+6 0.242124 0.424032 0.028899 0.064152
O39   O     O_2   0.255619 0.219991 0.048158 -0.345250
O40   O     O_2   0.255872 0.456697 0.962823 -0.247477
O41   O     O_3   0.274544 0.583486 0.077847 -0.485795
H27   H     H_    0.291596 0.504516 0.112358 0.332528
S8    S     S_3+6 0.763412 0.707039 0.966062 0.085837
O42   O     O_2   0.751425 0.729914 0.033313 -0.227739
O43   O     O_2   0.751342 0.893120 0.931453 -0.343615
O44   O     O_3   0.728574 0.522018 0.932201 -0.482754
H28   H     H_    0.718718 0.560912 0.887952 0.305804
F1    F     F_    0.484740 0.744663 0.383289 -0.601230
F2    F     F_    0.515575 0.256359 0.616111 -0.602998
F3    F     F_    0.025593 0.704861 0.129456 -0.611733
F4    F     F_    0.986720 0.573390 0.856556 -0.618830
S9    S     S_3+6 0.405440 0.331031 0.008719 0.052400
O45   O     O_2   0.457756 0.418362 0.013235 -0.323784
O46   O     O_2   0.390998 0.262578 0.942062 -0.272195
O47   O     O_3   0.364318 0.500355 0.027429 -0.470183
H29   H     H_    0.366402 0.603488 0.995454 0.403390
S10   S     S_3+6 0.593681 0.689805 0.996041 0.091339
O48   O     O_2   0.594174 0.772194 0.061658 -0.251143
O49   O     O_2   0.546018 0.571977 0.981569 -0.332179
O50   O     O_3   0.644183 0.545513 0.993770 -0.400225
H30   H     H_    0.634098 0.449840 0.959932 0.353519
S11   S     S_3+6 0.094420 0.827373 0.491521 0.053068
O51   O     O_2   0.042362 0.913413 0.486041 -0.325435
O52   O     O_2   0.107810 0.760004 0.558242 -0.273630
O53   O     O_3   0.136297 0.997563 0.473918 -0.468334
H31   H     H_    0.133233 0.103031 0.505036 0.401971
S12   S     S_3+6 0.905689 0.172428 0.508660 0.056806
O54   O     O_2   0.892121 0.239811 0.441974 -0.267642
O55   O     O_2   0.957779 0.086674 0.513943 -0.325851
O56   O     O_3   0.863932 0.001980 0.526400 -0.466770
H32   H     H_    0.866915 0.896689 0.495195 0.404019

loop_
_geom_bond_atom_site_label_1
_geom_bond_atom_site_label_2
_ccdc_geom_bond_type
O17   V3    S    
C59   H19   S    
S11   O51   D    
C52   C56   A    
O18   V4    S    
C51   H15   S    
O19   V1    S    
C9    C21   A    
O50   H30   S    
O3    C7    A    
S7    O39   D    
C10   C18   A    
C60   H20   S    
C48   H12   S    
C11   C23   A    
C47   C51   A    
O38   H26   S    
C25   C33   A    
C33   C38   A    
C5    C12   S    
C63   S11   S    
O1    C5    A    
C6    C11   S    
S11   O52   D    
C35   C40   A    
C26   C30   A    
C36   C39   A    
C62   S10   S    
O9    V1    S    
O47   H29   S    
S7    O40   D    
C14   C18   A    
S1    O22   D    
C14   H6    S    
O4    C8    A    
C55   C59   A    
C54   C58   A    
C71   C72   T    
C64   S12   S    
O1    V3    S    
C20   S7    S    
O13   V1    S    
O2    V4    S    
O3    V1    S    
O53   H31   S    
C61   C65   A    
C50   C54   A    
C49   C53   A    
C1    O15   A    
S12   O56   S    
C15   C31   A    
C52   H16   S    
C2    O16   A    
S4    O30   D    
C16   C32   A    
C51   C55   A    
O2    C6    A    
C38   F2    S    
C10   C22   A    
C2    C56   S    
C11   C19   A    
C1    C55   S    
C16   C20   A    
C43   H3    S    
C65   C69   S    
C13   C29   A    
C46   C50   A    
C34   C37   A    
O11   C7    A    
O15   V3    S    
C35   C36   A    
O12   C8    A    
C18   S5    S    
S10   O49   D    
S6    O38   S    
C40   F4    S    
O10   V2    S    
O20   V4    S    
S9    O46   D    
O16   V4    S    
S9    O45   D    
O5    V1    S    
O17   V1    S    
S11   O53   S    
C39   C43   A    
C60   C64   A    
O7    V3    S    
C38   C42   A    
O19   V3    S    
C26   C34   A    
O32   H24   S    
S7    O41   S    
O35   H25   S    
C50   H14   S    
S1    O23   S    
C49   H13   S    
C23   C27   A    
C32   C44   A    
C16   H8    S    
C22   S1    S    
C44   H4    S    
O8    V4    S    
O7    C3    A    
S3    O28   D    
O5    C1    A    
C39   F3    S    
C37   F1    S    
S5    O34   D    
C46   H10   S    
C53   C57   A    
C31   C43   A    
C14   C30   A    
S8    O44   S    
C21   C25   A    
O8    C4    A    
C7    C10   S    
C48   C68   A    
O9    C5    A    
C46   C66   A    
S8    O42   D    
C45   C65   A    
O14   V2    S    
S4    O31   D    
S12   O54   D    
O6    V2    S    
S8    O43   D    
O18   V2    S    
C15   H7    S    
O26   H22   S    
S6    O37   D    
C12   C20   A    
C27   C35   A    
S2    O25   D    
S3    O27   D    
C40   C44   A    
C68   C72   S    
S9    O47   S    
C29   C41   A    
O23   H21   S    
C69   C70   T    
C62   C66   A    
C66   C70   S    
C3    O13   A    
O41   H27   S    
C63   C67   A    
O6    C2    A    
C15   C19   A    
O11   V3    S    
C30   C42   A    
C21   S2    S    
O12   V4    S    
C59   C63   A    
S5    O33   D    
C22   C26   A    
C13   H5    S    
C8    C9    S    
C58   C62   A    
C47   C67   A    
C23   S4    S    
C9    C17   A    
O10   C6    A    
S2    O26   S    
O20   V2    S    
O29   H23   S    
S3    O29   S    
C57   C61   A    
C17   S6    S    
C48   C52   A    
C58   H18   S    
S1    O21   D    
C24   S3    S    
C47   H11   S    
C4    C54   S    
C3    C53   S    
C33   C34   A    
S10   O48   D    
S4    O32   S    
C41   H1    S    
S5    O35   S    
C56   C60   A    
S12   O55   D    
C12   C24   A    
C27   C31   A    
C37   C41   A    
C13   C17   A    
O4    V2    S    
C25   C29   A    
C45   C49   A    
O56   H32   S    
C64   C68   A    
C24   C28   A    
C42   H2    S    
S10   O50   S    
C28   C36   A    
C45   H9    S    
C4    O14   A    
O44   H28   S    
S6    O36   D    
C61   S9    S    
C67   C71   S    
S2    O24   D    
C57   H17   S    
C19   S8    S    
C28   C32   A    
