data_mof_unit_51999.cif
_audit_creation_date              2012-12-10T20:42:44-0500
_audit_creation_method            fapswitch 2.2
_symmetry_space_group_name_H-M    P1
_symmetry_Int_Tables_number       1
_space_group_crystal_system       triclinic
_cell_length_a                    8.906852
_cell_length_b                    10.688517
_cell_length_c                    9.889658
_cell_angle_alpha                 89.999411
_cell_angle_beta                  90.032294
_cell_angle_gamma                 89.945924
_cell_volume                      941.5051482

loop_
_atom_site_label
_atom_site_type_symbol
_atom_type_description
_atom_site_fract_x
_atom_site_fract_y
_atom_site_fract_z
_atom_type_partial_charge
Br1   Br    Br    0.184659 0.131981 0.651623 -0.553076
C1    C     C_R   0.502724 0.260142 0.500038 0.922223
C2    C     C_R   0.368193 0.502011 0.928764 0.200124
C3    C     C_3   0.246713 0.406325 0.923189 -0.462956
C4    C     C_R   0.218789 0.499820 0.499966 0.964703
C5    C     C_3   0.246757 0.406213 0.076731 -0.502813
C6    C     C_R   0.503635 0.739836 0.500078 0.869264
C7    C     C_R   0.781232 0.499875 0.500046 0.933865
C8    C     C_1   0.065439 0.499663 0.499986 -0.178878
C9    C     C_1   0.934606 0.499689 0.500064 -0.186182
C10   C     C_R   0.498057 0.063432 0.621511 0.072020
C11   C     C_R   0.519474 0.128410 0.501169 -0.058388
C12   C     C_R   0.566592 0.935251 0.384403 -0.203871
C13   C     C_R   0.565462 0.064739 0.384288 -0.203910
C14   C     C_R   0.522695 0.871355 0.501700 -0.065646
C15   C     C_R   0.502094 0.936088 0.622285 0.075328
C16   C     C_3   0.379585 0.926193 0.724979 -0.480774
C17   C     C_3   0.373641 0.068222 0.723479 0.086220
C18   C     C_R   0.368208 0.501909 0.071098 0.217194
C19   C     C_R   0.630502 0.508122 0.071834 -0.135697
C20   C     C_R   0.630503 0.508121 0.928236 -0.126870
H1    H     H_    0.592512 0.114063 0.291764 0.169313
H2    H     H_    0.736192 0.512861 0.874860 0.159512
H3    H     H_    0.141389 0.444397 0.878951 0.213392
H4    H     H_    0.285474 0.316580 0.878617 0.236028
H5    H     H_    0.141493 0.444406 0.120858 0.208227
H6    H     H_    0.285375 0.316275 0.121443 0.222293
H7    H     H_    0.593618 0.886020 0.291791 0.169264
H8    H     H_    0.277389 0.879666 0.684412 0.228726
H9    H     H_    0.421111 0.887441 0.822405 0.183930
H10   H     H_    0.409698 0.111165 0.820544 0.131545
H11   H     H_    0.736195 0.512876 0.125306 0.157504
N1    N     N_R   0.499010 0.499140 0.142800 -0.107640
N2    N     N_R   0.499010 0.499180 0.857150 -0.108332
O1    O     O_R   0.500020 0.316790 0.614690 -0.607778
O2    O     O_R   0.500000 0.316760 0.385350 -0.625633
O3    O     O_R   0.285350 0.500020 0.614650 -0.608206
O4    O     O_R   0.285340 0.499980 0.385310 -0.618504
O5    O     O_R   0.500000 0.683240 0.614650 -0.617381
O6    O     O_R   0.499980 0.683210 0.385310 -0.623643
O7    O     O_R   0.714660 0.500020 0.614690 -0.623998
O8    O     O_R   0.714650 0.499980 0.385350 -0.629967
Zn1   Zn    Zn3+2 0.500010 0.500020 0.653130 0.960380
Zn2   Zn    Zn3+2 0.499990 0.499980 0.346870 0.949090

loop_
_geom_bond_atom_site_label_1
_geom_bond_atom_site_label_2
_ccdc_geom_bond_type
C1    O1    A    
O3    Zn1   S    
C10   C11   A    
C10   C17   S    
C2    C18   A    
C16   H9    S    
C4    O3    A    
C16   H8    S    
C8    C9    T    
C5    H6    S    
C6    O6    A    
C1    C11   S    
C13   H1    S    
C6    C14   S    
C3    H4    S    
C12   H7    S    
C12   C13   A    
C7    O7    A    
C4    C8    S    
C5    C18   S    
O7    Zn1   S    
Br1   C17   S    
C5    H5    S    
O8    Zn2   S    
C19   N1    A    
C7    C9    S    
C17   H10   S    
C7    O8    A    
O4    Zn2   S    
C16   C17   S    
C12   C14   A    
C20   H2    S    
C18   N1    A    
C3    H3    S    
O2    Zn2   S    
C10   C15   A    
C2    C3    S    
O6    Zn2   S    
O1    Zn1   S    
C19   C20   A    
C3    C5    S    
C19   H11   S    
C1    O2    A    
C6    O5    A    
O5    Zn1   S    
C20   N2    A    
C2    N2    A    
C4    O4    A    
N1    Zn2   S    
N2    Zn1   S    
C14   C15   A    
C11   C13   A    
C15   C16   S    
