data_mof_unit_14016.cif
_audit_creation_date              2012-12-11T17:04:45-0500
_audit_creation_method            fapswitch 2.2
_symmetry_space_group_name_H-M    P1
_symmetry_Int_Tables_number       1
_space_group_crystal_system       triclinic
_cell_length_a                    17.554858
_cell_length_b                    24.495156
_cell_length_c                    14.97048
_cell_angle_alpha                 90.279241
_cell_angle_beta                  126.124699
_cell_angle_gamma                 90.104311
_cell_volume                      5199.60205737

loop_
_atom_site_label
_atom_site_type_symbol
_atom_type_description
_atom_site_fract_x
_atom_site_fract_y
_atom_site_fract_z
_atom_type_partial_charge
C1    C     C_R   0.832340 0.644391 0.905277 -0.123392
C2    C     C_R   0.187242 0.629242 0.096087 -0.119545
C3    C     C_R   0.332324 0.144387 0.905238 -0.122829
C4    C     C_R   0.687227 0.129289 0.096247 -0.119799
C5    C     C_R   0.884640 0.316957 0.003873 -0.111452
C6    C     C_R   0.111831 0.316613 0.994064 -0.094553
C7    C     C_R   0.384777 0.816959 0.003841 -0.112930
C8    C     C_R   0.611857 0.816648 0.994056 -0.096351
C9    C     C_R   0.957695 0.501088 0.282316 0.031858
C10   C     C_R   0.937746 0.500961 0.633374 0.048065
C11   C     C_R   0.457466 0.001085 0.282075 0.034511
C12   C     C_R   0.437721 0.000945 0.633349 0.050719
C13   C     C_R   0.675786 0.500970 0.723182 -0.013813
C14   C     C_R   0.321074 0.501000 0.339567 -0.002204
C15   C     C_R   0.175786 0.000966 0.723190 -0.014585
C16   C     C_R   0.821112 0.001003 0.339486 -0.002756
C17   C     C_3   0.502700 0.456930 0.597458 -0.132618
C18   C     C_3   0.482417 0.453818 0.482109 -0.129182
C19   C     C_3   0.002700 0.956925 0.597392 -0.135234
C20   C     C_3   0.982460 0.953818 0.482063 -0.129938
C21   C     C_3   0.429982 0.503582 0.557735 -0.126799
C22   C     C_3   0.558779 0.497056 0.516427 -0.130335
C23   C     C_3   0.929976 0.003577 0.557641 -0.128616
C24   C     C_3   0.058830 0.997058 0.516423 -0.130070
C25   C     C_3   0.412033 0.500396 0.444518 0.148873
C26   C     C_3   0.577935 0.500254 0.630542 0.147041
C27   C     C_3   0.912070 0.000394 0.444444 0.148956
C28   C     C_3   0.077942 0.000251 0.630516 0.147954
C29   C     C_3   0.487395 0.543581 0.477852 -0.146649
C30   C     C_3   0.507504 0.546884 0.593006 -0.132933
C31   C     C_3   0.987438 0.043582 0.477818 -0.145382
C32   C     C_3   0.007504 0.046881 0.592952 -0.130574
C33   C     C_R   0.876241 0.247149 0.117422 0.063333
C34   C     C_R   0.122366 0.244110 0.883939 0.099238
C35   C     C_R   0.374690 0.747826 0.116748 0.069852
C36   C     C_R   0.622998 0.744599 0.883916 0.092608
C37   C     C_R   0.865457 0.260679 0.018845 0.072856
C38   C     C_R   0.137137 0.261206 0.983219 0.070351
C39   C     C_R   0.365196 0.760835 0.018786 0.068593
C40   C     C_R   0.637269 0.761327 0.983079 0.070730
C41   C     C_R   0.820922 0.221920 0.931921 -0.063342
C42   C     C_R   0.199756 0.229510 0.077608 -0.092496
C43   C     C_R   0.321565 0.721786 0.932379 -0.061724
C44   C     C_R   0.699438 0.729402 0.077254 -0.090680
C45   C     C_R   0.943343 0.350387 0.092667 -0.179157
C46   C     C_R   0.054003 0.350019 0.905103 -0.177319
C47   C     C_R   0.443445 0.850341 0.092689 -0.176853
C48   C     C_R   0.553991 0.850041 0.905120 -0.177698
C49   C     C_R   0.266989 0.679965 0.930707 -0.243135
C50   C     C_R   0.766929 0.697516 0.081886 -0.244484
C51   C     C_R   0.766613 0.180048 0.930527 -0.241575
C52   C     C_R   0.267198 0.197642 0.082129 -0.243576
C53   C     C_R   0.256472 0.677334 0.015696 0.060926
C54   C     C_R   0.769657 0.695786 0.990567 0.076932
C55   C     C_R   0.757101 0.177057 0.016256 0.063989
C56   C     C_R   0.269444 0.195645 0.990489 0.077281
C57   C     C_R   0.315567 0.708705 0.110744 0.078734
C58   C     C_R   0.690862 0.713690 0.889859 0.046897
C59   C     C_R   0.817422 0.207902 0.111894 0.068574
C60   C     C_R   0.190189 0.213204 0.889760 0.042053
C61   C     C_3   0.291315 0.741477 0.174846 -0.590491
C62   C     C_3   0.680499 0.739328 0.793824 -0.636140
C63   C     C_3   0.795015 0.240180 0.178328 -0.570771
C64   C     C_3   0.178674 0.238227 0.792592 -0.628068
C65   C     C_3   0.865790 0.281762 0.193928 0.382023
C66   C     C_3   0.100161 0.271289 0.780369 0.431967
C67   C     C_3   0.362719 0.782914 0.191471 0.386632
C68   C     C_3   0.601950 0.772410 0.781449 0.436872
C69   C     C_R   0.900375 0.551773 0.469714 0.160798
C70   C     C_R   0.905965 0.552049 0.381757 0.156188
C71   C     C_R   0.399781 0.051658 0.469266 0.160521
C72   C     C_R   0.405315 0.051931 0.381253 0.155667
C73   C     C_R   0.902437 0.502371 0.517561 0.024263
C74   C     C_R   0.912483 0.502816 0.338577 0.029525
C75   C     C_R   0.402322 0.002278 0.517482 0.014040
C76   C     C_R   0.412253 0.002712 0.338366 0.019283
C77   C     C_R   0.883784 0.453928 0.456644 -0.175047
C78   C     C_R   0.888169 0.454274 0.366285 -0.185785
C79   C     C_R   0.384100 0.953773 0.456888 -0.158556
C80   C     C_R   0.388501 0.954092 0.366552 -0.169153
C81   C     C_3   0.967348 0.602139 0.424660 -0.493875
C82   C     C_3   0.960542 0.601924 0.520225 -0.489989
C83   C     C_3   0.466203 0.102223 0.423776 -0.492142
C84   C     C_3   0.459433 0.102013 0.519369 -0.486955
C85   C     C_R   0.984767 0.546343 0.252376 -0.135904
C86   C     C_R   0.950843 0.546186 0.696454 -0.155355
C87   C     C_R   0.484705 0.046345 0.252323 -0.134933
C88   C     C_R   0.450835 0.046180 0.696433 -0.156110
C89   C     C_R   0.731534 0.455410 0.753380 -0.068194
C90   C     C_R   0.267981 0.455272 0.285810 -0.063126
C91   C     C_R   0.231540 0.955406 0.753400 -0.068610
C92   C     C_R   0.768026 0.955277 0.285703 -0.064170
C93   C     C_R   0.986113 0.455033 0.254576 -0.062598
C94   C     C_R   0.953150 0.455216 0.696066 -0.081930
C95   C     C_R   0.485777 0.955059 0.254179 -0.067882
C96   C     C_R   0.453142 0.955216 0.696080 -0.078161
C97   C     C_R   0.730550 0.546341 0.745999 -0.121523
C98   C     C_R   0.266171 0.546476 0.293098 -0.139360
C99   C     C_R   0.230550 0.046339 0.746011 -0.121228
C100  C     C_R   0.766177 0.046470 0.293101 -0.139333
C101  C     C_R   0.856010 0.347420 0.909885 0.483731
C102  C     C_R   0.141521 0.347357 0.088957 0.485186
C103  C     C_R   0.356098 0.847393 0.909877 0.484739
C104  C     C_R   0.641564 0.847362 0.088949 0.490388
C105  C     C_R   0.922932 0.645169 0.089381 -0.149452
C106  C     C_R   0.096082 0.629739 0.910414 -0.132451
C107  C     C_R   0.422889 0.145171 0.089329 -0.148955
C108  C     C_R   0.596212 0.129785 0.910604 -0.130277
C109  C     C_R   0.844085 0.667929 0.995818 0.089999
C110  C     C_R   0.182868 0.645669 0.005768 0.079233
C111  C     C_R   0.343987 0.167909 0.995734 0.090015
C112  C     C_R   0.683026 0.145733 0.006098 0.077409
H1    H     H_    0.785375 0.656112 0.820196 0.106531
H2    H     H_    0.244246 0.635321 0.181835 0.113200
H3    H     H_    0.285469 0.156135 0.820163 0.107865
H4    H     H_    0.744174 0.135253 0.182019 0.112620
H5    H     H_    0.511559 0.421867 0.649456 0.138665
H6    H     H_    0.470633 0.416017 0.434198 0.146473
H7    H     H_    0.011537 0.921861 0.649374 0.136987
H8    H     H_    0.970699 0.916018 0.434158 0.145904
H9    H     H_    0.479058 0.578713 0.426216 0.153622
H10   H     H_    0.520115 0.584648 0.641391 0.162983
H11   H     H_    0.979117 0.078717 0.426196 0.154018
H12   H     H_    0.020092 0.084645 0.641328 0.163652
H13   H     H_    0.818471 0.225399 0.859747 0.210903
H14   H     H_    0.205744 0.232122 0.152316 0.230479
H15   H     H_    0.320337 0.724938 0.860937 0.211415
H16   H     H_    0.704952 0.731823 0.151707 0.231567
H17   H     H_    0.226489 0.653493 0.858809 0.144584
H18   H     H_    0.819470 0.677306 0.158557 0.138031
H19   H     H_    0.725309 0.153935 0.858171 0.143970
H20   H     H_    0.320082 0.177681 0.158963 0.137719
H21   H     H_    0.310031 0.720684 0.251100 0.247748
H22   H     H_    0.657441 0.709516 0.726148 0.244664
H23   H     H_    0.815067 0.219004 0.254780 0.248854
H24   H     H_    0.155452 0.207989 0.725530 0.246522
H25   H     H_    0.217704 0.756883 0.121832 0.172979
H26   H     H_    0.743094 0.764427 0.818713 0.181313
H27   H     H_    0.721423 0.255671 0.127046 0.171582
H28   H     H_    0.240805 0.263437 0.816197 0.183060
H29   H     H_    0.834307 0.322639 0.161127 0.015376
H30   H     H_    0.114705 0.315835 0.787083 0.013698
H31   H     H_    0.331550 0.823763 0.157871 0.012267
H32   H     H_    0.616981 0.816929 0.789379 0.018233
H33   H     H_    0.877194 0.415040 0.485462 0.171991
H34   H     H_    0.884176 0.415762 0.328131 0.166733
H35   H     H_    0.377919 0.914864 0.485985 0.176460
H36   H     H_    0.385048 0.915503 0.328930 0.169844
H37   H     H_    0.931894 0.637855 0.369573 0.198665
H38   H     H_    0.029676 0.594290 0.600652 0.199573
H39   H     H_    0.430397 0.137812 0.368424 0.198344
H40   H     H_    0.528665 0.094627 0.599836 0.199196
H41   H     H_    0.988734 0.337814 0.176311 0.245897
H42   H     H_    0.007523 0.338190 0.819527 0.231339
H43   H     H_    0.488614 0.837650 0.176422 0.257065
H44   H     H_    0.507567 0.838240 0.819553 0.232277
H45   H     H_    0.040488 0.594434 0.451628 0.205742
H46   H     H_    0.920600 0.637291 0.519551 0.206587
H47   H     H_    0.539431 0.094761 0.450838 0.205553
H48   H     H_    0.419135 0.137246 0.518440 0.207512
H49   H     H_    0.973481 0.588119 0.261650 0.108153
H50   H     H_    0.928968 0.587473 0.667896 0.112828
H51   H     H_    0.473480 0.088124 0.261651 0.107967
H52   H     H_    0.428962 0.087466 0.667878 0.114128
H53   H     H_    0.707432 0.413737 0.740584 0.169765
H54   H     H_    0.289872 0.413793 0.310685 0.186733
H55   H     H_    0.207456 0.913727 0.740649 0.169451
H56   H     H_    0.789993 0.913797 0.310476 0.186328
H57   H     H_    0.976561 0.412882 0.266407 0.137069
H58   H     H_    0.937286 0.413303 0.667893 0.164063
H59   H     H_    0.475633 0.912947 0.265322 0.148932
H60   H     H_    0.437226 0.913312 0.667931 0.167244
H61   H     H_    0.705500 0.587244 0.718369 0.111162
H62   H     H_    0.282937 0.587338 0.327477 0.120964
H63   H     H_    0.205500 0.087244 0.718397 0.111831
H64   H     H_    0.782934 0.087315 0.327567 0.121354
H65   H     H_    0.958749 0.659629 0.173375 0.101284
H66   H     H_    0.069413 0.636771 0.825403 0.107607
H67   H     H_    0.458703 0.159633 0.173320 0.101435
H68   H     H_    0.569680 0.136752 0.825619 0.107631
H69   H     H_    0.373940 0.506282 0.570576 0.136790
H70   H     H_    0.613772 0.494327 0.501773 0.139500
H71   H     H_    0.873912 0.006274 0.570445 0.135861
H72   H     H_    0.113845 0.994332 0.501805 0.139191
N1    N     N_R   0.892620 0.603790 0.941770 -0.045678
N2    N     N_R   0.107380 0.603790 0.058230 -0.047014
N3    N     N_R   0.392620 0.103790 0.941770 -0.045795
N4    N     N_R   0.607380 0.103790 0.058230 -0.046891
N5    N     N_R   0.952270 0.397640 0.058010 -0.077455
N6    N     N_R   0.047730 0.397640 0.941990 -0.078833
N7    N     N_R   0.452270 0.897640 0.058010 -0.077596
N8    N     N_R   0.547730 0.897640 0.941990 -0.079080
N9    N     N_R   0.026310 0.529110 0.206760 -0.049218
N10   N     N_R   0.973690 0.529110 0.793240 -0.048758
N11   N     N_R   0.526310 0.029110 0.206760 -0.049333
N12   N     N_R   0.473690 0.029110 0.793240 -0.049161
N13   N     N_R   0.818570 0.472310 0.793020 -0.028416
N14   N     N_R   0.181430 0.472310 0.206980 -0.037527
N15   N     N_R   0.318570 0.972310 0.793020 -0.028659
N16   N     N_R   0.681430 0.972310 0.206980 -0.036797
N17   N     N_R   0.026930 0.472300 0.207330 -0.028777
N18   N     N_R   0.973070 0.472300 0.792670 -0.040749
N19   N     N_R   0.526930 0.972300 0.207330 -0.028311
N20   N     N_R   0.473070 0.972300 0.792670 -0.041854
N21   N     N_R   0.817960 0.529130 0.792460 -0.050618
N22   N     N_R   0.182040 0.529130 0.207540 -0.051112
N23   N     N_R   0.317960 0.029130 0.792460 -0.050565
N24   N     N_R   0.682040 0.029130 0.207540 -0.051090
N25   N     N_R   0.894850 0.397640 0.943830 -0.110843
N26   N     N_R   0.105150 0.397640 0.056170 -0.107981
N27   N     N_R   0.394850 0.897640 0.943830 -0.111291
N28   N     N_R   0.605150 0.897640 0.056170 -0.107826
N29   N     N_R   0.950040 0.603780 0.055950 -0.043198
N30   N     N_R   0.049960 0.603780 0.944050 -0.045204
N31   N     N_R   0.450040 0.103780 0.055950 -0.043421
N32   N     N_R   0.549960 0.103780 0.944050 -0.045140
Ni1   Ni    Ni4+2 0.934160 0.565860 0.869070 0.209431
Ni2   Ni    Ni4+2 0.065840 0.565860 0.130930 0.215447
Ni3   Ni    Ni4+2 0.434160 0.065860 0.869070 0.210986
Ni4   Ni    Ni4+2 0.565840 0.065860 0.130930 0.215854
Ni5   Ni    Ni4+2 0.067260 0.435560 0.132230 0.318379
Ni6   Ni    Ni4+2 0.932740 0.435560 0.867770 0.307018
Ni7   Ni    Ni4+2 0.567260 0.935560 0.132230 0.317438
Ni8   Ni    Ni4+2 0.432740 0.935560 0.867770 0.306617
S1    S     S_3+6 0.967766 0.282660 0.336786 -0.024196
O1    O     O_2   0.998222 0.225245 0.377371 -0.238347
O2    O     O_2   0.049855 0.313171 0.354345 -0.300462
O3    O     O_3   0.935455 0.313633 0.410081 -0.507458
H73   H     H_    0.993144 0.332059 0.472559 0.381591
S2    S     S_3+6 0.986390 0.250784 0.659330 -0.024457
O4    O     O_2   0.994514 0.235101 0.568225 -0.221071
O5    O     O_2   0.950090 0.202267 0.685167 -0.305586
O6    O     O_3   0.910312 0.302832 0.616386 -0.526279
H74   H     H_    0.850174 0.288706 0.549927 0.390500
S3    S     S_3+6 0.463279 0.783861 0.335011 -0.035603
O7    O     O_2   0.431813 0.809270 0.399707 -0.264352
O8    O     O_2   0.495054 0.726329 0.373654 -0.258032
O9    O     O_3   0.555472 0.819915 0.360035 -0.542482
H75   H     H_    0.602352 0.819703 0.441487 0.388246
S4    S     S_3+6 0.488424 0.752570 0.659275 -0.011936
O10   O     O_2   0.497538 0.738017 0.568499 -0.207754
O11   O     O_2   0.451521 0.703520 0.682934 -0.310226
O12   O     O_3   0.412301 0.804526 0.617188 -0.520987
H76   H     H_    0.352212 0.790566 0.550413 0.387627
S5    S     S_3+6 0.813225 0.321913 0.776793 -0.094293
O13   O     O_2   0.714341 0.300813 0.721052 -0.341392
O14   O     O_2   0.812963 0.365708 0.706814 -0.312644
O15   O     O_3   0.882689 0.271487 0.787185 -0.532396
H77   H     H_    0.840514 0.248351 0.720919 0.403004
S6    S     S_3+6 0.173994 0.321445 0.217683 -0.095222
O16   O     O_2   0.276629 0.306342 0.287701 -0.343299
O17   O     O_2   0.158129 0.363314 0.278668 -0.309138
O18   O     O_3   0.107754 0.266237 0.196435 -0.562673
H78   H     H_    0.134364 0.252029 0.271235 0.402562
S7    S     S_3+6 0.313333 0.821774 0.776838 -0.094772
O19   O     O_2   0.214696 0.800335 0.721460 -0.341111
O20   O     O_2   0.312487 0.865595 0.706506 -0.314098
O21   O     O_3   0.383173 0.771572 0.787253 -0.534560
H79   H     H_    0.341425 0.748666 0.720476 0.402591
S8    S     S_3+6 0.674094 0.821414 0.217646 -0.101413
O22   O     O_2   0.776634 0.806115 0.287489 -0.344831
O23   O     O_2   0.658540 0.863395 0.278719 -0.316097
O24   O     O_3   0.607614 0.766344 0.196476 -0.562408
H80   H     H_    0.631965 0.753355 0.271410 0.400647

loop_
_geom_bond_atom_site_label_1
_geom_bond_atom_site_label_2
_ccdc_geom_bond_type
C53   C110  S    
C58   C62   S    
C73   C77   A    
C87   H51   S    
C63   C65   S    
N24   Ni4   S    
C2    N2    A    
C22   C29   S    
C5    C37   S    
C55   C112  S    
N14   N22   A    
C85   H49   S    
C88   N12   A    
N13   N21   A    
C19   C20   S    
N32   Ni3   S    
N17   Ni5   S    
C72   C76   A    
C101  S5    S    
C34   C66   S    
S7    O20   D    
C81   C82   S    
C84   H48   S    
C33   C65   S    
O24   H80   S    
N3    Ni3   S    
C77   C78   A    
N22   Ni2   S    
C21   H69   S    
N2    Ni2   S    
C93   H57   S    
C50   C54   A    
N1    Ni1   S    
C51   H19   S    
C17   C26   S    
C14   C98   A    
C91   H55   S    
C38   C42   A    
C55   C59   A    
C11   C76   S    
N6    Ni6   S    
C64   H28   S    
O18   H78   S    
C98   H62   S    
C10   C73   S    
N5    Ni5   S    
S6    O17   D    
C24   H72   S    
C10   C94   A    
C95   N19   A    
O12   H76   S    
N10   N18   A    
N21   Ni1   S    
S1    O3    S    
C103  S7    S    
C108  H68   S    
S2    O6    S    
C17   C18   S    
C104  S8    S    
C57   C61   S    
C70   C81   S    
C32   H12   S    
N8    N28   A    
C21   C25   S    
C69   C82   S    
C50   H18   S    
C83   H47   S    
C9    C85   A    
C49   C53   A    
C14   C90   A    
C30   H10   S    
C11   C87   A    
C29   H9    S    
C70   C74   A    
N27   Ni8   S    
S3    O7    D    
C6    C38   S    
C69   C73   A    
C94   N18   A    
C23   C27   S    
N12   N20   A    
C18   C22   S    
C93   N17   A    
O6    H74   S    
C18   H6    S    
C56   C111  S    
S5    O15   S    
C17   H5    S    
C91   N15   A    
C16   C27   S    
C6    C102  A    
C48   H44   S    
S7    O21   S    
C19   H7    S    
C16   C100  A    
C33   C59   A    
N26   Ni5   S    
C7    C103  A    
S5    O13   D    
N20   Ni8   S    
C34   C60   A    
N25   Ni6   S    
S3    O8    D    
C67   H31   S    
S2    O4    D    
C18   C25   S    
C1    H1    S    
N18   Ni6   S    
C46   N6    A    
S8    O24   S    
C106  N30   A    
S4    O11   D    
N11   Ni4   S    
C34   C38   A    
C96   N20   A    
N10   Ni1   S    
C83   H39   S    
N4    Ni4   S    
C25   C29   S    
N9    Ni2   S    
C46   H42   S    
N3    N31   A    
C59   C63   S    
C81   H45   S    
C12   C88   A    
C65   S1    S    
C52   H20   S    
C41   H13   S    
C36   C40   A    
N14   Ni5   S    
C97   H61   S    
N8    Ni8   S    
S8    O23   D    
N13   Ni6   S    
C61   H21   S    
C103  N27   A    
C100  N24   A    
C53   C57   A    
C102  N26   A    
C79   H35   S    
O3    H73   S    
C101  N25   A    
S6    O16   D    
C88   H52   S    
C9    C93   A    
C27   C31   S    
C98   N22   A    
N30   Ni1   S    
S4    O12   S    
C33   C37   A    
C56   C60   A    
C54   C109  S    
C99   N23   A    
C7    C47   A    
C90   H54   S    
C80   H36   S    
C19   C23   S    
C8    C48   A    
C23   H71   S    
C29   C30   S    
C42   C52   A    
C65   H29   S    
C61   C67   S    
C83   C84   S    
C28   C32   S    
C63   H27   S    
N29   Ni2   S    
C67   S3    S    
C49   H17   S    
N15   N23   A    
S1    O1    D    
N19   Ni7   S    
C5    C45   A    
C13   C97   A    
C108  N32   A    
C62   H26   S    
S2    O5    D    
C19   C28   S    
C8    C104  A    
C89   H53   S    
C82   H38   S    
C2    H2    S    
C86   H50   S    
C84   H40   S    
C45   N5    A    
C41   C51   A    
C71   C75   A    
C26   C30   S    
C4    C112  A    
N4    N32   A    
C74   C78   A    
C54   C58   A    
S3    O9    S    
C3    C111  A    
C13   C26   S    
C107  N31   A    
C45   H41   S    
C9    C74   S    
C104  N28   A    
C42   H14   S    
C43   H15   S    
S7    O19   D    
C77   H33   S    
C72   C83   S    
C20   H8    S    
N12   Ni3   S    
C8    C40   S    
O15   H77   S    
C63   H23   S    
C71   C84   S    
C106  C110  A    
C11   C95   A    
C105  C109  A    
O9    H75   S    
C44   H16   S    
C68   S4    S    
C6    C46   A    
C107  H67   S    
C102  S6    S    
N16   Ni7   S    
C107  C111  A    
C4    H4    S    
C31   C32   S    
C43   C49   A    
C24   C28   S    
C81   H37   S    
C105  H65   S    
S8    O22   D    
C22   C26   S    
C105  N29   A    
C3    N3    A    
C39   C43   A    
C76   C80   A    
C36   C68   S    
C47   N7    A    
C16   C92   A    
C100  H64   S    
C66   H30   S    
C20   C27   S    
C1    N1    A    
N15   Ni8   S    
C13   C89   A    
N7    Ni7   S    
C89   N13   A    
C21   C30   S    
C66   S2    S    
C36   C58   A    
C5    C101  A    
C62   C68   S    
C60   C64   S    
C23   C32   S    
C62   H22   S    
S5    O14   D    
O21   H79   S    
N6    N26   A    
C24   C31   S    
C31   H11   S    
C71   C72   A    
C22   H70   S    
N23   Ni3   S    
C3    H3    S    
N31   Ni4   S    
C86   N10   A    
C15   C99   A    
C10   C86   A    
C61   H25   S    
C15   C28   S    
N9    N17   A    
C75   C79   A    
S6    O18   S    
C1    C109  A    
C82   H46   S    
C35   C39   A    
N2    N30   A    
S4    O10   D    
S1    O2    D    
N1    N29   A    
C68   H32   S    
C51   C55   A    
C90   N14   A    
C85   N9    A    
C14   C25   S    
C37   C41   A    
C69   C70   A    
C20   C24   S    
C17   C21   S    
C92   H56   S    
C48   N8    A    
C99   H63   S    
C35   C67   S    
C78   H34   S    
C15   C91   A    
C79   C80   A    
C108  C112  A    
C40   C44   A    
N11   N19   A    
C44   C50   A    
N16   N24   A    
C35   C57   A    
C96   H60   S    
C12   C75   S    
N7    N27   A    
C7    C39   S    
C12   C96   A    
N5    N25   A    
C64   H24   S    
C87   N11   A    
C97   N21   A    
C92   N16   A    
C95   H59   S    
C106  H66   S    
C94   H58   S    
C4    N4    A    
C52   C56   A    
C64   C66   S    
C47   H43   S    
N28   Ni7   S    
C2    C110  A    
