data_mof_unit_61007.cif
_audit_creation_date              2012-10-26T20:30:32-0400
_audit_creation_method            fapswitch 2.2
_symmetry_space_group_name_H-M    P1
_symmetry_Int_Tables_number       1
_space_group_crystal_system       triclinic
_cell_length_a                    19.441368
_cell_length_b                    18.153903
_cell_length_c                    10.776588
_cell_angle_alpha                 90.349713
_cell_angle_beta                  90.580148
_cell_angle_gamma                 89.720542
_cell_volume                      3803.14357833

loop_
_atom_site_label
_atom_site_type_symbol
_atom_type_description
_atom_site_fract_x
_atom_site_fract_y
_atom_site_fract_z
_atom_type_partial_charge
C1    C     C_R   0.367504 0.499872 0.499206 0.585658
C2    C     C_R   0.962166 0.503919 0.390807 -0.037086
C3    C     C_R   0.035996 0.494999 0.614485 -0.079334
C4    C     C_R   0.033775 0.503991 0.389776 -0.079785
C5    C     C_R   0.071286 0.499633 0.501662 0.030982
C6    C     C_R   0.927454 0.499300 0.503498 0.096309
C7    C     C_R   0.184099 0.450082 0.575039 -0.080969
C8    C     C_R   0.182506 0.547153 0.422626 -0.075666
C9    C     C_R   0.500930 0.499655 0.259487 0.565990
C10   C     C_R   0.255781 0.448765 0.573863 0.100153
C11   C     C_R   0.254140 0.546612 0.419744 0.068694
C12   C     C_3   0.511617 0.580308 0.930984 -0.226258
C13   C     C_R   0.291852 0.498918 0.498438 0.041932
C14   C     C_R   0.147062 0.499482 0.500633 -0.015926
C15   C     C_R   0.457889 0.718759 0.417012 0.034899
C16   C     C_R   0.453729 0.281648 0.423715 0.079863
C17   C     C_R   0.453220 0.796096 0.413949 -0.128853
C18   C     C_R   0.449139 0.204315 0.419816 -0.108117
C19   C     C_R   0.492346 0.838896 0.497120 0.006916
C20   C     C_R   0.491864 0.161333 0.496466 0.002840
C21   C     C_R   0.537423 0.801966 0.578214 -0.042653
C22   C     C_R   0.539678 0.197865 0.572773 -0.036486
C23   C     C_R   0.744610 0.432820 0.505804 -0.046495
C24   C     C_R   0.540725 0.724601 0.578734 0.382732
C25   C     C_R   0.543088 0.275147 0.573897 0.388210
C26   C     C_R   0.474003 0.961772 0.608499 0.279683
C27   C     C_R   0.473960 0.039828 0.608246 0.279857
C28   C     C_R   0.487108 0.078843 0.497730 -0.008356
C29   C     C_R   0.487558 0.921562 0.498270 -0.004182
C30   C     C_R   0.632496 0.499856 0.500390 0.593200
C31   C     C_R   0.497525 0.038391 0.387877 -0.133752
C32   C     C_R   0.497818 0.961033 0.388160 -0.139415
C33   C     C_R   0.500814 0.500417 0.740104 0.636990
C34   C     C_R   0.744217 0.566309 0.499169 -0.069400
C35   C     C_3   0.432614 0.466596 0.068377 0.121715
C36   C     C_3   0.565671 0.455781 0.070244 0.126383
C37   C     C_3   0.431968 0.470344 0.924838 0.075893
C38   C     C_3   0.561282 0.451322 0.926952 0.098072
C39   C     C_3   0.507097 0.579239 0.073011 -0.320756
C40   C     C_3   0.501571 0.498549 0.121388 -0.024114
C41   C     C_3   0.501537 0.501211 0.877674 -0.038806
C42   C     C_R   0.816307 0.432426 0.507275 0.218207
C43   C     C_R   0.815891 0.566479 0.500200 0.214847
C44   C     C_R   0.852245 0.499396 0.504182 0.018696
C45   C     C_R   0.708063 0.499622 0.501715 -0.044313
C46   C     C_R   0.964347 0.494791 0.615310 -0.031297
Cl1   Cl    Cl    0.599449 0.683095 0.681616 -0.540602
Cl2   Cl    Cl    0.858752 0.651712 0.496936 -0.509441
Cl3   Cl    Cl    0.603557 0.316208 0.673866 -0.481704
Cl4   Cl    Cl    0.453525 0.914898 0.746539 -0.470893
Cl5   Cl    Cl    0.454341 0.088462 0.746169 -0.445416
Cl6   Cl    Cl    0.413891 0.374454 0.116808 -0.521123
Cl7   Cl    Cl    0.579900 0.365123 0.132097 -0.453976
Cl8   Cl    Cl    0.359934 0.524814 0.871953 -0.565997
Cl9   Cl    Cl    0.642956 0.474644 0.860971 -0.500662
Cl10  Cl    Cl    0.859717 0.347067 0.511665 -0.492610
Cu1   Cu    Cu3+1 0.500000 0.573360 0.499960 1.071153
Cu2   Cu    Cu3+1 0.500000 0.426640 0.499960 1.130597
H1    H     H_    0.389798 0.500696 0.105754 0.198487
H2    H     H_    0.411590 0.178360 0.359133 0.153568
H3    H     H_    0.570265 0.833181 0.640786 0.178651
H4    H     H_    0.574224 0.166369 0.631745 0.179953
H5    H     H_    0.507274 0.066878 0.301849 0.172571
H6    H     H_    0.507811 0.931781 0.302270 0.159524
H7    H     H_    0.424481 0.414239 0.885021 0.211775
H8    H     H_    0.550430 0.393575 0.898075 0.233025
H9    H     H_    0.461457 0.612088 0.102335 0.177600
H10   H     H_    0.553433 0.606714 0.113070 0.157940
H11   H     H_    0.472259 0.619088 0.893399 0.217893
H12   H     H_    0.612221 0.487440 0.098467 0.172320
H13   H     H_    0.562615 0.602020 0.903919 0.225277
H14   H     H_    0.717647 0.380789 0.507630 0.217557
H15   H     H_    0.716945 0.618448 0.496065 0.205345
H16   H     H_    0.937606 0.491412 0.702783 0.154998
H17   H     H_    0.933739 0.507182 0.304014 0.147542
H18   H     H_    0.063833 0.492363 0.701917 0.135976
H19   H     H_    0.059816 0.506483 0.301557 0.132447
H20   H     H_    0.157129 0.411271 0.632710 0.154704
H21   H     H_    0.154408 0.584676 0.362788 0.159011
H22   H     H_    0.427766 0.686773 0.352150 0.163619
H23   H     H_    0.419423 0.314021 0.366218 0.194184
H24   H     H_    0.418629 0.822204 0.348048 0.146190
I1    I     I_    0.303361 0.367314 0.687824 -0.170963
I2    I     I_    0.299471 0.612522 0.281133 -0.315174
N1    N     N_R   0.500020 0.683620 0.499990 -0.227145
N2    N     N_R   0.500020 0.316380 0.499990 -0.228744
O1    O     O_R   0.400180 0.561980 0.499950 -0.481557
O2    O     O_R   0.400180 0.438020 0.499950 -0.504891
O3    O     O_R   0.499990 0.561950 0.317660 -0.546764
O4    O     O_R   0.499990 0.438050 0.317660 -0.426733
O5    O     O_R   0.599810 0.561930 0.499990 -0.473585
O6    O     O_R   0.599810 0.438070 0.499990 -0.455843
O7    O     O_R   0.500010 0.561950 0.682280 -0.444199
O8    O     O_R   0.500010 0.438050 0.682280 -0.470583

loop_
_geom_bond_atom_site_label_1
_geom_bond_atom_site_label_2
_ccdc_geom_bond_type
C1    O1    A    
C7    C10   A    
C12   H11   S    
C23   C45   A    
C39   H10   S    
C30   C45   S    
C33   O8    A    
C26   C27   A    
C23   C42   A    
Cu1   O3    S    
C35   C37   S    
C29   C32   A    
C26   Cl4   S    
C10   I1    S    
C35   H1    S    
C17   H24   S    
C25   N2    A    
C36   Cl7   S    
C42   Cl10  S    
C7    C14   A    
C38   Cl9   S    
C15   H22   S    
C27   Cl5   S    
C22   C25   A    
C37   H7    S    
C8    H21   S    
Cu1   O5    S    
C43   Cl2   S    
C21   H3    S    
C15   N1    A    
C1    O2    A    
Cu1   O7    S    
C16   N2    A    
C2    C6    A    
C42   C44   A    
Cu2   N2    S    
C36   H12   S    
C31   H5    S    
C36   C40   S    
C32   H6    S    
C38   C41   S    
C30   O6    A    
C9    O3    A    
C39   C40   S    
C4    C5    A    
C20   C28   S    
C9    C40   S    
Cu1   O1    S    
Cu2   O2    S    
C2    C4    A    
C43   C44   A    
C12   C41   S    
C22   H4    S    
C31   C32   A    
C34   C45   A    
C3    H18   S    
Cu2   O4    S    
C5    C14   S    
C7    H20   S    
C37   Cl8   S    
C18   H2    S    
C12   H13   S    
C20   C22   A    
C1    C13   S    
C19   C29   S    
C46   H16   S    
C24   N1    A    
C15   C17   A    
C38   H8    S    
C8    C14   A    
C6    C46   A    
C19   C21   A    
C24   Cl1   S    
C39   H9    S    
C23   H14   S    
C28   C31   A    
C34   C43   A    
C30   O5    A    
C3    C5    A    
C10   C13   A    
C33   O7    A    
C9    O4    A    
C11   I2    S    
C3    C46   A    
C33   C41   S    
C12   C39   S    
C36   C38   S    
C35   C40   S    
Cu2   O8    S    
C4    H19   S    
C11   C13   A    
Cu1   Cu2   S    
C8    C11   A    
C16   H23   S    
C17   C19   A    
Cu1   N1    S    
C18   C20   A    
C37   C41   S    
C25   Cl3   S    
C34   H15   S    
C26   C29   A    
C16   C18   A    
C21   C24   A    
C35   Cl6   S    
C6    C44   S    
Cu2   O6    S    
C2    H17   S    
C27   C28   A    
