data_mof_unit_16253.cif
_audit_creation_date              2012-12-10T21:01:42-0500
_audit_creation_method            fapswitch 2.2
_symmetry_space_group_name_H-M    P1
_symmetry_Int_Tables_number       1
_space_group_crystal_system       triclinic
_cell_length_a                    15.776679
_cell_length_b                    15.785889
_cell_length_c                    15.052017
_cell_angle_alpha                 89.186045
_cell_angle_beta                  89.019815
_cell_angle_gamma                 90.481508
_cell_volume                      3747.6213995

loop_
_atom_site_label
_atom_site_type_symbol
_atom_type_description
_atom_site_fract_x
_atom_site_fract_y
_atom_site_fract_z
_atom_type_partial_charge
C1    C     C_R   0.500201 0.338648 0.500831 0.905109
C2    C     C_R   0.500147 0.661377 0.499472 0.902696
C3    C     C_R   0.527106 0.913528 0.506264 -0.094103
C4    C     C_R   0.536619 0.088184 0.511114 -0.099432
C5    C     C_R   0.549429 0.959124 0.428578 0.428446
C6    C     C_R   0.518114 0.042494 0.590277 0.436098
C7    C     C_1   0.516757 0.824553 0.500963 0.028194
C8    C     C_1   0.522587 0.176615 0.508269 0.010697
C9    C     C_1   0.510764 0.250665 0.503849 -0.212183
C10   C     C_1   0.508025 0.749880 0.498739 -0.197769
C11   C     C_R   0.456773 0.432067 0.954686 -0.040924
C12   C     C_R   0.569130 0.541477 0.044359 -0.044274
C13   C     C_R   0.509792 0.488865 0.904724 -0.161500
C14   C     C_R   0.511962 0.489172 0.094903 -0.165346
C15   C     C_R   0.569279 0.539129 0.949765 0.430484
C16   C     C_R   0.460555 0.429914 0.049540 0.456124
C17   C     C_1   0.503978 0.495973 0.806924 0.125814
C18   C     C_1   0.504749 0.495941 0.192970 0.117441
C19   C     C_R   0.337487 0.500171 0.500775 0.902557
C20   C     C_R   0.662255 0.500974 0.499160 0.915797
C21   C     C_3   0.966638 0.441585 0.558902 0.424520
C22   C     C_3   0.031837 0.555529 0.443261 0.425382
C23   C     C_3   0.030148 0.421440 0.482423 -0.119515
C24   C     C_3   0.969223 0.575868 0.520311 -0.119954
C25   C     C_1   0.248877 0.500808 0.503090 -0.186589
C26   C     C_1   0.750375 0.501197 0.496748 -0.204507
C27   C     C_3   0.020248 0.519333 0.583918 0.453764
C28   C     C_3   0.978563 0.477820 0.418071 0.397919
C29   C     C_3   0.083054 0.500207 0.507410 -0.177492
C30   C     C_3   0.915369 0.497628 0.495281 -0.211717
C31   C     C_1   0.173842 0.501061 0.505758 0.023152
C32   C     C_1   0.825130 0.500012 0.495063 -0.032287
C33   C     C_R   0.513497 0.954030 0.587999 -0.053198
C34   C     C_R   0.559501 0.047204 0.431936 -0.059466
N1    N     N_1   0.499980 0.500020 0.270550 -0.099500
N2    N     N_1   0.500020 0.499980 0.729450 -0.100683
O1    O     O_R   0.500000 0.378020 0.573650 -0.614925
O2    O     O_R   0.500000 0.621980 0.426350 -0.606518
O3    O     O_R   0.500040 0.378020 0.426320 -0.614921
O4    O     O_R   0.499960 0.621980 0.573680 -0.607726
O5    O     O_R   0.376760 0.499990 0.573650 -0.622420
O6    O     O_R   0.623240 0.500010 0.426350 -0.621441
O7    O     O_R   0.376800 0.499990 0.426320 -0.594692
O8    O     O_R   0.623200 0.500010 0.573680 -0.611918
Zn1   Zn    Zn3+2 0.499970 0.500000 0.598370 0.957386
Zn2   Zn    Zn3+2 0.500030 0.500000 0.401630 0.967216
C35   C     C_3   0.072962 0.337523 0.458691 -0.317450
C36   C     C_3   0.010943 0.269673 0.426501 -0.332990
C37   C     C_3   0.058092 0.196804 0.382804 -0.891914
H1    H     H_    0.093794 0.219922 0.322870 0.270245
H2    H     H_    0.102886 0.167664 0.430245 0.261019
H3    H     H_    0.011883 0.147672 0.362299 0.249016
H4    H     H_    0.974015 0.243251 0.483627 0.199449
H5    H     H_    0.966219 0.296838 0.377910 0.254424
H6    H     H_    0.120907 0.351511 0.405393 0.227430
H7    H     H_    0.106843 0.313010 0.517682 0.180897
C38   C     C_3   0.932070 0.662061 0.544513 -0.346642
C39   C     C_3   0.001226 0.725741 0.569642 -0.316630
C40   C     C_3   0.963610 0.812686 0.587434 -0.920626
H8    H     H_    0.932674 0.837789 0.526880 0.262146
H9    H     H_    0.916204 0.808458 0.642790 0.267282
H10   H     H_    0.014803 0.857353 0.606176 0.254245
H11   H     H_    0.033699 0.703426 0.630400 0.251806
H12   H     H_    0.049375 0.731990 0.515272 0.233161
H13   H     H_    0.895768 0.686931 0.487403 0.179995
H14   H     H_    0.887139 0.652852 0.601575 0.222219
O9    O     O_3   0.937327 0.385257 0.626958 -0.640109
C41   C     C_3   0.873035 0.329978 0.597580 0.095124
H15   H     H_    0.894086 0.263965 0.609818 0.140458
H16   H     H_    0.859453 0.335837 0.525325 0.126211
C42   C     C_3   0.792095 0.343289 0.652905 -0.315716
H17   H     H_    0.803129 0.323779 0.722988 0.215065
H18   H     H_    0.775213 0.411276 0.652409 0.233419
C43   C     C_3   0.717912 0.292356 0.617079 -0.979825
H19   H     H_    0.705178 0.311424 0.547274 0.259825
H20   H     H_    0.660340 0.304768 0.658048 0.269208
H21   H     H_    0.731943 0.223582 0.619913 0.250069
O10   O     O_3   0.074407 0.612903 0.384542 -0.626835
C44   C     C_3   0.016835 0.662772 0.336007 0.106880
H22   H     H_    0.024450 0.729765 0.356208 0.146800
H23   H     H_    0.949136 0.645552 0.347557 0.106022
C45   C     C_3   0.038236 0.656714 0.236907 -0.307850
H24   H     H_    0.102756 0.683343 0.223731 0.226509
H25   H     H_    0.038268 0.589174 0.217194 0.242917
C46   C     C_3   0.974444 0.704905 0.180743 -1.003301
H26   H     H_    0.909787 0.677661 0.191031 0.259096
H27   H     H_    0.992254 0.699912 0.109338 0.271665
H28   H     H_    0.974019 0.772898 0.198757 0.271131
O11   O     O_3   0.966417 0.451555 0.329560 -0.638415
C47   C     C_3   0.890370 0.482128 0.293291 0.091749
H29   H     H_    0.905282 0.506008 0.225011 0.162964
H30   H     H_    0.862101 0.536178 0.329273 0.123662
C48   C     C_3   0.825747 0.409774 0.286655 -0.348281
H31   H     H_    0.853920 0.357438 0.247672 0.224978
H32   H     H_    0.809240 0.384693 0.354108 0.217021
C49   C     C_3   0.745331 0.439774 0.241248 -0.947004
H33   H     H_    0.717439 0.493885 0.277449 0.278210
H34   H     H_    0.697887 0.387560 0.240478 0.261747
H35   H     H_    0.759942 0.459856 0.171594 0.247955
O12   O     O_3   0.029045 0.544153 0.673355 -0.642549
C50   C     C_3   0.106938 0.519382 0.709478 0.075395
H36   H     H_    0.112674 0.552133 0.773966 0.166760
H37   H     H_    0.161747 0.542229 0.668565 0.137016
C51   C     C_3   0.109878 0.423666 0.727851 -0.299079
H38   H     H_    0.052820 0.403690 0.767383 0.256138
H39   H     H_    0.110569 0.388851 0.664344 0.221722
C52   C     C_3   0.188937 0.400213 0.778945 -1.009558
H40   H     H_    0.246489 0.420477 0.740508 0.273032
H41   H     H_    0.190366 0.330542 0.789602 0.274888
H42   H     H_    0.188646 0.431220 0.844735 0.268790
O13   O     O_3   0.496424 0.083165 0.668523 -0.650454
C53   C     C_3   0.566774 0.128624 0.701432 0.073647
H43   H     H_    0.556069 0.197180 0.689128 0.177411
H44   H     H_    0.628842 0.111155 0.670116 0.121054
C54   C     C_3   0.572777 0.112910 0.801593 -0.343520
H45   H     H_    0.510189 0.123820 0.834101 0.234425
H46   H     H_    0.590584 0.045946 0.814329 0.209848
C55   C     C_3   0.638796 0.171041 0.842665 -0.983869
H47   H     H_    0.702406 0.159563 0.812637 0.271780
H48   H     H_    0.641399 0.158245 0.915299 0.268133
H49   H     H_    0.621863 0.238517 0.831889 0.257432
O14   O     O_3   0.562055 0.916945 0.349528 -0.636845
C56   C     C_3   0.484218 0.914298 0.304375 0.066791
H50   H     H_    0.460120 0.979426 0.291262 0.129697
H51   H     H_    0.435629 0.877736 0.343925 0.147650
C57   C     C_3   0.497907 0.870676 0.215631 -0.316684
H52   H     H_    0.546096 0.906755 0.175469 0.221669
H53   H     H_    0.521730 0.805689 0.228236 0.240213
C58   C     C_3   0.415996 0.865258 0.163525 -0.977407
H54   H     H_    0.367188 0.828290 0.201854 0.269966
H55   H     H_    0.428454 0.833084 0.099542 0.265021
H56   H     H_    0.391660 0.929769 0.149176 0.267313
C59   C     C_3   0.491340 0.903752 0.672191 -0.335502
C60   C     C_3   0.395899 0.885164 0.678599 -0.321072
C61   C     C_3   0.373624 0.832326 0.761539 -0.885201
H57   H     H_    0.406756 0.770530 0.759562 0.270339
H58   H     H_    0.392115 0.866663 0.822239 0.262381
H59   H     H_    0.304208 0.820148 0.764617 0.249211
H60   H     H_    0.360668 0.945814 0.681149 0.240125
H61   H     H_    0.375262 0.850024 0.619158 0.217847
H62   H     H_    0.527429 0.843589 0.673847 0.195612
H63   H     H_    0.510981 0.938886 0.731913 0.217168
C62   C     C_3   0.592589 0.097300 0.351251 -0.363831
C63   C     C_3   0.681428 0.133500 0.368206 -0.327568
C64   C     C_3   0.714221 0.186185 0.288974 -0.913759
H64   H     H_    0.719078 0.146432 0.228832 0.265696
H65   H     H_    0.670839 0.239762 0.275908 0.262100
H66   H     H_    0.778057 0.212090 0.303578 0.250262
H67   H     H_    0.680426 0.174357 0.427700 0.224133
H68   H     H_    0.725992 0.080607 0.380609 0.227126
H69   H     H_    0.596612 0.057278 0.291315 0.234214
H70   H     H_    0.547977 0.149261 0.335405 0.197783
O15   O     O_3   0.406299 0.375710 0.097276 -0.649276
C65   C     C_3   0.452263 0.311837 0.142621 0.104456
H71   H     H_    0.412562 0.290177 0.200381 0.176627
H72   H     H_    0.513356 0.334328 0.170132 0.118797
C66   C     C_3   0.469301 0.236199 0.082592 -0.377730
H73   H     H_    0.409942 0.217460 0.049050 0.238422
H74   H     H_    0.518160 0.254877 0.031957 0.209189
C67   C     C_3   0.502332 0.160326 0.135060 -0.989154
H75   H     H_    0.563058 0.177099 0.166771 0.270570
H76   H     H_    0.513691 0.106763 0.089451 0.270965
H77   H     H_    0.455379 0.139675 0.186955 0.261231
O16   O     O_3   0.623562 0.592391 0.901410 -0.642826
C68   C     C_3   0.694865 0.546125 0.872083 0.076484
H78   H     H_    0.676776 0.502005 0.818464 0.147140
H79   H     H_    0.723210 0.508919 0.927532 0.117647
C69   C     C_3   0.761736 0.608511 0.835189 -0.358324
H80   H     H_    0.734316 0.646488 0.780118 0.232283
H81   H     H_    0.780525 0.652477 0.888594 0.224472
C70   C     C_3   0.840420 0.563138 0.800471 -0.889536
H82   H     H_    0.823995 0.522290 0.743844 0.273260
H83   H     H_    0.868566 0.523771 0.853939 0.260911
H84   H     H_    0.888328 0.610681 0.777019 0.282697
C71   C     C_3   0.392573 0.377385 0.906669 -0.344711
C72   C     C_3   0.434666 0.306678 0.852371 -0.378321
C73   C     C_3   0.371574 0.264297 0.791117 -0.861746
H85   H     H_    0.315825 0.239843 0.829873 0.257460
H86   H     H_    0.350693 0.310019 0.739469 0.269582
H87   H     H_    0.402116 0.210409 0.757078 0.279783
H88   H     H_    0.488558 0.331301 0.811141 0.227934
H89   H     H_    0.459887 0.257738 0.897669 0.218542
H90   H     H_    0.345800 0.347821 0.953803 0.236219
H91   H     H_    0.355605 0.419173 0.862056 0.203366
C74   C     C_3   0.632683 0.598539 0.089797 -0.354212
C75   C     C_3   0.608499 0.692106 0.081743 -0.303355
C76   C     C_3   0.674661 0.748420 0.125161 -0.910691
H92   H     H_    0.676980 0.734495 0.197633 0.269164
H93   H     H_    0.738299 0.737926 0.094726 0.265213
H94   H     H_    0.658052 0.815979 0.115091 0.251954
H95   H     H_    0.603704 0.711543 0.010850 0.261083
H96   H     H_    0.545743 0.701743 0.114455 0.216286
H97   H     H_    0.638445 0.581777 0.161237 0.193038
H98   H     H_    0.696690 0.588893 0.059956 0.199989

loop_
_geom_bond_atom_site_label_1
_geom_bond_atom_site_label_2
_ccdc_geom_bond_type
C25   C31   T    
C7    C10   T    
C70   H82   S    
C26   C32   T    
C68   H78   S    
C22   C29   S    
C27   C29   S    
C6    O13   S    
C14   C18   S    
O13   C53   S    
C24   C27   S    
C38   H14   S    
C4    C8    S    
C51   H39   S    
C64   H64   S    
C38   C39   S    
C61   H57   S    
C46   H26   S    
C72   H89   S    
C70   H83   S    
C59   H63   S    
C48   H31   S    
C43   H20   S    
C23   C29   S    
C35   H6    S    
O16   C68   S    
C3    C7    S    
C41   C42   S    
C60   H61   S    
C56   H51   S    
C3    C33   A    
C62   C63   S    
C49   H35   S    
C72   H88   S    
O6    Zn2   S    
C75   H95   S    
C55   H47   S    
C53   H43   S    
C76   H94   S    
C63   H68   S    
C20   O8    A    
C69   C70   S    
C35   C36   S    
C41   H15   S    
C54   H46   S    
C43   H21   S    
C49   H34   S    
C52   H40   S    
C28   O11   S    
C17   N2    T    
C18   N1    T    
C74   H98   S    
C65   H72   S    
C47   H29   S    
C1    O1    A    
C50   H37   S    
C58   H56   S    
C54   C55   S    
C69   H81   S    
C21   C27   S    
C40   H8    S    
C48   H32   S    
C22   C28   S    
C21   O9    S    
C66   H73   S    
C52   H41   S    
O4    Zn1   S    
C53   H44   S    
C51   H38   S    
C64   H65   S    
C19   O7    A    
C24   C30   S    
C46   H27   S    
C39   H12   S    
C36   H4    S    
C27   O12   S    
C70   H84   S    
C4    C34   A    
C34   C62   S    
C40   H9    S    
C23   C35   S    
C43   H19   S    
O9    C41   S    
C50   H36   S    
C15   O16   S    
C56   H50   S    
C1    C9    S    
C22   O10   S    
C65   C66   S    
C4    C6    A    
C74   H97   S    
C60   H60   S    
C42   H18   S    
O10   C44   S    
C8    C9    T    
C56   C57   S    
C57   C58   S    
C37   H2    S    
C39   C40   S    
C5    O14   S    
C55   H49   S    
C67   H76   S    
C66   H74   S    
C36   H5    S    
C67   H77   S    
C5    C34   A    
C63   H67   S    
C33   C59   S    
C42   C43   S    
C11   C16   A    
C2    O2    A    
C47   H30   S    
C71   C72   S    
C12   C15   A    
C73   H87   S    
C49   H33   S    
N2    Zn1   S    
C23   C28   S    
C65   H71   S    
C61   H59   S    
C73   H85   S    
O3    Zn2   S    
C41   H16   S    
C69   H80   S    
C12   C14   A    
C45   H24   S    
C48   C49   S    
C45   H25   S    
C21   C23   S    
C59   C60   S    
C52   H42   S    
C22   C24   S    
O1    Zn1   S    
C2    C10   S    
C64   H66   S    
O8    Zn1   S    
C47   C48   S    
C71   H90   S    
C58   H54   S    
C24   C38   S    
C46   H28   S    
C39   H11   S    
C61   H58   S    
C72   C73   S    
C40   H10   S    
C57   H53   S    
C62   H69   S    
C11   C71   S    
C37   H3    S    
C38   H13   S    
C63   C64   S    
C3    C5    A    
C44   C45   S    
C20   O6    A    
C44   H23   S    
C60   C61   S    
C66   C67   S    
C45   C46   S    
C21   C30   S    
C59   H62   S    
C68   C69   S    
C6    C33   A    
C13   C17   S    
C67   H75   S    
C13   C15   A    
O15   C65   S    
C76   H92   S    
C29   C31   S    
O2    Zn2   S    
C30   C32   S    
C11   C13   A    
C74   C75   S    
C20   C26   S    
C57   H52   S    
C36   C37   S    
C12   C74   S    
C28   C30   S    
O12   C50   S    
C73   H86   S    
C14   C16   A    
C53   C54   S    
C75   H96   S    
C19   C25   S    
O7    Zn2   S    
C55   H48   S    
C76   H93   S    
C1    O3    A    
C44   H22   S    
C2    O4    A    
C42   H17   S    
C68   H79   S    
C37   H1    S    
C16   O15   S    
O14   C56   S    
O5    Zn1   S    
C71   H91   S    
C50   C51   S    
C54   H45   S    
C75   C76   S    
O11   C47   S    
N1    Zn2   S    
C51   C52   S    
C62   H70   S    
C19   O5    A    
C35   H7    S    
C58   H55   S    
