data_mof_unit_22496.cif
_audit_creation_date              2012-12-10T20:35:50-0500
_audit_creation_method            fapswitch 2.2
_symmetry_space_group_name_H-M    P1
_symmetry_Int_Tables_number       1
_space_group_crystal_system       triclinic
_cell_length_a                    15.753708
_cell_length_b                    10.679311
_cell_length_c                    9.888562
_cell_angle_alpha                 90.168114
_cell_angle_beta                  88.587517
_cell_angle_gamma                 89.489287
_cell_volume                      1663.05942686

loop_
_atom_site_label
_atom_site_type_symbol
_atom_type_description
_atom_site_fract_x
_atom_site_fract_y
_atom_site_fract_z
_atom_type_partial_charge
C1    C     C_R   0.503365 0.260087 0.499765 0.903668
C2    C     C_3   0.949706 0.394092 0.588457 -0.275554
C3    C     C_3   0.916826 0.508084 0.502596 -0.052027
C4    C     C_3   0.948813 0.640099 0.559469 -0.203844
C5    C     C_3   0.048604 0.627044 0.577390 -0.139104
C6    C     C_1   0.825256 0.504491 0.496853 0.093243
C7    C     C_1   0.174732 0.505788 0.505673 0.020916
C8    C     C_1   0.249894 0.504226 0.504748 -0.101737
C9    C     C_R   0.519066 0.064570 0.621949 0.061810
C10   C     C_R   0.517882 0.128698 0.499694 -0.074408
C11   C     C_R   0.531945 0.063824 0.377631 -0.145314
C12   C     C_R   0.338484 0.501229 0.501548 0.926825
C13   C     C_R   0.531264 0.934391 0.378001 -0.139789
C14   C     C_R   0.515392 0.871302 0.500202 -0.086008
C15   C     C_R   0.516035 0.936799 0.622405 0.074664
C16   C     C_3   0.457033 0.934976 0.744991 -0.168638
C17   C     C_3   0.462477 0.077671 0.744914 -0.451499
C18   C     C_R   0.436390 0.557887 0.074478 0.198719
C19   C     C_R   0.563493 0.441327 0.067081 0.195680
C20   C     C_R   0.564407 0.445114 0.924132 -0.097078
C21   C     C_R   0.434829 0.553365 0.931756 0.217672
C22   C     C_3   0.343595 0.512904 0.935413 -0.401538
C23   C     C_R   0.502302 0.739974 0.500074 0.887191
C24   C     C_3   0.344547 0.525905 0.088230 -0.472893
C25   C     C_R   0.661544 0.499962 0.498468 0.905669
C26   C     C_3   0.048299 0.390629 0.584526 -0.001798
C27   C     C_3   0.051430 0.509367 0.354161 -0.256771
C28   C     C_3   0.953669 0.489553 0.354460 -0.046974
C29   C     C_1   0.750149 0.501923 0.495580 -0.015860
C30   C     C_3   0.083249 0.505481 0.504058 0.042189
H1    H     H_    0.928554 0.306916 0.539136 0.191320
H2    H     H_    0.073376 0.394673 0.688044 0.193652
H3    H     H_    0.537199 0.111976 0.281643 0.201355
H4    H     H_    0.537003 0.885047 0.282275 0.196924
H5    H     H_    0.401879 0.127139 0.723125 0.256601
H6    H     H_    0.497271 0.118010 0.831152 0.232009
H7    H     H_    0.615035 0.398988 0.866721 0.180566
H8    H     H_    0.300580 0.581731 0.887851 0.196852
H9    H     H_    0.305957 0.606659 0.126806 0.227316
H10   H     H_    0.333348 0.437271 0.144503 0.246937
H11   H     H_    0.062184 0.607075 0.319334 0.151733
H12   H     H_    0.925951 0.561452 0.286867 0.179725
H13   H     H_    0.081941 0.708184 0.531674 0.224715
N1    N     N_R   0.499430 0.499140 0.142800 -0.135574
N2    N     N_R   0.499430 0.499180 0.857150 -0.128678
O1    O     O_R   0.500010 0.316790 0.614690 -0.615381
O2    O     O_R   0.500000 0.316760 0.385350 -0.603470
O3    O     O_R   0.377150 0.500020 0.614720 -0.628049
O4    O     O_R   0.377140 0.499990 0.385380 -0.613808
O5    O     O_R   0.500000 0.683240 0.614650 -0.598182
O6    O     O_R   0.499990 0.683210 0.385310 -0.619270
O7    O     O_R   0.622860 0.500010 0.614620 -0.594561
O8    O     O_R   0.622850 0.499980 0.385280 -0.600422
Zn1   Zn    Zn3+2 0.500010 0.500020 0.653130 1.015006
Zn2   Zn    Zn3+2 0.499990 0.499980 0.346870 1.008642
C31   C     C_2   0.910571 0.383871 0.730209 1.012284
O9    O     O_2   0.950763 0.410576 0.830394 -0.550988
O10   O     O_R   0.827095 0.341711 0.745659 -0.778338
H14   H     H_    0.807116 0.338936 0.843856 0.370288
C32   C     C_2   0.927193 0.744439 0.458034 0.885331
O11   O     O_2   0.852813 0.765957 0.432492 -0.608585
O12   O     O_R   0.990384 0.816913 0.395410 -0.779063
H15   H     H_    0.966534 0.881939 0.331850 0.381507
C33   C     C_2   0.368366 0.888324 0.716871 0.938643
O13   O     O_2   0.332278 0.921496 0.614574 -0.596504
O14   O     O_R   0.327105 0.809149 0.808842 -0.781957
H16   H     H_    0.268114 0.786232 0.779273 0.360020
C34   C     C_2   0.496571 0.876513 0.868053 0.952851
O15   O     O_2   0.464413 0.895180 0.980241 -0.593520
O16   O     O_R   0.569574 0.801607 0.854012 -0.771774
H17   H     H_    0.589077 0.767275 0.943658 0.338782
I1    I     I_    0.657836 0.325393 0.151046 -0.279631
I2    I     I_    0.096007 0.208003 0.523286 -0.109583
C35   C     C_2   0.330163 0.378589 0.890344 1.038907
O17   O     O_2   0.376843 0.295184 0.929963 -0.587763
O18   O     O_R   0.263546 0.347369 0.806341 -0.748965
H18   H     H_    0.226714 0.421933 0.783229 0.306412
C36   C     C_2   0.099480 0.434491 0.245100 1.001686
O19   O     O_2   0.155911 0.360332 0.272438 -0.587098
O20   O     O_R   0.080398 0.455806 0.109647 -0.731937
H19   H     H_    0.116767 0.403330 0.044722 0.369574
I3    I     I_    0.912229 0.317465 0.256651 -0.186410
I4    I     I_    0.094600 0.643903 0.784037 -0.273797
C37   C     C_2   0.904507 0.685143 0.690895 1.012170
O21   O     O_2   0.847292 0.625919 0.745524 -0.599451
O22   O     O_R   0.925925 0.802075 0.744045 -0.735038
H20   H     H_    0.891744 0.824292 0.829111 0.368576

loop_
_geom_bond_atom_site_label_1
_geom_bond_atom_site_label_2
_ccdc_geom_bond_type
C26   H2    S    
C18   C21   A    
C19   C20   A    
C12   O3    A    
C3    C6    S    
C26   I2    S    
C12   O4    A    
C7    C8    T    
O3    Zn1   S    
O5    Zn1   S    
C35   O18   S    
C18   C24   S    
C3    C28   S    
C37   O22   S    
C5    I4    S    
C36   O20   S    
C1    O1    A    
C15   C16   S    
C22   H8    S    
C24   H9    S    
C31   O9    D    
C32   O12   S    
C34   O15   D    
O16   H17   S    
C16   C34   S    
C17   H6    S    
C9    C10   A    
C20   N2    A    
C27   C36   S    
O14   H16   S    
C5    H13   S    
C7    C30   S    
C21   C22   S    
C27   C30   S    
O1    Zn1   S    
C19   I1    S    
O7    Zn1   S    
C21   N2    A    
O8    Zn2   S    
C25   C29   S    
C35   O17   D    
C28   I3    S    
C11   H3    S    
O18   H18   S    
O22   H20   S    
C1    O2    A    
C23   O5    A    
O10   H14   S    
O4    Zn2   S    
C2    H1    S    
C33   O14   S    
C14   C23   S    
O12   H15   S    
C18   N1    A    
C27   H11   S    
C23   O6    A    
C4    C37   S    
C8    C12   S    
C4    C32   S    
C2    C26   S    
C37   O21   D    
C9    C17   S    
N2    Zn1   S    
C26   C30   S    
C22   C24   S    
C22   C35   S    
C3    C4    S    
C19   N1    A    
O2    Zn2   S    
C5    C30   S    
C36   O19   D    
C1    C10   S    
C25   O8    A    
O20   H19   S    
C16   C33   S    
C33   O13   D    
C2    C3    S    
C9    C15   A    
C25   O7    A    
C13   H4    S    
C2    C31   S    
C20   H7    S    
C11   C13   A    
N1    Zn2   S    
C16   C17   S    
C28   H12   S    
C24   H10   S    
C31   O10   S    
O6    Zn2   S    
C10   C11   A    
C4    C5    S    
C6    C29   T    
C34   O16   S    
C27   C28   S    
C14   C15   A    
C32   O11   D    
C17   H5    S    
C13   C14   A    
