data_mof_unit_10396.cif
_audit_creation_date              2012-12-11T15:49:09-0500
_audit_creation_method            fapswitch 2.2
_symmetry_space_group_name_H-M    P1
_symmetry_Int_Tables_number       1
_space_group_crystal_system       triclinic
_cell_length_a                    21.630966
_cell_length_b                    7.17877
_cell_length_c                    14.958819
_cell_angle_alpha                 90.005155
_cell_angle_beta                  107.612418
_cell_angle_gamma                 90.001018
_cell_volume                      2213.97733554

loop_
_atom_site_label
_atom_site_type_symbol
_atom_type_description
_atom_site_fract_x
_atom_site_fract_y
_atom_site_fract_z
_atom_type_partial_charge
O1    O     O_R   0.335860 0.638190 0.002110 -0.541521
O2    O     O_R   0.664140 0.361810 0.997890 -0.541521
O3    O     O_R   0.164140 0.138190 0.997890 -0.541518
O4    O     O_R   0.835860 0.861810 0.002110 -0.541519
O5    O     O_R   0.217530 0.305920 0.861960 -0.538022
O6    O     O_R   0.782470 0.694080 0.138040 -0.538025
O7    O     O_R   0.282470 0.805920 0.138040 -0.538016
O8    O     O_R   0.717530 0.194080 0.861960 -0.538018
C1    C     C_R   0.206011 0.477653 0.825485 0.692246
C2    C     C_R   0.793989 0.522347 0.174515 0.692235
C3    C     C_R   0.293987 0.977669 0.174513 0.692246
C4    C     C_R   0.706012 0.022332 0.825487 0.692249
O9    O     O_R   0.338690 0.308320 0.993240 -0.543894
O10   O     O_R   0.661310 0.691680 0.006760 -0.543894
O11   O     O_R   0.161310 0.808320 0.006760 -0.543898
O12   O     O_R   0.838690 0.191680 0.993240 -0.543898
O13   O     O_R   0.286170 0.140430 0.130100 -0.535750
O14   O     O_R   0.713830 0.859570 0.869900 -0.535745
O15   O     O_R   0.213830 0.640430 0.869900 -0.535742
O16   O     O_R   0.786170 0.359570 0.130100 -0.535743
C5    C     C_R   0.364972 0.477296 0.997787 0.683636
C6    C     C_R   0.635028 0.522704 0.002213 0.683636
C7    C     C_R   0.135028 0.977295 0.002213 0.683627
C8    C     C_R   0.864972 0.022705 0.997787 0.683629
O17   O     O_3   0.232630 0.472410 0.044750 -0.374466
O18   O     O_3   0.767370 0.527590 0.955250 -0.374465
O19   O     O_3   0.267370 0.972410 0.955250 -0.374464
O20   O     O_3   0.732630 0.027590 0.044750 -0.374468
V1    V     V_3+5 0.253220 0.196620 0.991700 1.449763
V2    V     V_3+5 0.746780 0.803380 0.008300 1.449748
V3    V     V_3+5 0.246780 0.696620 0.008300 1.449750
V4    V     V_3+5 0.753220 0.303380 0.991700 1.449737
C9    C     C_R   0.029883 0.826282 0.003269 -0.137337
C10   C     C_R   0.970117 0.173717 0.996731 -0.137333
C11   C     C_R   0.470116 0.326282 0.996732 -0.137326
C12   C     C_R   0.529884 0.673718 0.003269 -0.137328
H1    H     H_    0.051676 0.689861 0.005583 0.122599
H2    H     H_    0.948324 0.310139 0.994417 0.122597
H3    H     H_    0.448321 0.189860 0.994418 0.122603
H4    H     H_    0.551679 0.810140 0.005583 0.122602
C13   C     C_R   0.964881 0.837588 0.001567 -0.118392
C14   C     C_R   0.035119 0.162412 0.998434 -0.118384
C15   C     C_R   0.535117 0.337586 0.998434 -0.118393
C16   C     C_R   0.464883 0.662414 0.001567 -0.118389
H5    H     H_    0.938918 0.709158 0.002882 0.124746
H6    H     H_    0.061082 0.290842 0.997118 0.124748
H7    H     H_    0.561079 0.209155 0.997119 0.124748
H8    H     H_    0.438921 0.790845 0.002882 0.124749
C17   C     C_R   0.933991 0.011494 0.998287 -0.035026
C18   C     C_R   0.066009 0.988506 0.001714 -0.035029
C19   C     C_R   0.566009 0.511492 0.001714 -0.035036
C20   C     C_R   0.433991 0.488508 0.998287 -0.035032
C21   C     C_R   0.680809 0.003624 0.722821 -0.101801
C22   C     C_R   0.319189 0.996385 0.277179 -0.101799
C23   C     C_R   0.819191 0.503660 0.277181 -0.101829
C24   C     C_R   0.180816 0.496336 0.722818 -0.101808
C25   C     C_R   0.682690 0.830465 0.582983 -0.062351
C26   C     C_R   0.317313 0.169582 0.417009 -0.062444
C27   C     C_R   0.817313 0.330461 0.416998 -0.062444
C28   C     C_R   0.182703 0.669551 0.583013 -0.062399
C29   C     C_R   0.715022 0.898267 0.674151 -0.145345
C30   C     C_R   0.284980 0.101772 0.325843 -0.145384
C31   C     C_R   0.784979 0.398281 0.325840 -0.145357
C32   C     C_R   0.215032 0.601724 0.674169 -0.145372
C33   C     C_R   0.617652 0.061537 0.677154 -0.207020
C34   C     C_R   0.382345 0.938461 0.322848 -0.207015
C35   C     C_R   0.882352 0.561567 0.322852 -0.207021
C36   C     C_R   0.117659 0.438414 0.677135 -0.207024
C37   C     C_R   0.583849 0.995220 0.586664 0.090147
C38   C     C_R   0.416151 0.004793 0.413333 0.090142
C39   C     C_R   0.916159 0.495215 0.413326 0.090164
C40   C     C_R   0.083859 0.504752 0.586656 0.090171
C41   C     C_R   0.614382 0.858967 0.545179 0.041712
C42   C     C_R   0.385621 0.141067 0.454812 0.041703
C43   C     C_R   0.885625 0.358940 0.454789 0.041705
C44   C     C_R   0.114395 0.641037 0.545200 0.041706
C45   C     C_R   0.518564 0.049485 0.540216 0.069980
C46   C     C_R   0.481436 0.950530 0.459781 0.069997
C47   C     C_R   0.981447 0.549465 0.459779 0.069987
C48   C     C_R   0.018574 0.450487 0.540195 0.069992
C49   C     C_R   0.509456 0.793992 0.430669 -0.212664
C50   C     C_R   0.490548 0.206032 0.569323 -0.212674
C51   C     C_R   0.990553 0.293918 0.569271 -0.212670
C52   C     C_R   0.009470 0.706016 0.430696 -0.212669
C53   C     C_R   0.574462 0.747740 0.471865 -0.035356
C54   C     C_R   0.425545 0.252305 0.528118 -0.035306
C55   C     C_R   0.925547 0.247669 0.528066 -0.035304
C56   C     C_R   0.074476 0.752280 0.471907 -0.035335
H9    H     H_    0.406706 0.858531 0.282297 0.113182
H10   H     H_    0.593287 0.141452 0.717707 0.113187
H11   H     H_    0.093291 0.358479 0.717671 0.113192
H12   H     H_    0.906715 0.641498 0.282310 0.113181
H13   H     H_    0.480364 0.699912 0.378155 0.125394
H14   H     H_    0.519642 0.300108 0.621835 0.125402
H15   H     H_    0.019647 0.199816 0.621759 0.125404
H16   H     H_    0.980380 0.800102 0.378198 0.125399
C57   C     C_1   0.594990 0.567954 0.447351 0.319514
N1    N     N_1   0.610993 0.423547 0.427939 -0.284876
C58   C     C_1   0.405025 0.432124 0.552602 0.319546
N2    N     N_1   0.389028 0.576556 0.571988 -0.284993
C59   C     C_1   0.905017 0.067849 0.552523 0.319545
N3    N     N_1   0.889011 0.923419 0.571890 -0.285005
C60   C     C_1   0.095004 0.932093 0.447439 0.319529
N4    N     N_1   0.111007 0.076520 0.428065 -0.284995
C61   C     C_1   0.216560 0.137621 0.280907 0.386653
N5    N     N_1   0.162015 0.165839 0.244690 -0.310255
C62   C     C_1   0.783446 0.862464 0.719078 0.386563
N6    N     N_1   0.837996 0.834288 0.755285 -0.310240
C63   C     C_1   0.283452 0.637567 0.719113 0.386627
N7    N     N_1   0.337998 0.665778 0.755337 -0.310252
C64   C     C_1   0.716558 0.362436 0.280900 0.386679
N8    N     N_1   0.662011 0.334222 0.244677 -0.310234
C65   C     C_2   0.720653 0.745724 0.524785 0.821170
O21   O     O_2   0.768844 0.652057 0.561102 -0.529467
O22   O     O_R   0.701809 0.777284 0.427994 -0.628953
H17   H     H_    0.732295 0.717656 0.396573 0.301748
C66   C     C_2   0.279355 0.254345 0.475208 0.821286
O23   O     O_2   0.231149 0.347945 0.438892 -0.529442
O24   O     O_R   0.298217 0.222876 0.572003 -0.628950
H18   H     H_    0.267731 0.282493 0.603426 0.301765
C67   C     C_2   0.779355 0.245754 0.475211 0.821317
O25   O     O_2   0.731105 0.152277 0.438895 -0.529408
O26   O     O_R   0.798264 0.277160 0.572022 -0.628948
H19   H     H_    0.767772 0.217599 0.603455 0.301758
C68   C     C_2   0.220668 0.754342 0.524835 0.821293
O27   O     O_2   0.268869 0.847964 0.561173 -0.529443
O28   O     O_R   0.201817 0.722874 0.428037 -0.628952
H20   H     H_    0.232305 0.782524 0.396629 0.301760

loop_
_geom_bond_atom_site_label_1
_geom_bond_atom_site_label_2
_ccdc_geom_bond_type
O17   V3    S    
C51   C55   A    
C26   C30   A    
C59   N3    T    
C50   H14   S    
O19   V1    S    
O13   V1    S    
C37   C45   A    
C64   N8    T    
C10   C14   A    
C40   C44   A    
O15   V3    S    
C39   C47   A    
C57   N1    T    
O26   H19   S    
C30   C61   S    
C45   C46   A    
O1    C5    A    
O9    V1    S    
C28   C68   S    
C66   O24   S    
C14   H6    S    
C47   C52   A    
O4    C8    A    
C38   C46   A    
O22   H17   S    
O1    V3    S    
C36   H11   S    
O2    V4    S    
C52   H16   S    
C25   C41   A    
O3    V1    S    
O3    C7    A    
C38   C42   A    
C55   C59   S    
C21   C29   A    
C1    O15   A    
C2    O16   A    
C23   C31   A    
O2    C6    A    
C62   N6    T    
C24   C32   A    
C37   C41   A    
O14   V2    S    
C21   C33   A    
C44   C56   A    
C4    C21   S    
C36   C40   A    
C16   C20   A    
O11   C7    A    
O12   C8    A    
O10   V2    S    
C48   C51   A    
C13   C17   A    
O7    C3    A    
C34   H9    S    
O5    V1    S    
C33   H10   S    
O7    V3    S    
O8    V4    S    
C12   H4    S    
O18   V4    S    
C7    C18   S    
C25   C65   S    
C22   C30   A    
C9    C18   A    
C50   C54   A    
C28   C44   A    
C26   C66   S    
C9    H1    S    
C11   H3    S    
O5    C1    A    
C2    C23   S    
C49   H13   S    
C58   N2    T    
O8    C4    A    
C51   H15   S    
O9    C5    A    
C1    C24   S    
C42   C54   A    
C25   C29   A    
C54   C58   S    
C12   C19   A    
C41   C53   A    
C67   O25   D    
C3    C22   S    
C14   C18   A    
C43   C55   A    
O6    V2    S    
C68   O27   D    
C12   C16   A    
O28   H20   S    
C27   C43   A    
C11   C20   A    
C56   C60   S    
C11   C15   A    
C26   C42   A    
C65   O21   D    
O16   V4    S    
C8    C17   S    
C3    O13   A    
C10   C17   A    
C10   H2    S    
C52   C56   A    
O6    C2    A    
C23   C35   A    
O24   H18   S    
O11   V3    S    
C22   C34   A    
O12   V4    S    
C61   N5    T    
C27   C31   A    
C28   C32   A    
C9    C13   A    
O10   C6    A    
O20   V2    S    
C40   C48   A    
C24   C36   A    
C63   N7    T    
C39   C43   A    
C46   C49   A    
C15   C19   A    
C32   C63   S    
C34   C38   A    
C45   C50   A    
C33   C37   A    
C35   H12   S    
C35   C39   A    
C31   C64   S    
C29   C62   S    
O4    V2    S    
C67   O26   S    
C53   C57   S    
C47   C48   A    
C4    O14   A    
C60   N4    T    
C68   O28   S    
C13   H5    S    
C66   O23   D    
C27   C67   S    
C15   H7    S    
C5    C20   S    
C49   C53   A    
C16   H8    S    
C6    C19   S    
C65   O22   S    
