data_mof_unit_30065.cif
_audit_creation_date              2013-03-05T15:50:50-0500
_audit_creation_method            fapswitch 2.2
_symmetry_space_group_name_H-M    P1
_symmetry_Int_Tables_number       1
_space_group_crystal_system       triclinic
_cell_length_a                    8.271708
_cell_length_b                    14.953817
_cell_length_c                    17.321129
_cell_angle_alpha                 96.134162
_cell_angle_beta                  95.823639
_cell_angle_gamma                 98.088354
_cell_volume                      2094.23220008

loop_
_atom_site_label
_atom_site_type_symbol
_atom_site_description
_atom_site_fract_x
_atom_site_fract_y
_atom_site_fract_z
_atom_type_partial_charge
P1    P     P_3+3 0.994840 0.708040 0.567640 0.469789
O1    O     O_2   0.167800 0.722260 0.545390 -0.383167
O2    O     O_3   0.895640 0.608830 0.542800 -0.408921
O3    O     O_3   0.383370 0.666730 0.405950 -0.357656
O4    O     O_2   0.301989 0.825414 0.456506 -0.368471
O5    O     O_3   0.019956 0.735580 0.669224 -0.551995
O6    O     O_3   0.363375 0.805150 0.312099 -0.439864
H1    H     H_    0.530070 0.718374 0.279645 0.043466
C1    C     C_3   0.399868 0.758696 0.179649 -0.779740
H2    H     H_    0.295882 0.701927 0.174619 0.256152
H3    H     H_    0.354788 0.819923 0.159875 0.277969
P2    P     P_3+3 0.329360 0.428650 0.323990 0.468422
P3    P     P_3+3 0.920668 0.619888 0.264335 0.467723
O7    O     O_2   0.160640 0.456070 0.313250 -0.397870
O8    O     O_3   0.956200 0.620970 0.366040 -0.337175
O9    O     O_2   0.016751 0.547420 0.228983 -0.385792
O10   O     O_3   0.311599 0.309008 0.309626 -0.585784
O11   O     O_3   0.027924 0.721093 0.240064 -0.538575
C2    C     C_3   0.923201 0.783281 0.218668 0.710162
H4    H     H_    0.793266 0.761015 0.227087 -0.134749
C3    C     C_3   0.930563 0.794502 0.131753 -0.199823
H5    H     H_    0.060854 0.803357 0.119639 0.151621
C4    C     C_3   0.741041 0.352226 0.300378 0.403401
H6    H     H_    0.648467 0.382417 0.331899 0.109788
H7    H     H_    0.855160 0.402218 0.305745 0.114790
C5    C     C_3   0.675225 0.327916 0.214195 -0.918385
H8    H     H_    0.548585 0.289590 0.208035 0.277068
H9    H     H_    0.754522 0.285244 0.183990 0.274035
Ba1   Ba    Ba6+2 0.159600 0.544390 0.464800 1.604595
C6    C     C_3   0.064130 0.662562 0.705680 0.409483
H10   H     H_    0.182174 0.646812 0.687631 0.082408
H11   H     H_    0.967202 0.601937 0.691215 0.108763
C7    C     C_3   0.084963 0.690936 0.793579 -0.905747
H12   H     H_    0.183110 0.750835 0.809309 0.288706
H13   H     H_    0.119250 0.634950 0.825447 0.201130
C8    C     C_3   0.149444 0.265114 0.286483 0.810331
H14   H     H_    0.063138 0.298305 0.319888 0.022686
C9    C     C_3   0.104579 0.265292 0.198474 -0.961468
H15   H     H_    0.077025 0.333087 0.186158 0.219891
H16   H     H_    0.993498 0.214862 0.176391 0.273926
H17   H     H_    0.207528 0.247863 0.166180 0.262949
P4    P     P_3+3 0.815450 0.291950 0.432300 0.501508
O12   O     O_2   0.642490 0.277680 0.454580 -0.333019
O13   O     O_3   0.914650 0.391160 0.457140 -0.414784
O14   O     O_3   0.426920 0.333260 0.593990 -0.336853
O15   O     O_3   0.773720 0.272694 0.330250 -0.551186
P5    P     P_3+3 0.893575 0.388316 0.736893 0.486620
O16   O     O_3   0.389280 0.546240 0.592390 -0.400375
O17   O     O_3   0.854100 0.379030 0.633890 -0.358901
O18   O     O_2   0.753806 0.431437 0.772184 -0.327907
O19   O     O_3   0.869198 0.278785 0.765409 -0.577206
Ba2   Ba    Ba6+2 0.650570 0.455600 0.535140 1.634547
P6    P     P_3+3 0.424540 0.784111 0.407112 0.501264
C10   C     C_3   0.479878 0.779937 0.263804 0.401076
H18   H     H_    0.581407 0.837700 0.267635 0.125665
H19   H     H_    0.490653 0.737544 0.141228 0.218116
O20   O     O_3   0.421020 0.453750 0.407550 -0.362957
C11   C     C_3   0.571206 0.735951 0.643846 0.387311
H20   H     H_    0.683463 0.710691 0.626637 0.096161
H21   H     H_    0.471224 0.719154 0.594400 0.123048
C12   C     C_3   0.607725 0.839002 0.663380 -0.886996
H22   H     H_    0.710824 0.858096 0.711243 0.289294
H23   H     H_    0.642145 0.871209 0.611489 0.204247
H24   H     H_    0.496985 0.865209 0.682099 0.276934
P7    P     P_3+3 0.480793 0.579646 0.688676 0.444612
O21   O     O_2   0.649650 0.543880 0.686730 -0.358849
O22   O     O_3   0.524152 0.698182 0.710226 -0.563220
H25   H     H_    0.866029 0.732374 0.094472 0.073654
C13   C     C_3   0.001121 0.232766 0.747551 0.725417
H26   H     H_    0.095429 0.273226 0.718471 0.025646
C14   C     C_3   0.085604 0.209887 0.824201 -0.717931
H27   H     H_    0.187671 0.171648 0.812525 0.275596
H28   H     H_    0.136764 0.273112 0.863523 0.220416
H29   H     H_    0.996061 0.168037 0.854508 0.253915
P8    P     P_3+3 0.378285 0.214508 0.586156 0.479903
C15   C     C_3   0.513082 0.197387 0.726989 0.663835
O23   O     O_2   0.523703 0.170518 0.557203 -0.406594
O24   O     O_3   0.359652 0.186549 0.681248 -0.614956
H30   H     H_    0.671479 0.109248 0.780327 0.160518
C16   C     C_3   0.550603 0.102981 0.744237 -0.168039
H31   H     H_    0.559775 0.061429 0.688122 0.134060
C17   C     C_R   0.178679 0.166258 0.530085 0.258064
C18   C     C_R   0.108038 0.073747 0.527557 0.001372
C19   C     C_R   0.962348 0.888349 0.524028 -0.050018
C20   C     C_R   0.119053 0.921656 0.564264 -0.000617
C21   C     C_R   0.192710 0.011079 0.563215 -0.072268
C22   C     C_R   0.892684 0.794683 0.517839 0.278336
H32   H     H_    0.189406 0.879151 0.596140 0.173847
H33   H     H_    0.316639 0.030342 0.591794 0.157920
C23   C     C_R   0.735117 0.766695 0.477667 -0.481339
C24   C     C_R   0.922240 0.201599 0.469047 0.256512
C25   C     C_R   0.852426 0.107897 0.460138 0.035525
C26   C     C_R   0.944833 0.044087 0.491530 0.106366
C27   C     C_R   0.692801 0.076137 0.422537 0.003526
C28   C     C_R   0.622490 0.985223 0.419229 -0.147299
C29   C     C_R   0.709980 0.921532 0.451874 0.009923
C30   C     C_R   0.872751 0.951047 0.488638 0.085519
C31   C     C_R   0.640811 0.828843 0.447572 0.098029
C32   C     C_R   0.084744 0.228302 0.501718 -0.434066
H34   H     H_    0.498807 0.965621 0.390031 0.192461
H35   H     H_    0.619604 0.120686 0.394850 0.188832
H36   H     H_    0.681190 0.695890 0.473719 0.167245
H37   H     H_    0.138352 0.299330 0.506757 0.167895
H38   H     H_    0.535124 0.572980 0.860002 0.134525
H39   H     H_    0.720021 0.595279 0.107994 0.138281
C33   C     C_R   0.600809 0.543320 0.282340 -0.451875
C34   C     C_R   0.445808 0.492640 0.256024 0.314068
C35   C     C_R   0.384146 0.486610 0.176742 -0.254015
C36   C     C_R   0.480243 0.526642 0.123553 0.090394
C37   C     C_R   0.641080 0.570683 0.149651 -0.292912
C38   C     C_R   0.701436 0.579522 0.229231 0.177687
C39   C     C_R   0.413547 0.536683 0.838192 -0.161979
C40   C     C_R   0.361036 0.524704 0.757786 0.317553
C41   C     C_R   0.096306 0.448703 0.779887 0.190396
C42   C     C_R   0.146970 0.459448 0.860853 -0.258658
C43   C     C_R   0.307565 0.502338 0.890155 0.099692
C44   C     C_1   0.365073 0.511019 0.972841 0.021144
C45   C     C_1   0.416800 0.518243 0.041570 0.011463
C46   C     C_R   0.205663 0.478054 0.729056 -0.444046
H40   H     H_    0.063115 0.433625 0.900267 0.161269
H41   H     H_    0.263107 0.449489 0.156042 0.148841
H42   H     H_    0.648601 0.548217 0.343389 0.155481
H43   H     H_    0.166225 0.468381 0.666797 0.152426
H44   H     H_    0.673829 0.390112 0.185056 0.218036
H45   H     H_    0.967782 0.708936 0.812186 0.269198
N1    N     N_R   0.136075 0.170943 0.304206 0.226331
O25   O     O_R   0.263926 0.139420 0.334406 -0.359377
O26   O     O_R   0.993829 0.118802 0.292781 -0.350969
N2    N     N_R   0.935565 0.149977 0.694366 0.202161
O27   O     O_R   0.842921 0.156199 0.630657 -0.456730
O28   O     O_R   0.964698 0.070017 0.709863 -0.390665
N3    N     N_R   0.508304 0.256976 0.799314 0.242769
O29   O     O_R   0.426321 0.324889 0.797069 -0.405424
O30   O     O_R   0.612221 0.255634 0.860722 -0.343344
H46   H     H_    0.612912 0.229299 0.696659 0.119876
N4    N     N_R   0.981841 0.870880 0.266247 0.265488
O31   O     O_R   0.883569 0.909986 0.307951 -0.411662
O32   O     O_R   0.129768 0.912921 0.263900 -0.282764
N5    N     N_R   0.422837 0.056378 0.784468 0.273631
O33   O     O_R   0.318174 0.988701 0.747172 -0.370396
O34   O     O_R   0.424572 0.075279 0.859645 -0.302008
N6    N     N_R   0.856285 0.872844 0.110502 0.283053
O35   O     O_R   0.945240 0.940798 0.086325 -0.281639
O36   O     O_R   0.700293 0.874331 0.113652 -0.368727

loop_
_geom_bond_atom_site_label_1
_geom_bond_atom_site_label_2
_geom_bond_distance
_ccdc_geom_bond_type
P1    C22   1.880392 S    
P5    C41   1.832715 S    
C32   H37   1.082676 S    
H39   C37   1.080286 S    
N1    O25   1.301911 A    
P2    Ba1   3.375311 S    
N5    O34   1.300811 A    
C17   C32   1.388798 A    
C28   C29   1.405914 A    
C19   C22   1.426054 A    
C35   H41   1.080427 S    
P7    O21   1.566517 D    
C41   C42   1.407782 A    
P5    O17   1.767792 S    
C20   C21   1.392062 A    
C43   C44   1.448794 S    
C5    H8    1.110175 S    
C5    H44   1.105469 S    
P3    O11   1.757294 S    
O1    Ba1   2.857343 S    
C19   C30   1.424862 A    
O4    P6    1.542829 D    
C8    H14   1.101337 S    
C2    C3    1.538836 S    
C15   O24   1.405450 S    
C3    N6    1.460901 S    
O11   C2    1.409854 S    
C6    H10   1.103426 S    
O3    P6    1.737896 S    
O12   Ba2   2.857954 S    
C33   C34   1.400033 A    
C11   H21   1.110134 S    
C42   C43   1.409768 A    
C18   C26   1.417738 A    
C35   C36   1.404121 A    
C13   C14   1.531076 S    
P1    O1    1.511416 D    
P4    O15   1.750994 S    
C4    C5    1.523267 S    
C12   H23   1.107581 S    
C37   C38   1.403429 A    
C23   H36   1.081742 S    
C40   C46   1.389156 A    
C2    H4    1.108497 S    
C27   H35   1.078523 S    
N3    O29   1.299861 A    
P7    O22   1.749991 S    
C29   C31   1.414273 A    
P2    O10   1.762917 S    
C4    H6    1.103513 S    
O10   C8    1.406248 S    
O16   P7    1.750250 S    
C1    H2    1.109776 S    
C41   C46   1.385129 A    
O13   Ba2   2.904904 S    
C11   C12   1.522258 S    
C4    O15   1.395996 S    
C3    H5    1.111186 S    
C27   C28   1.394229 A    
P4    O13   1.583913 S    
C7    H45   1.110907 S    
C39   C40   1.400867 A    
C15   H46   1.102874 S    
C36   C45   1.449073 S    
O8    Ba1   2.728577 S    
P5    O18   1.547594 D    
C33   C38   1.402544 A    
N5    O33   1.300490 A    
Ba1   O16   2.759419 S    
P1    O5    1.748045 S    
C19   C20   1.405279 A    
C9    H17   1.110837 S    
N4    O32   1.301223 A    
H1    C10   1.110669 S    
C24   C25   1.424317 A    
C14   H28   1.108226 S    
C28   H34   1.080418 S    
N4    O31   1.298911 A    
P5    O19   1.751440 S    
O14   Ba2   2.763547 S    
C11   H20   1.106596 S    
O3    Ba1   2.764156 S    
P1    O2    1.583913 S    
C12   H24   1.109912 S    
C14   H29   1.111072 S    
C1    H3    1.109857 S    
C34   C35   1.404490 A    
O17   Ba2   2.729043 S    
C29   C30   1.418380 A    
C33   H42   1.081800 S    
C25   C27   1.405714 A    
C7    H12   1.110843 S    
C1    H19   1.109112 S    
P8    O23   1.551013 D    
P2    O20   1.546508 S    
C13   N2    1.463330 S    
O5    C6    1.391871 S    
P2    O7    1.508340 D    
C42   H40   1.083211 S    
P3    O8    1.754287 S    
Ba1   O13   2.819098 S    
N6    O36   1.300192 A    
P3    O9    1.542824 D    
P4    O12   1.511631 D    
O6    P6    1.746391 S    
O7    Ba1   2.811039 S    
C26   C30   1.428062 A    
C39   C43   1.405211 A    
Ba2   O21   2.811267 S    
H38   C39   1.083573 S    
N2    O27   1.297701 A    
C20   H32   1.077674 S    
C10   H18   1.108201 S    
N1    O26   1.301209 A    
C6    C7    1.521802 S    
P7    C40   1.819645 S    
C8    N1    1.464571 S    
C15   C16   1.540506 S    
Ba1   O20   2.910168 S    
C16   H31   1.111629 S    
C21   H33   1.078104 S    
C12   H22   1.110649 S    
P2    C34   1.854953 S    
O2    Ba2   2.819693 S    
P8    C17   1.838350 S    
C46   H43   1.082711 S    
P6    C31   1.856752 S    
C16   N5    1.460874 S    
C5    H9    1.107800 S    
O14   P8    1.752165 S    
C8    C9    1.532281 S    
C2    N4    1.462794 S    
C14   H27   1.107456 S    
C3    H25   1.107861 S    
C36   C37   1.405627 A    
C6    H11   1.110683 S    
C15   N3    1.465033 S    
O2    Ba1   2.904066 S    
P1    Ba1   3.393919 S    
C9    H15   1.107529 S    
C9    H16   1.109640 S    
P3    C38   1.847254 S    
C25   C26   1.422038 A    
C7    H13   1.104464 S    
C4    H7    1.107849 S    
C13   H26   1.113713 S    
P8    O24   1.758437 S    
Ba2   O20   2.758766 S    
H30   C16   1.110652 S    
C11   O22   1.400069 S    
O16   Ba2   2.909262 S    
C18   C21   1.403862 A    
N3    O30   1.301734 A    
C17   C18   1.418281 A    
C22   C23   1.399384 A    
N6    O35   1.300945 A    
C1    C10   1.519801 S    
O19   C13   1.412214 S    
O6    C10   1.403229 S    
C24   C32   1.390265 A    
C44   C45   1.211645 T    
C23   C31   1.403186 A    
P4    C24   1.848348 S    
P4    Ba2   3.394472 S    
N2    O28   1.302468 A    
Ba1   Ba2   4.538650 S    
