data_mof_unit_52960.cif
_audit_creation_date              2012-10-26T19:53:29-0400
_audit_creation_method            fapswitch 2.2
_symmetry_space_group_name_H-M    P1
_symmetry_Int_Tables_number       1
_space_group_crystal_system       triclinic
_cell_length_a                    9.134494
_cell_length_b                    7.817699
_cell_length_c                    10.746708
_cell_angle_alpha                 88.279697
_cell_angle_beta                  91.114682
_cell_angle_gamma                 89.824632
_cell_volume                      766.934049449

loop_
_atom_site_label
_atom_site_type_symbol
_atom_type_description
_atom_site_fract_x
_atom_site_fract_y
_atom_site_fract_z
_atom_type_partial_charge
C1    C     C_R   0.220092 0.500086 0.501070 0.534247
C2    C     C_3   0.634305 0.549488 0.047202 0.004055
C3    C     C_3   0.511581 0.493434 0.876161 0.007941
C4    C     C_3   0.494587 0.507045 0.122279 0.002575
C5    C     C_1   0.065405 0.499837 0.504521 -0.069216
C6    C     C_1   0.934816 0.499155 0.506662 -0.072100
C7    C     C_3   0.236394 0.386273 0.877885 -0.257242
C8    C     C_3   0.092381 0.429295 0.937284 -0.461749
C9    C     C_3   0.779192 0.628925 0.090126 -0.271993
C10   C     C_3   0.841239 0.556719 0.213102 -0.422225
C11   C     C_3   0.234015 0.841698 0.952363 -0.288767
C12   C     C_R   0.779853 0.499455 0.506169 0.530849
C13   C     C_3   0.802720 0.178177 0.024263 -0.323824
C14   C     C_3   0.710138 0.830427 0.830295 -0.272197
C15   C     C_3   0.292422 0.158013 0.152810 -0.269137
C16   C     C_R   0.492588 0.502537 0.258837 0.543424
C17   C     C_R   0.511499 0.497609 0.740352 0.537962
C18   C     C_3   0.399211 0.612209 0.026481 0.129132
C19   C     C_3   0.607355 0.388154 0.969862 0.121656
C20   C     C_3   0.537456 0.653151 0.952789 0.140720
C21   C     C_3   0.468840 0.345073 0.043977 0.121135
C22   C     C_3   0.371887 0.450253 0.949874 0.001002
Cu1   Cu    Cu3+1 0.500000 0.669080 0.500000 0.990813
Cu2   Cu    Cu3+1 0.500000 0.330920 0.500000 0.975018
H1    H     H_    0.004277 0.356670 0.890800 0.170886
H2    H     H_    0.762906 0.768627 0.100012 0.142458
H3    H     H_    0.207755 0.685262 0.111932 0.241671
H4    H     H_    0.308593 0.950572 0.935105 0.193827
H5    H     H_    0.123859 0.892937 0.973036 0.100137
H6    H     H_    0.226443 0.768726 0.865448 0.160912
H7    H     H_    0.677262 0.190153 0.860503 0.268702
H8    H     H_    0.893432 0.108900 0.980542 0.121543
H9    H     H_    0.735867 0.083784 0.076153 0.133543
H10   H     H_    0.853380 0.267965 0.089009 0.163538
H11   H     H_    0.561834 0.918442 0.959240 0.267081
H12   H     H_    0.094516 0.399574 0.038599 0.141905
H13   H     H_    0.801869 0.870025 0.891350 0.096362
H14   H     H_    0.696811 0.926249 0.752641 0.169404
H15   H     H_    0.741044 0.706140 0.790890 0.161564
H16   H     H_    0.517433 0.126765 0.152723 0.269924
H17   H     H_    0.290986 0.039980 0.212975 0.170597
H18   H     H_    0.206495 0.144884 0.080166 0.137255
H19   H     H_    0.265377 0.268888 0.210278 0.152669
H20   H     H_    0.066586 0.565960 0.920770 0.145157
H21   H     H_    0.232638 0.444907 0.782556 0.153212
H22   H     H_    0.245731 0.245847 0.867953 0.153806
H23   H     H_    0.787632 0.435750 0.242949 0.168157
H24   H     H_    0.960721 0.533632 0.206049 0.108798
H25   H     H_    0.825860 0.653363 0.284903 0.173634
H26   H     H_    0.859103 0.612180 0.016042 0.146810
N1    N     N_1   0.500000 0.076820 0.500000 -0.092635
N2    N     N_1   0.500000 0.923180 0.500000 -0.090577
N3    N     N_2   0.288636 0.736357 0.056708 -0.507369
N4    N     N_2   0.716323 0.268291 0.928865 -0.524994
N5    N     N_2   0.575092 0.819702 0.899257 -0.499230
N6    N     N_2   0.434568 0.176801 0.096452 -0.514362
O1    O     O_R   0.288390 0.642760 0.500000 -0.497198
O2    O     O_R   0.711610 0.357240 0.500000 -0.497792
O3    O     O_R   0.711610 0.642760 0.500000 -0.512259
O4    O     O_R   0.288390 0.357240 0.500000 -0.502732
O5    O     O_R   0.499960 0.642760 0.316850 -0.493056
O6    O     O_R   0.500040 0.357240 0.683150 -0.516031
O7    O     O_R   0.500040 0.642760 0.683150 -0.483321
O8    O     O_R   0.499960 0.357240 0.316850 -0.514076

loop_
_geom_bond_atom_site_label_1
_geom_bond_atom_site_label_2
_ccdc_geom_bond_type
C4    C16   S    
C21   N6    S    
C2    C4    S    
Cu1   Cu2   S    
H3    N3    S    
C3    C19   S    
C4    C21   S    
C1    O1    A    
C17   O6    A    
C14   H14   S    
C7    C22   S    
C7    H22   S    
C9    C10   S    
C13   H8    S    
C11   N3    S    
Cu1   O5    S    
Cu2   O4    S    
C4    C18   S    
C15   N6    S    
Cu2   N1    S    
Cu1   O7    S    
C14   N5    S    
Cu1   O3    S    
C15   H19   S    
C12   O2    A    
Cu2   O8    S    
C3    C20   S    
C21   C22   S    
C17   O7    A    
C14   H13   S    
C13   H9    S    
C8    H1    S    
C12   O3    A    
C15   H17   S    
Cu1   N2    S    
C10   H25   S    
C11   H4    S    
C20   N5    S    
C1    C5    S    
C7    H21   S    
C19   N4    S    
C19   C21   S    
C9    H2    S    
C3    C17   S    
C18   C20   S    
H7    N4    S    
C10   H24   S    
C5    C6    T    
C14   H15   S    
C7    C8    S    
C16   O5    A    
C2    C20   S    
N1    N2    T    
C15   H18   S    
C6    C12   S    
C13   H10   S    
C11   H5    S    
Cu2   O2    S    
C13   N4    S    
C8    H12   S    
C1    O4    A    
C10   H23   S    
Cu1   O1    S    
C3    C22   S    
Cu2   O6    S    
C16   O8    A    
C18   N3    S    
C2    C19   S    
C18   C22   S    
C2    C9    S    
H11   N5    S    
C9    H26   S    
C8    H20   S    
C11   H6    S    
H16   N6    S    
