data_mof_unit_54291.cif
_audit_creation_date              2012-12-10T18:43:43-0500
_audit_creation_method            fapswitch 2.2
_symmetry_space_group_name_H-M    P1
_symmetry_Int_Tables_number       1
_space_group_crystal_system       triclinic
_cell_length_a                    10.642096
_cell_length_b                    10.673771
_cell_length_c                    9.846098
_cell_angle_alpha                 90.227265
_cell_angle_beta                  103.498955
_cell_angle_gamma                 90.244666
_cell_volume                      1087.50936951

loop_
_atom_site_label
_atom_site_type_symbol
_atom_type_description
_atom_site_fract_x
_atom_site_fract_y
_atom_site_fract_z
_atom_type_partial_charge
C1    C     C_R   0.501017 0.260023 0.499955 0.961897
C2    C     C_R   0.499153 0.739969 0.500121 0.935676
C3    C     C_R   0.258246 0.493139 0.442542 0.960186
C4    C     C_R   0.741693 0.493210 0.557350 0.939312
C5    C     C_R   0.574506 0.583138 0.091550 -0.232216
C6    C     C_R   0.424092 0.417883 0.908223 -0.263736
C7    C     C_R   0.577452 0.581622 0.948210 0.557429
C8    C     C_R   0.425397 0.415646 0.053467 0.562978
C9    C     C_2   0.120745 0.469196 0.411718 -0.460138
C10   C     C_2   0.878873 0.468912 0.587722 -0.489258
C11   C     C_2   0.068369 0.417432 0.509444 0.533476
C12   C     C_2   0.930453 0.417759 0.488838 0.578664
C13   C     C_R   0.565705 0.063178 0.412459 0.626386
C14   C     C_R   0.435555 0.936827 0.588559 0.657056
C15   C     C_R   0.563763 0.934731 0.412501 -0.360306
C16   C     C_R   0.437005 0.065281 0.588094 -0.344932
C17   C     C_R   0.499119 0.872333 0.500555 -0.242144
C18   C     C_R   0.501534 0.127679 0.499890 -0.261456
H1    H     H_    0.630385 0.651754 0.161600 0.162248
H2    H     H_    0.362176 0.354616 0.836304 0.208731
H3    H     H_    0.938664 0.495833 0.689073 0.148440
H4    H     H_    0.061297 0.497030 0.311099 0.154613
H5    H     H_    0.614217 0.884103 0.345817 0.200475
H6    H     H_    0.386389 0.115889 0.654675 0.204823
N1    N     N_R   0.499970 0.499970 0.857200 -0.134594
N2    N     N_R   0.500030 0.500030 0.142800 -0.122982
O1    O     O_R   0.499990 0.316750 0.614620 -0.636724
O2    O     O_R   0.500010 0.683250 0.385380 -0.650774
O3    O     O_R   0.499990 0.316780 0.385290 -0.541929
O4    O     O_R   0.500010 0.683220 0.614710 -0.522287
O5    O     O_R   0.317810 0.500000 0.571850 -0.539480
O6    O     O_R   0.682190 0.500000 0.428150 -0.541064
O7    O     O_R   0.317810 0.500030 0.342520 -0.593083
O8    O     O_R   0.682190 0.499970 0.657480 -0.636787
Zn1   Zn    Zn3+2 0.500000 0.499980 0.653120 1.033494
Zn2   Zn    Zn3+2 0.500000 0.500020 0.346880 1.041077
F1    F     F_    0.857637 0.380181 0.362090 -0.635155
F2    F     F_    0.140583 0.378492 0.635174 -0.689670
O9    O     O_3   0.650666 0.669642 0.898073 -0.608448
C19   C     C_3   0.782176 0.633097 0.927956 0.110842
H7    H     H_    0.819518 0.656013 0.834618 0.177358
H8    H     H_    0.797353 0.530350 0.945942 0.131609
C20   C     C_3   0.862244 0.707452 0.052133 -0.398938
H9    H     H_    0.836964 0.808390 0.040175 0.255323
H10   H     H_    0.841091 0.673384 0.150775 0.219606
C21   C     C_3   0.006910 0.692943 0.062463 -0.898605
H11   H     H_    0.034166 0.592445 0.071077 0.273586
H12   H     H_    0.062371 0.743306 0.156528 0.267484
H13   H     H_    0.033103 0.733220 0.968843 0.269172
O10   O     O_3   0.342859 0.337880 0.104887 -0.615173
C22   C     C_3   0.357660 0.210418 0.071027 0.104726
H14   H     H_    0.379435 0.156976 0.170147 0.197014
H15   H     H_    0.439046 0.191883 0.019856 0.137744
C23   C     C_3   0.230782 0.159911 0.980089 -0.407739
H16   H     H_    0.151817 0.174000 0.035140 0.250679
H17   H     H_    0.205813 0.211912 0.880044 0.261698
C24   C     C_3   0.240569 0.020566 0.948918 -0.840529
H18   H     H_    0.318740 0.004314 0.893373 0.302360
H19   H     H_    0.147725 0.986967 0.881628 0.276010
H20   H     H_    0.261086 0.966013 0.047492 0.256972
F3    F     F_    0.632138 0.123990 0.330109 -0.633799
F4    F     F_    0.369683 0.875948 0.671370 -0.657202

loop_
_geom_bond_atom_site_label_1
_geom_bond_atom_site_label_2
_ccdc_geom_bond_type
C11   F2    S    
C6    C8    A    
C11   C12   S    
C15   C17   A    
C3    C9    S    
C8    O10   S    
C4    O8    A    
C6    H2    S    
C7    N1    A    
C13   C15   A    
C2    O4    A    
C20   H9    S    
C22   C23   S    
O3    Zn2   S    
C1    O3    A    
O10   C22   S    
C1    C18   S    
C13   F3    S    
C16   H6    S    
C16   C18   A    
C2    C17   S    
C3    O5    A    
C20   H10   S    
C21   H13   S    
C24   H18   S    
C4    O6    A    
C10   C12   D    
O4    Zn1   S    
N1    Zn1   S    
C5    H1    S    
C13   C18   A    
O5    Zn1   S    
C15   H5    S    
C19   H7    S    
C23   H17   S    
C9    C11   D    
C10   H3    S    
C20   C21   S    
C14   C16   A    
C9    H4    S    
C24   H19   S    
C6    N1    A    
C3    O7    A    
C4    C10   S    
C22   H14   S    
C14   F4    S    
C21   H12   S    
O6    Zn2   S    
O9    C19   S    
O7    Zn2   S    
C8    N2    A    
O2    Zn2   S    
C1    O1    A    
O8    Zn1   S    
N2    Zn2   S    
C12   F1    S    
C5    C7    A    
C7    O9    S    
C23   H16   S    
C24   H20   S    
C2    O2    A    
O1    Zn1   S    
C21   H11   S    
C19   C20   S    
C5    N2    A    
C19   H8    S    
C22   H15   S    
C23   C24   S    
C14   C17   A    
