data_mof_unit_9281.cif
_audit_creation_date              2012-10-26T19:35:17-0400
_audit_creation_method            fapswitch 2.2
_symmetry_space_group_name_H-M    P1
_symmetry_Int_Tables_number       1
_space_group_crystal_system       triclinic
_cell_length_a                    10.772576
_cell_length_b                    10.820136
_cell_length_c                    9.554519
_cell_angle_alpha                 89.964406
_cell_angle_beta                  89.996615
_cell_angle_gamma                 89.806725
_cell_volume                      1113.67522703

loop_
_atom_site_label
_atom_site_type_symbol
_atom_type_description
_atom_site_fract_x
_atom_site_fract_y
_atom_site_fract_z
_atom_type_partial_charge
C1    C     C_R   0.502519 0.262353 0.499976 0.548263
C2    C     C_R   0.529273 0.935608 0.373245 -0.159847
C3    C     C_R   0.515048 0.870774 0.499806 0.003931
C4    C     C_R   0.262570 0.503233 0.500035 0.538502
C5    C     C_R   0.519102 0.936389 0.625555 0.009731
C6    C     C_3   0.435353 0.930771 0.750131 -0.268256
C7    C     C_3   0.435357 0.071028 0.749618 -0.266082
C8    C     C_R   0.605239 0.528154 0.073616 0.163485
C9    C     C_R   0.400047 0.459546 0.074319 -0.015886
C10   C     C_R   0.399997 0.459647 0.925670 -0.018250
C11   C     C_R   0.605524 0.527481 0.926468 0.165040
C12   C     C_R   0.064903 0.609613 0.565178 0.025786
C13   C     C_3   0.678322 0.644260 0.920404 -0.283794
C14   C     C_3   0.676606 0.645735 0.079360 -0.275511
C15   C     C_R   0.502297 0.737684 0.499968 0.531855
C16   C     C_R   0.737356 0.502904 0.499827 0.536660
C17   C     C_R   0.128184 0.709651 0.627659 -0.108582
C18   C     C_R   0.062508 0.807709 0.687298 -0.124886
C19   C     C_R   0.933385 0.808904 0.684061 -0.127075
C20   C     C_R   0.869139 0.711770 0.621865 -0.119307
C21   C     C_R   0.933683 0.610193 0.563486 0.022656
C22   C     C_R   0.128762 0.510773 0.499884 0.002461
C23   C     C_R   0.064380 0.417371 0.430610 -0.158862
C24   C     C_R   0.936245 0.417199 0.430557 -0.155417
C25   C     C_R   0.870965 0.510849 0.499037 0.002203
C26   C     C_R   0.519035 0.063632 0.625317 0.023384
C27   C     C_R   0.515424 0.129252 0.499638 0.007016
C28   C     C_R   0.529609 0.064403 0.373153 -0.163701
Cu1   Cu    Cu3+1 0.499990 0.499980 0.640670 0.925096
Cu2   Cu    Cu3+1 0.500010 0.500020 0.359330 0.929983
H1    H     H_    0.113757 0.342789 0.378930 0.116877
H2    H     H_    0.621571 0.723483 0.123467 0.140025
H3    H     H_    0.228359 0.714098 0.629018 0.130502
H4    H     H_    0.111900 0.883886 0.734706 0.104743
H5    H     H_    0.882742 0.885877 0.728887 0.113825
H6    H     H_    0.768976 0.717896 0.618753 0.129105
H7    H     H_    0.534521 0.112458 0.273838 0.135372
H8    H     H_    0.343312 0.890462 0.725475 0.129589
H9    H     H_    0.887585 0.342377 0.379081 0.122615
H10   H     H_    0.533708 0.887686 0.273976 0.127712
H11   H     H_    0.482148 0.890892 0.843451 0.130314
H12   H     H_    0.343231 0.112087 0.724392 0.134225
H13   H     H_    0.482692 0.111579 0.842135 0.139466
H14   H     H_    0.318414 0.428059 0.129353 0.121415
H15   H     H_    0.318319 0.428291 0.870690 0.122921
H16   H     H_    0.772787 0.628717 0.877254 0.139221
H17   H     H_    0.625962 0.721841 0.872098 0.141969
H18   H     H_    0.770030 0.632665 0.126614 0.136055
N1    N     N_R   0.500790 0.500930 0.147930 -0.231920
N2    N     N_R   0.500790 0.500890 0.852020 -0.231858
O1    O     O_R   0.500000 0.319640 0.618810 -0.494398
O2    O     O_R   0.500010 0.319680 0.381230 -0.507430
O3    O     O_R   0.319640 0.499980 0.618820 -0.515155
O4    O     O_R   0.319650 0.500020 0.381230 -0.505539
O5    O     O_R   0.499990 0.680320 0.618770 -0.511970
O6    O     O_R   0.500000 0.680360 0.381190 -0.504278
O7    O     O_R   0.680350 0.499980 0.618770 -0.502667
O8    O     O_R   0.680360 0.500020 0.381180 -0.501334

loop_
_geom_bond_atom_site_label_1
_geom_bond_atom_site_label_2
_ccdc_geom_bond_type
C12   C17   A    
C8    C14   S    
C23   C24   A    
C6    H8    S    
C2    H10   S    
Cu2   O6    S    
C6    C7    S    
C16   C25   S    
C7    H13   S    
C4    O3    A    
C1    O1    A    
C9    C10   A    
C19   C20   A    
C16   O7    A    
C15   O6    A    
Cu2   O4    S    
C10   H15   S    
C2    C3    A    
C3    C5    A    
C3    C15   S    
C11   N2    A    
C16   O8    A    
C13   C14   S    
C24   C25   A    
C18   H4    S    
C26   C27   A    
Cu1   Cu2   S    
C7    C26   S    
C17   H3    S    
C28   H7    S    
C8    C11   A    
Cu2   O8    S    
Cu2   N1    S    
Cu1   O7    S    
C17   C18   A    
Cu1   N2    S    
C15   O5    A    
C5    C6    S    
C1    O2    A    
C8    N1    A    
C2    C28   A    
C5    C26   A    
C10   N2    A    
C12   C22   A    
C11   C13   S    
C24   H9    S    
C9    N1    A    
C20   C21   A    
C1    C27   S    
C21   C25   A    
Cu1   O1    S    
C7    H12   S    
C27   C28   A    
C19   H5    S    
C4    C22   S    
C13   H16   S    
C18   C19   A    
C9    H14   S    
C14   H18   S    
Cu1   O5    S    
C4    O4    A    
C22   C23   A    
C13   H17   S    
C12   C21   A    
C6    H11   S    
C14   H2    S    
Cu2   O2    S    
Cu1   O3    S    
C23   H1    S    
C20   H6    S    
