data_mof_unit_11488.cif
_audit_creation_date              2012-12-11T19:09:22-0500
_audit_creation_method            fapswitch 2.2
_symmetry_space_group_name_H-M    P1
_symmetry_Int_Tables_number       1
_space_group_crystal_system       triclinic
_cell_length_a                    8.211727
_cell_length_b                    14.999956
_cell_length_c                    26.875834
_cell_angle_alpha                 98.387402
_cell_angle_beta                  92.61738
_cell_angle_gamma                 81.491967
_cell_volume                      3238.01544868

loop_
_atom_site_label
_atom_site_type_symbol
_atom_type_description
_atom_site_fract_x
_atom_site_fract_y
_atom_site_fract_z
_atom_type_partial_charge
Ba1   Ba    Ba6+2 0.860050 0.456430 0.522540 1.660510
Ba2   Ba    Ba6+2 0.329780 0.543490 0.477450 1.681155
C1    C     C_3   0.699004 0.139029 0.655545 -0.348721
C2    C     C_3   0.689150 0.228953 0.634970 0.334675
C3    C     C_3   0.622490 0.690421 0.640024 0.233178
C4    C     C_3   0.600924 0.711125 0.696665 -0.412162
C5    C     C_3   0.057625 0.761583 0.348914 0.136973
C6    C     C_3   0.111145 0.804917 0.304338 -0.189288
C7    C     C_3   0.512683 0.778917 0.376187 0.383315
C8    C     C_3   0.541645 0.871229 0.363678 -0.338010
C9    C     C_R   0.051328 0.438158 0.180759 0.566809
C10   C     C_R   0.875610 0.580130 0.178534 0.595685
C11   C     C_2   0.735373 0.527314 0.270672 -0.018043
C12   C     C_3   0.194399 0.258298 0.656573 0.225259
C13   C     C_3   0.687348 0.518000 0.323542 -0.071434
C14   C     C_1   0.980026 0.481126 0.343068 0.034926
C15   C     C_2   0.023827 0.485260 0.296546 -0.090590
C16   C     C_2   0.895715 0.508945 0.256857 0.193240
C17   C     C_R   0.028857 0.508725 0.103660 -0.073466
C18   C     C_R   0.097003 0.437518 0.130438 -0.029930
C19   C     C_R   0.208809 0.366520 0.106259 -0.066308
C20   C     C_R   0.917436 0.580370 0.128070 -0.050928
C21   C     C_2   0.832490 0.515378 0.359740 -0.283743
C22   C     C_2   0.362807 0.491180 0.641094 -0.245252
C23   C     C_3   0.160320 0.245225 0.710159 -0.221381
C24   C     C_R   0.221057 0.432836 0.976345 0.019044
C25   C     C_R   0.045757 0.581077 0.975169 0.020981
C26   C     C_R   0.153451 0.506453 0.950317 0.051035
C27   C     C_R   0.324780 0.359506 0.949352 -0.100105
C28   C     C_R   0.362305 0.359106 0.899232 -0.047084
C29   C     C_R   0.298606 0.431696 0.873354 -0.036582
C30   C     C_R   0.194007 0.505525 0.898840 -0.078900
C31   C     C_R   0.130382 0.578669 0.872869 -0.029211
C32   C     C_R   0.172197 0.577420 0.822247 0.588672
C33   C     C_R   0.336926 0.431607 0.822421 0.583115
C34   C     C_3   0.213399 0.265082 0.415297 0.326976
C35   C     C_2   0.471246 0.491442 0.729855 -0.067715
C36   C     C_3   0.512535 0.495700 0.675697 -0.050414
C37   C     C_1   0.215216 0.524235 0.658334 -0.010648
C38   C     C_2   0.178191 0.520213 0.705532 -0.146820
C39   C     C_2   0.312460 0.503655 0.744522 0.214946
C40   C     C_R   0.182340 0.434548 0.027978 0.022328
C41   C     C_R   0.071388 0.508130 0.052394 0.053350
C42   C     C_R   0.002028 0.581067 0.026105 0.019256
C43   C     C_R   0.250893 0.365046 0.056441 -0.100471
C44   C     C_R   0.849146 0.651215 0.101562 -0.036822
C45   C     C_3   0.202051 0.163571 0.405438 -0.359792
C46   C     C_R   0.985671 0.653678 0.947897 -0.097655
C47   C     C_R   0.027065 0.652328 0.898141 -0.060340
C48   C     C_R   0.889827 0.651632 0.051924 -0.095209
C49   C     C_R   0.352633 0.176884 0.537463 -0.011580
C50   C     C_R   0.581256 0.210894 0.493022 0.087257
C51   C     C_R   0.781100 0.775128 0.504679 -0.207357
C52   C     C_R   0.868403 0.833604 0.484959 0.087304
C53   C     C_R   0.806627 0.926251 0.488029 -0.118930
C54   C     C_R   0.653601 0.961916 0.510736 0.017878
C55   C     C_R   0.567707 0.900819 0.531935 -0.019513
C56   C     C_3   0.118507 0.741014 0.651960 0.279301
C57   C     C_R   0.581583 0.055511 0.512478 0.001858
C58   C     C_R   0.427216 0.085546 0.536195 -0.027900
C59   C     C_R   0.350032 0.023908 0.557918 -0.095433
C60   C     C_R   0.419380 0.933925 0.556088 -0.055926
C61   C     C_R   0.654220 0.119709 0.490010 -0.130653
C62   C     C_R   0.433468 0.238992 0.517648 -0.289235
C63   C     C_R   0.631424 0.807251 0.527916 -0.019734
C64   C     C_3   0.035643 0.758723 0.703288 -0.446480
C65   C     C_3   0.664082 0.311708 0.360824 0.235807
C66   C     C_3   0.634073 0.262691 0.307093 -0.160390
H1    H     H_    0.804526 0.228477 0.615024 0.111959
H2    H     H_    0.264438 0.131995 0.370114 0.113966
H3    H     H_    0.261731 0.129317 0.436784 0.058389
H4    H     H_    0.070801 0.152821 0.402043 0.134515
H5    H     H_    0.244935 0.703212 0.655656 -0.019638
H6    H     H_    0.913574 0.802970 0.701096 0.109625
H7    H     H_    0.118612 0.792374 0.732333 0.119814
H8    H     H_    0.012552 0.693843 0.715372 0.149613
H9    H     H_    0.786210 0.335520 0.363356 0.006583
H10   H     H_    0.566284 0.370265 0.370371 0.050893
H11   H     H_    0.802641 0.132355 0.683343 0.132648
H12   H     H_    0.731587 0.202533 0.300402 0.082124
H13   H     H_    0.583415 0.234469 0.608092 -0.031286
H14   H     H_    0.719392 0.081725 0.624344 0.082829
H15   H     H_    0.624817 0.616279 0.628092 0.069631
H16   H     H_    0.738618 0.713426 0.631593 0.082537
H17   H     H_    0.483621 0.691000 0.707214 0.111946
H18   H     H_    0.705181 0.672431 0.716072 0.092084
H19   H     H_    0.599363 0.785278 0.709346 0.134189
H20   H     H_    0.582526 0.135664 0.674067 0.142849
H21   H     H_    0.210178 0.298815 0.736875 0.125662
H22   H     H_    0.159998 0.709160 0.357522 0.074284
H23   H     H_    0.216848 0.840562 0.318013 0.065929
H24   H     H_    0.609195 0.758833 0.404436 -0.058445
H25   H     H_    0.389770 0.786862 0.393037 0.057601
H26   H     H_    0.672266 0.869640 0.354445 0.130972
H27   H     H_    0.512545 0.924103 0.396765 0.050637
H28   H     H_    0.148349 0.330347 0.652456 0.077929
H29   H     H_    0.463405 0.890544 0.331177 0.143293
H30   H     H_    0.152681 0.471111 0.286921 0.153354
H31   H     H_    0.265022 0.311119 0.125907 0.123809
H32   H     H_    0.571247 0.483449 0.757425 0.099152
H33   H     H_    0.442245 0.300968 0.880664 0.140171
H34   H     H_    0.378537 0.300195 0.965619 0.073677
H35   H     H_    0.339051 0.308098 0.041527 0.069712
H36   H     H_    0.637852 0.539894 0.242847 0.117350
H37   H     H_    0.762387 0.707227 0.119161 0.144899
H38   H     H_    0.906919 0.713778 0.963925 0.073411
H39   H     H_    0.329308 0.245089 0.650648 -0.011788
H40   H     H_    0.976946 0.709972 0.879378 0.123657
H41   H     H_    0.050540 0.528853 0.716219 0.118384
H42   H     H_    0.828787 0.708507 0.034842 0.074147
H43   H     H_    0.813543 0.539237 0.399475 0.081203
H44   H     H_    0.377027 0.459015 0.602373 0.070161
H45   H     H_    0.376353 0.308991 0.518807 0.065549
H46   H     H_    0.234048 0.043890 0.576618 0.119727
H47   H     H_    0.765216 0.100794 0.468846 0.093920
H48   H     H_    0.829283 0.703349 0.501059 0.072331
H49   H     H_    0.879222 0.967845 0.471416 0.083247
H50   H     H_    0.025245 0.253101 0.715375 0.095824
H51   H     H_    0.353877 0.890420 0.573748 0.123954
H52   H     H_    0.344006 0.274771 0.419957 -0.025451
H53   H     H_    0.146786 0.293686 0.450373 0.063007
N1    N     N_R   0.941963 0.509380 0.204728 -0.438625
N2    N     N_R   0.273043 0.503920 0.797131 -0.427335
O1    O     O_2   0.906490 0.548660 0.619040 -0.491562
O2    O     O_3   0.664639 0.246655 0.393092 -0.659720
O3    O     O_3   0.112509 0.198777 0.622408 -0.625065
O4    O     O_2   0.283210 0.451320 0.380930 -0.475164
O5    O     O_3   0.051220 0.451340 0.441130 -0.497564
O6    O     O_3   0.503420 0.617610 0.414270 -0.489163
O7    O     O_3   0.145434 0.305091 0.373729 -0.589743
O8    O     O_3   0.617160 0.609950 0.527080 -0.476160
O9    O     O_3   0.088220 0.664410 0.439630 -0.500312
O10   O     O_2   0.204272 0.823972 0.472156 -0.464009
O11   O     O_3   0.029423 0.830011 0.390502 -0.658100
O12   O     O_3   0.138490 0.548590 0.558860 -0.444503
O13   O     O_3   0.572560 0.389970 0.472910 -0.493068
O14   O     O_2   0.345680 0.723560 0.528460 -0.408715
O15   O     O_3   0.490578 0.737932 0.615690 -0.663937
O16   O     O_2   0.348184 0.578627 0.327531 -0.524416
O17   O     O_3   0.519400 0.714246 0.332282 -0.524140
O18   O     O_2   0.106327 0.373936 0.202728 -0.572206
O19   O     O_2   0.426452 0.366752 0.800544 -0.567168
O20   O     O_2   0.780766 0.643772 0.199203 -0.503979
O21   O     O_2   0.120583 0.642745 0.800782 -0.618311
O22   O     O_3   0.686290 0.382320 0.585720 -0.490833
O23   O     O_2   0.852358 0.425045 0.670647 -0.499005
O24   O     O_3   0.019589 0.694145 0.615454 -0.598200
O25   O     O_3   0.666640 0.301302 0.674643 -0.584856
O26   O     O_2   0.844020 0.276410 0.471510 -0.458205
O27   O     O_3   0.101490 0.335510 0.560360 -0.484165
O28   O     O_2   0.012028 0.174065 0.528189 -0.487003
P1    P     P_3+3 0.071960 0.575810 0.612130 1.010564
P2    P     P_3+3 0.664360 0.290070 0.457280 0.982927
P3    P     P_3+3 0.144464 0.219183 0.561453 0.930850
P4    P     P_3+3 0.117760 0.424110 0.387870 1.028238
P5    P     P_3+3 0.050680 0.785151 0.447867 0.965946
P6    P     P_3+3 0.679972 0.403462 0.651541 0.968212
P7    P     P_3+3 0.526345 0.721210 0.551065 0.959130
P8    P     P_3+3 0.514904 0.605497 0.348961 0.999139
C67   C     C_2   0.136567 0.831044 0.636062 0.573083
H54   H     H_    0.211435 0.876238 0.658940 -0.070801
O29   O     O_2   0.067860 0.854718 0.597791 -0.591279
C68   C     C_3   0.648566 0.322174 0.265922 -0.242486
C69   C     C_3   0.636780 0.270072 0.212442 -0.165530
C70   C     C_3   0.640259 0.332942 0.172805 -0.407124
H55   H     H_    0.535907 0.389542 0.177714 0.141695
H56   H     H_    0.757798 0.361545 0.175786 0.150078
H57   H     H_    0.629337 0.293952 0.134667 0.125370
H58   H     H_    0.741641 0.213856 0.206633 0.134227
H59   H     H_    0.520418 0.240034 0.206849 0.160563
H60   H     H_    0.549748 0.381796 0.270383 0.137070
H61   H     H_    0.771020 0.345657 0.270554 0.111542
C71   C     C_2   0.470227 0.227534 0.303848 0.548547
H62   H     H_    0.463436 0.161535 0.314917 -0.013715
O30   O     O_2   0.344963 0.272580 0.289736 -0.544666
C72   C     C_2   0.904709 0.717374 0.337587 0.458439
H63   H     H_    0.857277 0.686496 0.366657 -0.069436
O31   O     O_2   0.830280 0.718043 0.297319 -0.526139
C73   C     C_2   0.168595 0.733375 0.260625 0.571262
H64   H     H_    0.087830 0.686208 0.243145 0.046759
O32   O     O_2   0.306508 0.728126 0.244219 -0.519377
C74   C     C_2   0.978765 0.877557 0.288542 0.558193
H65   H     H_    0.934012 0.935706 0.315896 0.001857
O33   O     O_2   0.921290 0.872643 0.245638 -0.536122
C75   C     C_2   0.236771 0.152706 0.721054 0.516269
H66   H     H_    0.198379 0.092155 0.699335 0.008760
O34   O     O_2   0.341888 0.144906 0.754352 -0.548037

loop_
_geom_bond_atom_site_label_1
_geom_bond_atom_site_label_2
_ccdc_geom_bond_type
C25   C46   A    
C66   H12   S    
C53   C54   A    
C49   P3    S    
Ba2   P4    S    
C7    H25   S    
O8    P7    S    
O10   P5    D    
Ba1   O22   S    
C17   C18   A    
C65   H9    S    
Ba1   O5    S    
C1    H11   S    
C23   H50   S    
Ba2   O6    S    
C3    O15   S    
O23   P6    D    
C71   H62   S    
C32   O21   D    
C32   N2    Am   
C4    H17   S    
O14   P7    D    
Ba1   P1    S    
C69   C70   S    
C65   O2    S    
O17   P8    S    
C52   P5    S    
C28   C29   A    
C19   H31   S    
C7    O17   S    
C75   O34   D    
C8    H26   S    
C42   C48   A    
O12   P1    S    
C64   H6    S    
C44   H37   S    
C10   C20   A    
C48   H42   S    
C22   C37   D    
C54   C55   A    
C59   H46   S    
C34   C45   S    
Ba1   Ba2   S    
O28   P3    D    
O26   P2    D    
C74   H65   S    
C43   H35   S    
O5    P4    S    
C69   H59   S    
C25   C42   A    
C56   C64   S    
O11   P5    S    
C2    H13   S    
C68   C69   S    
C17   C41   A    
C14   C15   D    
C22   H44   S    
Ba2   O9    S    
Ba1   O26   S    
O7    P4    S    
C24   C26   A    
Ba1   O13   S    
C68   H60   S    
C15   H30   S    
C51   H48   S    
C61   H47   S    
Ba2   O4    S    
C13   C21   S    
O1    P1    D    
O16   P8    D    
C57   C58   A    
C70   H56   S    
C69   H58   S    
C65   H10   S    
C14   P4    S    
C7    H24   S    
C12   H28   S    
C2    H1    S    
O2    P2    S    
Ba2   O8    S    
C47   H40   S    
C19   C43   A    
C71   O30   D    
C46   H38   S    
C9    C18   A    
C65   C66   S    
C55   C60   A    
C17   C20   A    
C5    O11   S    
C50   C62   A    
O4    P4    D    
C37   C38   D    
C3    H16   S    
C56   O24   S    
C53   H49   S    
C50   P2    S    
C51   C52   A    
C5    H22   S    
C37   P1    S    
Ba2   O13   S    
C4    H19   S    
C58   C59   A    
C40   C43   A    
C67   O29   D    
C8    H29   S    
C41   C42   A    
C45   H2    S    
C13   P8    S    
C35   C36   S    
C34   O7    S    
O22   P6    S    
O15   P7    S    
C22   C36   S    
C29   C30   A    
C26   C30   A    
C64   H8    S    
C5    C72   S    
C1    H14   S    
C15   C16   S    
Ba1   O27   S    
C6    H23   S    
C11   H36   S    
Ba1   P2    S    
C68   H61   S    
C9    O18   D    
C45   H3    S    
C60   H51   S    
C23   C75   S    
C16   N1    S    
C11   C16   D    
C38   C39   S    
C20   C44   A    
C14   C21   D    
C11   C13   S    
C29   C33   A    
C9    N1    Am   
C40   C41   A    
C1    C2    S    
O3    P3    S    
O6    P8    S    
C51   C63   A    
C24   C40   A    
C7    C8    S    
C66   C68   S    
C6    C74   S    
C52   C53   A    
C12   H39   S    
C62   H45   S    
C1    H20   S    
Ba2   O14   S    
C57   C61   A    
C49   C62   A    
C36   P6    S    
C55   C63   A    
C63   P7    S    
Ba1   O8    S    
C50   C61   A    
C12   O3    S    
C66   C71   S    
C10   O20   D    
C3    H15   S    
C38   H41   S    
C70   H57   S    
C21   H43   S    
C44   C48   A    
C23   H21   S    
Ba2   O12   S    
C4    H18   S    
C54   C57   A    
C67   H54   S    
C39   N2    S    
C72   H63   S    
O24   P1    S    
Ba1   O1    S    
C56   C67   S    
C30   C31   A    
O13   P2    S    
C6    C73   S    
C75   H66   S    
C3    C4    S    
C8    H27   S    
C46   C47   A    
C64   H7    S    
C28   H33   S    
C33   N2    Am   
O9    P5    S    
C31   C32   A    
C27   H34   S    
C34   H53   S    
O25   P6    S    
C12   C23   S    
C35   C39   D    
C59   C60   A    
C34   H52   S    
C74   O33   D    
C45   H4    S    
C5    C6    S    
C33   O19   D    
C27   C28   A    
C73   H64   S    
C70   H55   S    
C10   N1    Am   
C18   C19   A    
C24   C27   A    
O27   P3    S    
C25   C26   A    
C49   C58   A    
Ba1   O12   S    
C31   C47   A    
C35   H32   S    
C56   H5    S    
Ba2   O5    S    
C72   O31   D    
C73   O32   D    
C2    O25   S    
