data_mof_unit_55414.cif
_audit_creation_date              2012-10-26T21:00:43-0400
_audit_creation_method            fapswitch 2.2
_symmetry_space_group_name_H-M    P1
_symmetry_Int_Tables_number       1
_space_group_crystal_system       triclinic
_cell_length_a                    10.95178
_cell_length_b                    9.467504
_cell_length_c                    10.862649
_cell_angle_alpha                 89.99246
_cell_angle_beta                  89.514329
_cell_angle_gamma                 90.000656
_cell_volume                      1126.26437862

loop_
_atom_site_label
_atom_site_type_symbol
_atom_type_description
_atom_site_fract_x
_atom_site_fract_y
_atom_site_fract_z
_atom_type_partial_charge
C1    C     C_R   0.261846 0.497874 0.502843 0.552516
C2    C     C_R   0.509201 0.500955 0.737808 0.549515
C3    C     C_R   0.444761 0.765671 0.115064 -0.102922
C4    C     C_R   0.556106 0.765443 0.884769 -0.102832
C5    C     C_R   0.469940 0.893230 0.056062 -0.139222
C6    C     C_R   0.531252 0.893108 0.943687 -0.139177
C7    C     C_R   0.519114 0.635163 0.937862 0.030164
C8    C     C_R   0.481426 0.635242 0.062062 0.030170
C9    C     C_R   0.483168 0.505153 0.127717 -0.010064
C10   C     C_R   0.517010 0.505081 0.872262 -0.010082
C11   C     C_R   0.494259 0.377620 0.063388 -0.165578
C12   C     C_R   0.738155 0.497875 0.497172 0.552466
C13   C     C_R   0.505627 0.377591 0.936638 -0.165593
C14   C     C_R   0.064421 0.355854 0.506303 0.002366
C15   C     C_R   0.935574 0.355853 0.493766 0.002372
C16   C     C_R   0.872015 0.488586 0.495296 0.009704
C17   C     C_R   0.127986 0.488585 0.504751 0.009698
C18   C     C_3   0.129724 0.212897 0.523169 -0.223251
C19   C     C_3   0.173250 0.149450 0.398850 -0.283094
C20   C     C_3   0.173929 0.988294 0.401266 -0.458963
C21   C     C_3   0.870267 0.212889 0.476951 -0.223228
C22   C     C_3   0.826708 0.149482 0.601290 -0.283067
C23   C     C_R   0.937159 0.615105 0.498440 -0.167608
C24   C     C_3   0.825994 0.988317 0.598933 -0.458960
C25   C     C_R   0.062845 0.615104 0.501617 -0.167603
C26   C     C_R   0.551155 0.074519 0.404453 -0.005805
C27   C     C_R   0.448828 0.074490 0.595555 -0.005874
C28   C     C_R   0.551340 0.925502 0.404575 -0.007225
C29   C     C_R   0.448636 0.925474 0.595432 -0.007131
C30   C     C_R   0.490862 0.500979 0.262181 0.549549
Cu1   Cu    Cu3+1 0.500000 0.640660 0.500000 0.912542
Cu2   Cu    Cu3+1 0.500000 0.359340 0.500000 0.892931
H1    H     H_    0.493251 0.277018 0.110946 0.124429
H2    H     H_    0.407207 0.130508 0.671741 0.103834
H3    H     H_    0.593992 0.869448 0.328968 0.119474
H4    H     H_    0.405998 0.869397 0.671051 0.119534
H5    H     H_    0.225943 0.949150 0.481385 0.164769
H6    H     H_    0.079037 0.947512 0.407053 0.135167
H7    H     H_    0.217178 0.947162 0.315657 0.143379
H8    H     H_    0.113024 0.184310 0.322788 0.148972
H9    H     H_    0.266751 0.185461 0.375209 0.207310
H10   H     H_    0.203555 0.217567 0.591911 0.154363
H11   H     H_    0.070085 0.136729 0.571751 0.131317
H12   H     H_    0.506362 0.276981 0.889114 0.124447
H13   H     H_    0.773947 0.949171 0.518842 0.164810
H14   H     H_    0.920871 0.947491 0.593143 0.135180
H15   H     H_    0.782751 0.947222 0.684568 0.143283
H16   H     H_    0.886934 0.184350 0.677348 0.148957
H17   H     H_    0.733204 0.185519 0.624905 0.207296
H18   H     H_    0.796456 0.217538 0.408183 0.154362
H19   H     H_    0.929912 0.136696 0.428428 0.131327
H20   H     H_    0.393498 0.771344 0.200248 0.139345
H21   H     H_    0.607342 0.770890 0.799556 0.139302
H22   H     H_    0.444449 0.992201 0.099096 0.098292
H23   H     H_    0.556976 0.991980 0.900581 0.098399
H24   H     H_    0.890537 0.715734 0.497381 0.129515
H25   H     H_    0.109472 0.715730 0.502674 0.129529
H26   H     H_    0.592867 0.130563 0.328277 0.103811
N1    N     N_R   0.500000 0.852070 0.500000 -0.229512
N2    N     N_R   0.500000 0.147940 0.500000 -0.232792
O1    O     O_R   0.319640 0.618740 0.499990 -0.505191
O2    O     O_R   0.680360 0.618740 0.500010 -0.505237
O3    O     O_R   0.319620 0.381170 0.499990 -0.516507
O4    O     O_R   0.680380 0.381170 0.500010 -0.516528
O5    O     O_R   0.500000 0.618810 0.319650 -0.514350
O6    O     O_R   0.500000 0.618810 0.680350 -0.514310
O7    O     O_R   0.499970 0.381240 0.319640 -0.516329
O8    O     O_R   0.500030 0.381240 0.680360 -0.516359

loop_
_geom_bond_atom_site_label_1
_geom_bond_atom_site_label_2
_ccdc_geom_bond_type
C7    C10   A    
C22   H16   S    
C3    H20   S    
C2    O6    A    
C7    C8    A    
C11   H1    S    
C4    H21   S    
Cu1   O6    S    
C20   H6    S    
C14   C18   S    
C26   C28   A    
C19   C20   S    
C29   H4    S    
C15   C21   S    
C6    H23   S    
Cu2   O8    S    
C24   H14   S    
C19   H9    S    
C17   C25   A    
C23   H24   S    
Cu1   Cu2   S    
C18   H11   S    
C20   H5    S    
C9    C11   A    
C14   C17   A    
Cu1   O2    S    
C26   N2    A    
C25   H25   S    
C9    C30   S    
Cu2   O7    S    
C24   H13   S    
C1    O3    A    
C21   H18   S    
C3    C8    A    
C16   C23   A    
C2    O8    A    
C27   N2    A    
C23   C25   A    
C27   H2    S    
C5    C6    A    
C12   O4    A    
C22   C24   S    
C11   C13   A    
C27   C29   A    
C19   H8    S    
Cu2   N2    S    
C29   N1    A    
Cu1   N1    S    
C15   C16   A    
C30   O5    A    
C12   C16   S    
C5    H22   S    
C21   H19   S    
C12   O2    A    
Cu2   O4    S    
C4    C6    A    
C18   C19   S    
C28   N1    A    
C22   H17   S    
Cu1   O5    S    
C20   H7    S    
Cu1   O1    S    
C14   C15   A    
C18   H10   S    
C4    C7    A    
C21   C22   S    
C24   H15   S    
C1    C17   S    
Cu2   O3    S    
C26   H26   S    
C13   H12   S    
C30   O7    A    
C28   H3    S    
C1    O1    A    
C8    C9    A    
C3    C5    A    
C10   C13   A    
C2    C10   S    
