data_mof_unit_27899.cif
_audit_creation_date              2012-12-10T17:02:59-0500
_audit_creation_method            fapswitch 2.2
_symmetry_space_group_name_H-M    P1
_symmetry_Int_Tables_number       1
_space_group_crystal_system       triclinic
_cell_length_a                    10.050028
_cell_length_b                    10.986133
_cell_length_c                    13.357074
_cell_angle_alpha                 94.569976
_cell_angle_beta                  84.195229
_cell_angle_gamma                 110.683551
_cell_volume                      1371.10555602

loop_
_atom_site_label
_atom_site_type_symbol
_atom_type_description
_atom_site_fract_x
_atom_site_fract_y
_atom_site_fract_z
_atom_type_partial_charge
C1    C     C_R   0.556309 0.744892 0.507104 0.886262
C2    C     C_R   0.443238 0.461647 0.967222 0.125462
C3    C     C_R   0.480370 0.444095 0.864004 -0.016285
C4    C     C_R   0.552255 0.507435 0.035509 0.003634
C5    C     C_R   0.691942 0.506528 0.003217 0.030404
C6    C     C_R   0.722978 0.476322 0.900433 -0.120298
C7    C     C_R   0.612641 0.428697 0.835395 -0.075211
C8    C     C_R   0.525822 0.552359 0.135411 -0.117602
C9    C     C_R   0.766054 0.581718 0.172129 -0.040568
C10   C     C_R   0.377193 0.426619 0.793538 -0.087035
C11   C     C_2   0.585090 0.883997 0.516190 -0.338730
C12   C     C_R   0.422552 0.469239 0.687748 0.782943
C13   C     C_2   0.506903 0.933078 0.468682 -0.064413
C14   C     C_2   0.421437 0.117434 0.460683 -0.149247
C15   C     C_2   0.508234 0.064730 0.495821 -0.246971
C16   C     C_2   0.919015 0.479230 0.502977 -0.016284
C17   C     C_2   0.079239 0.510792 0.510539 0.088026
C18   C     C_R   0.445918 0.255299 0.486537 0.796498
C19   C     C_R   0.576860 0.527606 0.312124 0.884643
C20   C     C_R   0.796484 0.535558 0.075057 0.122242
C21   C     C_R   0.623406 0.559275 0.205866 -0.196831
C22   C     C_R   0.231930 0.366332 0.827229 0.188859
C23   C     C_R   0.193519 0.362792 0.931070 -0.119664
C24   C     C_R   0.296677 0.416511 0.000006 -0.135463
Cu1   Cu    Cu3+1 0.362000 0.479240 0.482530 1.031611
Cu2   Cu    Cu3+1 0.638000 0.520760 0.517470 1.056803
H1    H     H_    0.438674 0.872155 0.413016 0.251750
H2    H     H_    0.662612 0.944124 0.567325 0.166906
H3    H     H_    0.261262 0.411504 0.079302 0.134576
H4    H     H_    0.083595 0.316226 0.959119 0.150564
H5    H     H_    0.585104 0.122138 0.547868 0.203079
N1    N     N_2   0.845330 0.551960 0.543750 -0.280349
N2    N     N_2   0.154690 0.448120 0.456210 -0.184062
O1    O     O_R   0.426290 0.668220 0.490680 -0.537372
O2    O     O_R   0.659360 0.703290 0.520190 -0.573815
O3    O     O_R   0.326580 0.473880 0.629020 -0.573507
O4    O     O_R   0.559660 0.508940 0.658530 -0.575254
O5    O     O_R   0.340640 0.296710 0.479810 -0.561101
O6    O     O_R   0.573710 0.331780 0.509320 -0.559320
O7    O     O_R   0.440340 0.491060 0.341470 -0.566929
O8    O     O_R   0.673420 0.526120 0.370980 -0.552897
C25   C     C_2   0.880844 0.673260 0.232520 0.906231
O9    O     O_2   0.003685 0.675050 0.220100 -0.606664
O10   O     O_R   0.847512 0.764157 0.300302 -0.747744
H6    H     H_    0.933256 0.827462 0.333016 0.357973
C26   C     C_2   0.311675 0.047137 0.389077 0.872713
O11   O     O_2   0.290215 0.106143 0.322123 -0.588973
O12   O     O_R   0.231581 0.915305 0.398411 -0.690972
H7    H     H_    0.171484 0.877258 0.339535 0.362495
C27   C     C_2   0.146408 0.604909 0.591987 0.895991
O13   O     O_2   0.123851 0.571992 0.678754 -0.598072
O14   O     O_R   0.221631 0.735167 0.571378 -0.704489
H8    H     H_    0.257078 0.791046 0.634043 0.327741
C28   C     C_2   0.842256 0.347634 0.461003 0.926680
O15   O     O_2   0.785507 0.333575 0.382028 -0.597878
O16   O     O_R   0.851289 0.240041 0.505344 -0.753769
H9    H     H_    0.812528 0.156441 0.462812 0.324290
C29   C     C_3   0.113363 0.390435 0.356881 -0.434029
H10   H     H_    0.207417 0.398658 0.304493 0.226916
H11   H     H_    0.052728 0.284667 0.361469 0.198501
H12   H     H_    0.053869 0.441576 0.321332 0.181356
C30   C     C_2   0.915689 0.685102 0.571290 1.048894
O17   O     O_2   0.981959 0.761384 0.506853 -0.570149
O18   O     O_R   0.898845 0.729919 0.670862 -0.729561
H13   H     H_    0.951326 0.826956 0.681183 0.330185
C31   C     C_2   0.872136 0.518671 0.856877 0.952911
O19   O     O_2   0.923755 0.438659 0.819891 -0.570408
O20   O     O_R   0.956295 0.650523 0.866092 -0.718972
H14   H     H_    0.060401 0.668068 0.843720 0.361955
C32   C     C_3   0.921644 0.487574 0.059602 -0.762951
H15   H     H_    0.894587 0.396710 0.011293 0.214620
H16   H     H_    0.018523 0.563791 0.027398 0.265124
H17   H     H_    0.945891 0.458930 0.131638 0.245145
C33   C     C_2   0.429378 0.630982 0.156988 0.852215
O21   O     O_2   0.399102 0.664032 0.243291 -0.570040
O22   O     O_R   0.382946 0.677244 0.077419 -0.747702
H18   H     H_    0.320599 0.730663 0.101315 0.358237
C34   C     C_3   0.122860 0.285567 0.756089 -0.647569
H19   H     H_    0.022736 0.225311 0.797668 0.226423
H20   H     H_    0.094333 0.346485 0.706435 0.303067
H21   H     H_    0.165968 0.218091 0.708750 0.205415
C35   C     C_2   0.615323 0.323740 0.758497 0.877235
O23   O     O_2   0.718537 0.336249 0.698247 -0.540861
O24   O     O_R   0.497551 0.207926 0.757711 -0.779775
H22   H     H_    0.514367 0.137540 0.710241 0.323209

loop_
_geom_bond_atom_site_label_1
_geom_bond_atom_site_label_2
_ccdc_geom_bond_type
C31   O20   S    
Cu2   N1    S    
N2    C29   S    
C14   C18   S    
C1    C11   S    
C4    C8    A    
C14   C26   S    
C5    C20   A    
C10   C22   A    
C9    C25   S    
C17   N2    D    
C19   C21   S    
C3    C7    A    
Cu1   O7    S    
C5    C6    A    
C34   H20   S    
Cu2   O6    S    
C29   H11   S    
O16   H9    S    
C12   O4    A    
C24   H3    S    
C30   O18   S    
C28   O15   D    
C16   C17   S    
C27   O14   S    
C23   C24   A    
C32   H15   S    
C12   O3    A    
Cu1   O1    S    
C29   H12   S    
C31   O19   D    
C20   C32   S    
C25   O10   S    
C10   C12   S    
Cu1   Cu2   S    
C1    O1    A    
C27   O13   D    
C26   O12   S    
C28   O16   S    
C33   O21   D    
C23   H4    S    
O22   H18   S    
C22   C34   S    
C34   H19   S    
O20   H14   S    
C29   H10   S    
C2    C4    A    
C18   O6    A    
C30   O17   D    
Cu1   O5    S    
C9    C20   A    
C32   H17   S    
C8    C33   S    
C8    C21   A    
O24   H22   S    
C33   O22   S    
O12   H7    S    
C35   O24   S    
C13   C15   S    
C2    C24   A    
C25   O9    D    
O14   H8    S    
C1    O2    A    
C26   O11   D    
C14   C15   D    
O10   H6    S    
C4    C5    A    
C17   C27   S    
Cu2   O4    S    
C15   H5    S    
C6    C7    A    
C16   N1    D    
O18   H13   S    
C2    C3    A    
C18   O5    A    
N1    C30   S    
C3    C10   A    
C11   C13   D    
C34   H21   S    
C9    C21   A    
C11   H2    S    
C16   C28   S    
C19   O7    A    
Cu1   O3    S    
Cu2   O2    S    
C6    C31   S    
C7    C35   S    
C35   O23   D    
C22   C23   A    
C13   H1    S    
C32   H16   S    
C19   O8    A    
Cu2   O8    S    
Cu1   N2    S    
