data_mof_unit_17888.cif
_audit_creation_date              2013-03-05T16:54:31-0500
_audit_creation_method            fapswitch 2.2
_symmetry_space_group_name_H-M    P1
_symmetry_Int_Tables_number       1
_space_group_crystal_system       triclinic
_cell_length_a                    17.613263
_cell_length_b                    16.694962
_cell_length_c                    10.811682
_cell_angle_alpha                 90.025493
_cell_angle_beta                  88.850368
_cell_angle_gamma                 89.989939
_cell_volume                      3178.56457504

loop_
_atom_site_label
_atom_site_type_symbol
_atom_site_description
_atom_site_fract_x
_atom_site_fract_y
_atom_site_fract_z
_atom_type_partial_charge
O1    O     O_R   0.389110 0.566570 0.499990 -0.639451
O2    O     O_R   0.610890 0.566570 0.500010 -0.639231
O3    O     O_R   0.389090 0.433480 0.499980 -0.580418
O4    O     O_R   0.610910 0.433480 0.500020 -0.580626
C1    C     C_R   0.353277 0.500145 0.502610 0.983285
C2    C     C_R   0.646739 0.500120 0.497017 0.982107
O5    O     O_R   0.500000 0.566560 0.316760 -0.649631
O6    O     O_R   0.500000 0.566560 0.683240 -0.649367
O7    O     O_R   0.499970 0.433470 0.316760 -0.576666
O8    O     O_R   0.500030 0.433470 0.683240 -0.577071
C3    C     C_R   0.505877 0.499907 0.259282 0.961523
C4    C     C_R   0.493886 0.499948 0.740670 0.962157
Zn1   Zn    Zn3+2 0.500000 0.588860 0.500000 0.984371
Zn2   Zn    Zn3+2 0.500000 0.411140 0.500000 1.105077
C5    C     C_R   0.539189 0.645789 0.109662 -0.247137
C6    C     C_R   0.461204 0.646133 0.890393 -0.246368
H1    H     H_    0.574463 0.645872 0.190233 0.227873
H2    H     H_    0.425991 0.646511 0.809752 0.228176
C7    C     C_R   0.522393 0.719399 0.054090 0.349664
C8    C     C_R   0.478422 0.719587 0.946184 0.352029
C9    C     C_R   0.486427 0.572668 0.940097 -0.007470
C10   C     C_R   0.513404 0.572540 0.059892 -0.007766
C11   C     C_R   0.512275 0.499196 0.125766 -0.210697
C12   C     C_R   0.486995 0.499327 0.874153 -0.210010
C13   C     C_R   0.503716 0.425558 0.062921 0.224427
C14   C     C_R   0.494524 0.425607 0.937004 0.223693
C15   C     C_R   0.842486 0.568208 0.565530 0.324717
C16   C     C_R   0.158192 0.566886 0.427180 0.325300
C17   C     C_R   0.764158 0.558897 0.567919 -0.279135
C18   C     C_R   0.236533 0.557772 0.427109 -0.280447
H3    H     H_    0.729726 0.597736 0.626690 0.205638
H4    H     H_    0.271458 0.595808 0.367902 0.204875
C19   C     C_R   0.729225 0.501804 0.493412 -0.238321
C20   C     C_R   0.270838 0.501857 0.504373 -0.236878
C21   C     C_R   0.772896 0.451780 0.413876 0.279007
C22   C     C_R   0.226590 0.452821 0.584354 0.279536
C23   C     C_R   0.852372 0.456766 0.417678 0.178391
C24   C     C_R   0.147176 0.457643 0.578631 0.179268
C25   C     C_R   0.886238 0.516165 0.490733 -0.169419
C26   C     C_R   0.113875 0.515896 0.502779 -0.169746
C27   C     C_1   0.966408 0.518879 0.494788 0.223778
C28   C     C_1   0.033749 0.518784 0.497643 0.223424
C29   C     C_R   0.444526 0.832189 0.436452 -0.121025
C30   C     C_R   0.555528 0.832281 0.563054 -0.115674
H5    H     H_    0.400921 0.863348 0.386158 0.196833
H6    H     H_    0.599283 0.863515 0.612915 0.197972
C31   C     C_R   0.445674 0.747913 0.437356 0.093839
C32   C     C_R   0.554319 0.748003 0.562545 0.094569
H7    H     H_    0.403092 0.714993 0.387606 0.138142
H8    H     H_    0.596925 0.715156 0.612334 0.138104
N1    N     N_R   0.500000 0.707230 0.500000 -0.115139
C33   C     C_R   0.500044 0.875333 0.499649 0.095316
C34   C     C_1   0.500431 0.962987 0.498655 0.061669
C35   C     C_1   0.501121 0.036123 0.497160 0.201223
C36   C     C_R   0.447237 0.167838 0.428182 0.213139
C37   C     C_R   0.556874 0.167758 0.562683 0.210832
C38   C     C_R   0.447429 0.252389 0.433936 0.048960
C39   C     C_R   0.553648 0.252328 0.563660 0.049956
H9    H     H_    0.405944 0.286452 0.383587 0.197688
H10   H     H_    0.595079 0.286339 0.614237 0.196032
N2    N     N_R   0.500000 0.292770 0.500000 -0.144515
C40   C     C_R   0.502482 0.124203 0.494435 -0.126042
N3    N     N_R   0.503637 0.349483 0.125089 0.241861
O9    O     O_R   0.441850 0.306804 0.129873 -0.311573
O10   O     O_R   0.567399 0.317325 0.157840 -0.228505
N4    N     N_R   0.493579 0.349537 0.874803 0.242619
O11   O     O_R   0.554758 0.305875 0.870101 -0.303346
O12   O     O_R   0.429430 0.318478 0.841618 -0.228930
N5    N     N_R   0.390873 0.128225 0.355111 0.247596
O13   O     O_R   0.326791 0.163751 0.332907 -0.268013
O14   O     O_R   0.405924 0.060710 0.299654 -0.325966
N6    N     N_R   0.615360 0.128060 0.631135 0.240145
O15   O     O_R   0.646056 0.163706 0.724820 -0.257329
O16   O     O_R   0.643763 0.060145 0.593457 -0.319746
S1    S     S_3+6 0.557791 0.808098 0.122753 0.099771
O17   O     O_2   0.593294 0.789362 0.244705 -0.318629
O18   O     O_2   0.617186 0.844139 0.038042 -0.167165
O19   O     O_3   0.487435 0.874695 0.146527 -0.472482
H11   H     H_    0.511871 0.921173 0.186486 0.403278
S2    S     S_3+6 0.443546 0.808573 0.877786 0.096665
O20   O     O_2   0.407835 0.790162 0.755864 -0.322089
O21   O     O_2   0.384445 0.845040 0.962675 -0.165950
O22   O     O_3   0.514340 0.874619 0.854045 -0.480328
H12   H     H_    0.490223 0.921251 0.814026 0.393758
N7    N     N_R   0.876314 0.629332 0.641004 0.237718
O23   O     O_R   0.937596 0.666473 0.603941 -0.286625
O24   O     O_R   0.841507 0.654097 0.741249 -0.310118
N8    N     N_R   0.124977 0.626734 0.348681 0.237597
O25   O     O_R   0.063220 0.664187 0.382732 -0.286979
O26   O     O_R   0.160706 0.650062 0.248486 -0.311685
S3    S     S_3+6 0.728984 0.391334 0.299922 0.134105
O27   O     O_2   0.696284 0.317755 0.360658 -0.181216
O28   O     O_2   0.666088 0.438093 0.242345 -0.336437
O29   O     O_3   0.789794 0.362840 0.186273 -0.396486
H13   H     H_    0.800103 0.412133 0.137795 0.377110
S4    S     S_3+6 0.269710 0.393751 0.700700 0.134307
O30   O     O_2   0.302621 0.319405 0.642441 -0.176744
O31   O     O_2   0.332352 0.441082 0.757968 -0.337963
O32   O     O_3   0.208178 0.366751 0.814153 -0.397736
H14   H     H_    0.197477 0.416701 0.860848 0.377437
N9    N     N_R   0.899061 0.400156 0.351096 0.239585
O33   O     O_R   0.893364 0.324074 0.375611 -0.216584
O34   O     O_R   0.950203 0.424672 0.271245 -0.320356
N10   N     N_R   0.100005 0.402036 0.646236 0.239317
O35   O     O_R   0.105738 0.325622 0.624238 -0.216369
O36   O     O_R   0.048474 0.427724 0.724558 -0.321860

loop_
_geom_bond_atom_site_label_1
_geom_bond_atom_site_label_2
_geom_bond_distance
_ccdc_geom_bond_type
N4    O12   1.300198 A    
N3    O10   1.300307 A    
C6    C9    1.414366 A    
C15   C17   1.388105 A    
C27   C28   1.187119 T    
C7    C8    1.413197 A    
O7    Zn2   2.016077 S    
N10   O36   1.301334 A    
C25   C27   1.414345 S    
N7    O23   1.301243 A    
C5    C7    1.402289 A    
N9    O33   1.301152 A    
O1    C1    1.276126 A    
C21   C23   1.403746 A    
C12   C14   1.413648 A    
C29   C33   1.403020 A    
C38   H9    1.081534 S    
C16   C26   1.406140 A    
C39   H10   1.081590 S    
S4    O32   1.682159 S    
C17   C19   1.398366 A    
C15   N7    1.442622 S    
C13   N3    1.437216 S    
C3    C11   1.445714 S    
N5    O14   1.301228 A    
O2    Zn1   1.988206 S    
C24   N10   1.436290 S    
C23   N9    1.436320 S    
Zn1   N1    1.976183 S    
C32   N1    1.364449 A    
O32   H14   0.990733 S    
C15   C25   1.406003 A    
C37   N6    1.441842 S    
S4    O31   1.500797 D    
C16   N8    1.442692 S    
O6    C4    1.277438 A    
C30   C33   1.403080 A    
C39   N2    1.359684 A    
C26   C28   1.414307 S    
N4    O11   1.300973 A    
C5    C10   1.414450 A    
N9    O34   1.301338 A    
C24   C26   1.407902 A    
C9    C10   1.388514 A    
C1    C20   1.452046 S    
C17   H3    1.084443 S    
O2    C2    1.276463 A    
S2    O22   1.680586 S    
N10   O35   1.301143 A    
C30   H6    1.083061 S    
N7    O24   1.301649 A    
C23   C25   1.407654 A    
C8    S2    1.774872 S    
C14   N4    1.437053 S    
N6    O16   1.301155 A    
O8    Zn2   2.015749 S    
S3    O27   1.502560 D    
C18   C20   1.398231 A    
O19   H11   0.990601 S    
S2    O20   1.503552 D    
C31   N1    1.364473 A    
C35   C40   1.470990 S    
C13   C14   1.374183 A    
C34   C35   1.221171 T    
Zn2   N2    1.976183 S    
O5    C3    1.277470 A    
S1    O17   1.503558 D    
S3    O28   1.500637 D    
O7    C3    1.274870 A    
C22   S4    1.780688 S    
O22   H12   0.990602 S    
C6    C8    1.402299 A    
S4    O30   1.502584 D    
O29   H13   0.990730 S    
N8    O25   1.301228 A    
S1    O18   1.502520 D    
C36   N5    1.441627 S    
O3    Zn2   1.988714 S    
O8    C4    1.275013 A    
S2    O21   1.502521 D    
N8    O26   1.301658 A    
C36   C38   1.412931 A    
C37   C40   1.420965 A    
O4    C2    1.279277 A    
O1    Zn1   1.988336 S    
C22   C24   1.403639 A    
C33   C34   1.463451 S    
C5    H1    1.080065 S    
N6    O15   1.301533 A    
O3    C1    1.279216 A    
C38   N2    1.359545 A    
C31   H7    1.081649 S    
C4    C12   1.445886 S    
C2    C19   1.452858 S    
C7    S1    1.774982 S    
C16   C18   1.388169 A    
C29   H5    1.083059 S    
S3    O29   1.682185 S    
C18   H4    1.084479 S    
C32   H8    1.081648 S    
C19   C21   1.414623 A    
C37   C39   1.413052 A    
C20   C22   1.413909 A    
C11   C13   1.413930 A    
O4    Zn2   1.988841 S    
N5    O13   1.301576 A    
S1    O19   1.680588 S    
N3    O9    1.301059 A    
O6    Zn1   2.015972 S    
O5    Zn1   2.015647 S    
C36   C40   1.420837 A    
C6    H2    1.080075 S    
C9    C12   1.416528 A    
C10   C11   1.416758 A    
C29   C31   1.407169 A    
C30   C32   1.407198 A    
C21   S3    1.780973 S    
