data_mof_unit_44079.cif
_audit_creation_date              2012-12-11T17:07:28-0500
_audit_creation_method            fapswitch 2.2
_symmetry_space_group_name_H-M    P1
_symmetry_Int_Tables_number       1
_space_group_crystal_system       triclinic
_cell_length_a                    6.984143
_cell_length_b                    14.877569
_cell_length_c                    15.873428
_cell_angle_alpha                 89.980963
_cell_angle_beta                  89.44738
_cell_angle_gamma                 90.044588
_cell_volume                      1649.28407323

loop_
_atom_site_label
_atom_site_type_symbol
_atom_type_description
_atom_site_fract_x
_atom_site_fract_y
_atom_site_fract_z
_atom_type_partial_charge
O1    O     O_R   0.505720 0.583900 0.413310 -0.513473
O2    O     O_R   0.175940 0.594920 0.586080 -0.559435
O3    O     O_R   0.005640 0.416100 0.586690 -0.553738
C1    C     C_R   0.343439 0.612080 0.618034 0.684933
O4    O     O_R   0.176000 0.594930 0.413930 -0.524730
O5    O     O_R   0.005700 0.416110 0.413310 -0.545505
C2    C     C_R   0.345482 0.617047 0.385355 0.748306
O6    O     O_R   0.505660 0.583890 0.586690 -0.547901
O7    O     O_3   0.339200 0.441330 0.500000 -0.382678
V1    V     V_3+5 0.064350 0.510880 0.500000 1.550765
O8    O     O_R   0.675980 0.405080 0.413920 -0.528570
C3    C     C_R   0.845521 0.385345 0.383456 0.858243
O9    O     O_R   0.675920 0.405070 0.586070 -0.521346
C4    C     C_R   0.844280 0.384070 0.614988 0.784877
V2    V     V_3+5 0.564340 0.489120 0.500000 1.579308
O10   O     O_3   0.839360 0.558670 0.500000 -0.361636
C5    C     C_R   0.939467 0.433575 0.784888 -0.280077
C6    C     C_R   0.975008 0.461475 0.867101 0.667416
C7    C     C_R   0.972452 0.399410 0.932508 -0.115216
C8    C     C_R   0.939258 0.308845 0.915820 -0.228738
C9    C     C_R   0.906417 0.278361 0.832623 0.074438
C10   C     C_R   0.900191 0.342483 0.766137 -0.022611
C11   C     C_R   0.884532 0.185647 0.815106 -0.080235
C12   C     C_R   0.860679 0.157538 0.729022 -0.144250
C13   C     C_R   0.831626 0.222543 0.664081 -0.046979
C14   C     C_R   0.854639 0.315354 0.682847 -0.091484
C15   C     C_R   0.873668 0.066124 0.704209 -0.144226
C16   C     C_R   0.828947 0.037908 0.623153 0.557553
C17   C     C_R   0.784331 0.100183 0.561479 -0.236184
C18   C     C_R   0.790534 0.191988 0.580715 0.469925
H1    H     H_    0.945674 0.483853 0.735933 0.108457
H2    H     H_    0.998833 0.421240 0.996427 0.189531
H3    H     H_    0.941842 0.263138 0.968829 0.141138
C19   C     C_R   0.724486 0.246781 0.188989 0.038672
C20   C     C_R   0.876646 0.185760 0.182925 -0.168206
C21   C     C_R   0.021987 0.194316 0.242469 -0.087762
H4    H     H_    0.130836 0.143884 0.243719 0.153298
C22   C     C_R   0.015310 0.260623 0.305980 -0.033905
H5    H     H_    0.125670 0.261046 0.353371 0.145582
C23   C     C_R   0.860040 0.320873 0.312099 -0.048202
C24   C     C_R   0.721763 0.316506 0.248534 0.028573
C25   C     C_3   0.509051 0.314654 0.257737 -0.355005
C26   C     C_3   0.515020 0.229515 0.203054 0.476566
H6    H     H_    0.459796 0.305663 0.323910 0.137965
C27   C     C_R   0.501865 0.671890 0.749353 0.042897
C28   C     C_R   0.347996 0.670730 0.693346 -0.059922
C29   C     C_R   0.195075 0.728379 0.711587 -0.101137
H7    H     H_    0.068945 0.728066 0.672755 0.172838
C30   C     C_R   0.208376 0.792179 0.776262 -0.082849
H8    H     H_    0.087724 0.833218 0.786386 0.170626
C31   C     C_R   0.377599 0.806253 0.821873 -0.062197
C32   C     C_R   0.521431 0.741577 0.808240 0.028023
C33   C     C_3   0.726813 0.751441 0.783326 0.504360
C34   C     C_3   0.708947 0.668564 0.729574 -0.439831
H9    H     H_    0.828251 0.745680 0.836499 0.047142
H10   H     H_    0.777089 0.609133 0.758271 0.152064
H11   H     H_    0.743968 0.679870 0.661947 0.219628
C35   C     C_R   0.499623 0.680142 0.253640 0.010692
C36   C     C_R   0.354303 0.683060 0.315005 -0.096958
C37   C     C_R   0.209876 0.748072 0.304365 -0.090092
H12   H     H_    0.095862 0.753561 0.350404 0.206833
C38   C     C_R   0.218940 0.811155 0.237980 -0.123583
H13   H     H_    0.109190 0.862318 0.234388 0.128881
C39   C     C_R   0.374554 0.812039 0.180569 -0.068942
C40   C     C_R   0.509437 0.742683 0.187951 -0.090691
C41   C     C_3   0.723300 0.746469 0.190261 -0.355689
C42   C     C_3   0.711601 0.680114 0.263727 1.066201
H14   H     H_    0.777726 0.813866 0.208593 0.124475
O11   O     O_R   0.229140 0.916090 0.913340 -0.557575
O12   O     O_R   0.558860 0.905090 0.086080 -0.543311
O13   O     O_R   0.729100 0.083920 0.086690 -0.509841
C43   C     C_R   0.389067 0.882126 0.113946 0.721321
O14   O     O_R   0.558860 0.905090 0.913930 -0.528052
O15   O     O_R   0.729100 0.083920 0.913310 -0.517431
C44   C     C_R   0.390249 0.880653 0.886378 0.745836
O16   O     O_R   0.229140 0.916080 0.086720 -0.531576
O17   O     O_3   0.395570 0.058660 0.000020 -0.329013
V3    V     V_3+5 0.670450 0.989140 0.000000 1.560147
O18   O     O_R   0.058810 0.094980 0.913910 -0.535546
C45   C     C_R   0.890290 0.119475 0.887041 0.685281
O19   O     O_R   0.058810 0.094980 0.086060 -0.517747
C46   C     C_R   0.888764 0.116378 0.115352 0.717447
V4    V     V_3+5 0.170450 0.010950 0.999970 1.577263
O20   O     O_3   0.895460 0.941370 0.999990 -0.390744
C47   C     C_2   0.747714 0.068484 0.474789 1.002522
O21   O     O_2   0.653112 0.000439 0.463188 -0.500122
O22   O     O_R   0.828071 0.114119 0.406348 -0.639847
H15   H     H_    0.806187 0.081578 0.351188 0.287201
C48   C     C_2   0.416491 0.394622 0.215738 0.903158
O23   O     O_2   0.242151 0.399037 0.212234 -0.541138
O24   O     O_R   0.528771 0.463378 0.180928 -0.611755
H16   H     H_    0.449008 0.512414 0.154179 0.323293
F1    F     F_    0.411051 0.235151 0.129295 -0.654957
C49   C     C_2   0.480141 0.142843 0.251455 0.661539
O25   O     O_2   0.457896 0.143640 0.327997 -0.562740
O26   O     O_R   0.466334 0.061684 0.208029 -0.641408
H17   H     H_    0.442039 0.008904 0.247125 0.279910
F2    F     F_    0.751996 0.823854 0.730087 -0.616792
C50   C     C_2   0.814475 0.709967 0.110688 0.868073
O27   O     O_2   0.756986 0.639981 0.079218 -0.506431
O28   O     O_R   0.964677 0.757379 0.072632 -0.661956
H18   H     H_    0.014200 0.727172 0.019484 0.301206
F3    F     F_    0.764482 0.717091 0.339965 -0.698870
F4    F     F_    0.793160 0.596685 0.248958 -0.657855
F5    F     F_    0.012265 0.549236 0.883346 -0.699204
C51   C     C_2   0.958807 0.999486 0.758047 0.898477
O29   O     O_2   0.132604 0.990663 0.758779 -0.563435
O30   O     O_R   0.839344 0.952996 0.813083 -0.612224
H19   H     H_    0.908849 0.915569 0.855485 0.293713
F6    F     F_    0.842772 0.949253 0.602769 -0.585969
F7    F     F_    0.753520 0.249876 0.517071 -0.687071

loop_
_geom_bond_atom_site_label_1
_geom_bond_atom_site_label_2
_ccdc_geom_bond_type
C41   H14   S    
O22   H15   S    
O28   H18   S    
O12   V3    S    
C24   C25   S    
C7    C8    A    
C12   C15   A    
C1    O6    A    
O19   C46   A    
C42   F3    S    
C29   C30   A    
C1    C28   S    
O17   V3    S    
C38   H13   S    
C16   C17   A    
C31   C44   S    
C6    C7    A    
O5    C3    A    
C22   H5    S    
C51   O29   D    
O17   V4    S    
V2    O10   S    
C26   C49   S    
O30   H19   S    
C37   C38   A    
C19   C20   A    
C38   C39   A    
O8    V2    S    
C29   H7    S    
C30   C31   A    
C11   C12   A    
O1    V2    S    
C11   C45   S    
C48   O24   S    
O7    V1    S    
C17   C47   S    
C43   O16   A    
O13   C46   A    
C47   O22   S    
C41   C42   S    
C36   C37   A    
O15   C45   A    
O9    C4    A    
O14   C44   A    
C19   C24   A    
C25   H6    S    
C7    H2    S    
O16   V4    S    
C2    C36   S    
O19   V4    S    
C20   C46   S    
C42   F4    S    
C33   H9    S    
C34   H10   S    
C31   C32   A    
C12   C13   A    
O24   H16   S    
O4    C2    A    
C27   C32   A    
C16   F6    S    
C13   C14   A    
C47   O21   D    
C37   H12   S    
C20   C21   A    
C41   C50   S    
C3    C23   S    
O2    C1    A    
C17   C18   A    
O11   V4    S    
V3    O20   S    
C35   C40   A    
V4    O20   S    
O14   V3    S    
O26   H17   S    
C5    C6    A    
C4    C14   S    
C49   O26   S    
O3    C4    A    
C8    H3    S    
C23   C24   A    
C50   O28   S    
C27   C34   S    
C30   H8    S    
O6    V2    S    
O9    V2    S    
C10   C14   A    
C5    H1    S    
C25   C26   S    
O2    V1    S    
C32   C33   S    
C13   C18   A    
C28   C29   A    
C21   H4    S    
O1    C2    A    
C19   C26   S    
O5    V1    S    
O8    C3    A    
C33   C34   S    
C33   F2    S    
C5    C10   A    
C15   C51   S    
C50   O27   D    
C18   F7    S    
C25   C48   S    
C39   C40   A    
C9    C11   A    
C35   C36   A    
C6    F5    S    
O4    V1    S    
O3    V1    S    
V1    O10   S    
C22   C23   A    
C51   O30   S    
C21   C22   A    
C26   F1    S    
O11   C44   A    
C39   C43   S    
O7    V2    S    
C49   O25   D    
O18   C45   A    
O18   V4    S    
C27   C28   A    
C35   C42   S    
C8    C9    A    
C40   C41   S    
O15   V3    S    
C15   C16   A    
O12   C43   A    
C48   O23   D    
C9    C10   A    
O13   V3    S    
C34   H11   S    
