data_mof_unit_48520.cif
_audit_creation_date              2013-03-05T15:45:19-0500
_audit_creation_method            fapswitch 2.2
_symmetry_space_group_name_H-M    P1
_symmetry_Int_Tables_number       1
_space_group_crystal_system       triclinic
_cell_length_a                    10.761049
_cell_length_b                    11.188816
_cell_length_c                    9.990915
_cell_angle_alpha                 111.435054
_cell_angle_beta                  101.445911
_cell_angle_gamma                 90.015415
_cell_volume                      1093.96827389

loop_
_atom_site_label
_atom_site_type_symbol
_atom_site_description
_atom_site_fract_x
_atom_site_fract_y
_atom_site_fract_z
_atom_type_partial_charge
O1    O     O_R   0.511700 0.332340 0.577400 -0.524559
O2    O     O_R   0.488300 0.667660 0.422600 -0.482847
O3    O     O_R   0.474680 0.295500 0.332650 -0.552828
O4    O     O_R   0.525320 0.704500 0.667350 -0.587720
C1    C     C_R   0.495209 0.254492 0.442146 0.746860
C2    C     C_R   0.510643 0.744465 0.558254 0.858339
O5    O     O_R   0.338170 0.518410 0.622370 -0.559624
O6    O     O_R   0.661830 0.481590 0.377630 -0.550356
O7    O     O_R   0.301150 0.481570 0.377630 -0.529056
O8    O     O_R   0.698850 0.518430 0.622370 -0.533906
C3    C     C_R   0.261482 0.510900 0.498687 0.832218
C4    C     C_R   0.738546 0.489377 0.501817 0.774970
Cu1   Cu    Cu3+1 0.521920 0.521810 0.644910 1.122964
Cu2   Cu    Cu3+1 0.478080 0.478190 0.355090 1.158412
C5    C     C_R   0.154951 0.697655 0.744070 0.060019
C6    C     C_R   0.848680 0.295059 0.265014 0.015242
C7    C     C_R   0.120968 0.742322 0.880506 -0.338162
C8    C     C_R   0.883539 0.247647 0.128416 -0.249566
C9    C     C_R   0.018851 0.682521 0.904414 -0.057057
C10   C     C_R   0.982523 0.309447 0.101165 -0.096385
C11   C     C_R   0.946122 0.578201 0.786278 0.445710
C12   C     C_R   0.053422 0.416860 0.216549 0.458050
C13   C     C_R   0.966335 0.546623 0.640782 -0.056846
C14   C     C_R   0.033509 0.451156 0.362406 -0.056015
C15   C     C_R   0.082941 0.591196 0.624990 0.050624
C16   C     C_R   0.917866 0.405823 0.379451 -0.035096
C17   C     C_R   0.876301 0.470974 0.510993 -0.129668
C18   C     C_R   0.123657 0.528051 0.491573 -0.064095
H1    H     H_    0.174670 0.825430 0.969273 0.146732
H2    H     H_    0.832653 0.161811 0.041640 0.186360
C19   C     C_2   0.496157 0.115938 0.416129 -0.226408
C20   C     C_2   0.550049 0.875817 0.583762 -0.172050
C21   C     C_2   0.521705 0.075150 0.532600 -0.030068
C22   C     C_2   0.476373 0.944767 0.514859 -0.050312
N1    N     N_2   0.445130 0.445420 0.137360 -0.006105
N2    N     N_2   0.554870 0.554580 0.862640 -0.006303
C23   C     C_2   0.509446 0.511629 0.083437 0.490779
C24   C     C_2   0.488875 0.491679 0.918669 0.448592
C25   C     C_2   0.009466 0.255806 0.951124 0.547285
H3    H     H_    0.943731 0.181538 0.863515 0.102122
O9    O     O_2   0.105287 0.290755 0.923204 -0.411619
C26   C     C_2   0.991225 0.734970 0.054217 0.579777
H4    H     H_    0.055387 0.810734 0.141898 0.063745
O10   O     O_2   0.897264 0.696644 0.082405 -0.399513
C27   C     C_2   0.252530 0.779131 0.725674 0.380542
H5    H     H_    0.329488 0.831878 0.817601 0.109211
O11   O     O_2   0.242714 0.794730 0.609921 -0.556500
C28   C     C_2   0.753036 0.216247 0.292201 0.455721
H6    H     H_    0.745527 0.231480 0.403761 0.065102
O12   O     O_2   0.683763 0.131037 0.190239 -0.509434
Cl1   Cl    Cl    0.865637 0.463395 0.828770 -0.463238
Cl2   Cl    Cl    0.132580 0.529784 0.169580 -0.446013
C29   C     C_2   0.340824 0.904778 0.435566 0.498095
H7    H     H_    0.273569 0.978180 0.443487 0.049309
O13   O     O_2   0.304566 0.794033 0.354015 -0.447113
C30   C     C_2   0.580950 0.160023 0.687140 0.508525
H8    H     H_    0.542497 0.154456 0.777445 0.094129
O14   O     O_2   0.678636 0.227833 0.714654 -0.475001
C31   C     C_2   0.686544 0.912658 0.657531 0.348904
H9    H     H_    0.726638 0.885327 0.749862 0.091546
O15   O     O_2   0.757045 0.964792 0.609693 -0.469340
C32   C     C_2   0.459424 0.024361 0.260044 0.443234
H10   H     H_    0.406666 0.056308 0.176449 0.105194
O16   O     O_2   0.492135 0.914534 0.222196 -0.424876
Cl3   Cl    Cl    0.363584 0.379359 0.795844 -0.528449
Cl4   Cl    Cl    0.629800 0.628415 0.208939 -0.408621
Cl5   Cl    Cl    0.615625 0.712641 0.963070 -0.357728
Cl6   Cl    Cl    0.400215 0.283370 0.035591 -0.445835

loop_
_geom_bond_atom_site_label_1
_geom_bond_atom_site_label_2
_geom_bond_distance
_ccdc_geom_bond_type
C9    C11   1.412082 A    
C2    C20   1.444896 S    
O7    Cu2   1.959889 S    
C19   C21   1.378108 D    
C32   H10   1.085237 S    
C8    H2    1.084709 S    
C13   C17   1.426647 A    
C7    H1    1.085688 S    
C31   O15   1.221362 D    
C9    C26   1.485765 S    
O5    Cu1   1.943968 S    
O6    C4    1.320222 A    
C23   Cl4   1.764671 S    
C6    C28   1.481962 S    
C21   C30   1.493154 S    
N2    C24   1.326077 D    
C21   C22   1.474414 S    
C10   C12   1.411811 A    
N2    Cl5   1.733178 S    
C31   H9    1.085774 S    
C25   O9    1.219683 D    
C6    C8    1.399561 A    
C29   H7    1.086335 S    
C15   C18   1.418290 A    
O5    C3    1.316964 A    
O7    C3    1.291364 A    
C19   C32   1.491730 S    
C16   C17   1.411341 A    
O2    C2    1.285476 A    
O3    Cu2   1.972724 S    
O8    C4    1.287216 A    
N1    Cl6   1.735507 S    
C22   C29   1.495794 S    
O1    C1    1.288676 A    
C3    C18   1.486566 S    
C28   O12   1.220975 D    
C28   H6    1.083884 S    
N1    C23   1.325686 D    
C23   C24   1.547748 S    
C30   O14   1.220129 D    
C8    C10   1.392537 A    
C29   O13   1.219477 D    
C11   C13   1.426662 A    
C6    C16   1.422475 A    
O2    Cu2   1.971431 S    
C12   C14   1.425486 A    
C5    C15   1.425686 A    
O4    C2    1.304176 A    
O1    Cu1   1.971432 S    
C26   H4    1.086095 S    
C5    C27   1.471724 S    
C4    C17   1.486036 S    
C25   H3    1.085984 S    
C27   H5    1.085987 S    
C11   Cl1   1.767566 S    
C13   C15   1.408508 A    
C30   H8    1.085521 S    
Cu1   N2    2.025595 S    
C12   Cl2   1.770203 S    
O3    C1    1.314183 A    
C27   O11   1.215770 D    
O4    Cu1   1.972724 S    
C5    C7    1.393425 A    
C10   C25   1.485409 S    
C32   O16   1.220809 D    
O6    Cu2   1.943968 S    
C20   C31   1.489479 S    
C7    C9    1.390289 A    
Cu1   Cu2   2.696274 S    
C24   Cl3   1.765876 S    
Cu2   N1    2.025595 S    
C26   O10   1.219261 D    
C14   C18   1.427538 A    
C14   C16   1.407764 A    
C1    C19   1.475637 S    
O8    Cu1   1.959888 S    
C20   C22   1.367303 D    
