data_mof_unit_8080.cif
_audit_creation_date              2012-12-11T16:07:38-0500
_audit_creation_method            fapswitch 2.2
_symmetry_space_group_name_H-M    P1
_symmetry_Int_Tables_number       1
_space_group_crystal_system       triclinic
_cell_length_a                    6.929471
_cell_length_b                    14.390266
_cell_length_c                    15.896587
_cell_angle_alpha                 90.308464
_cell_angle_beta                  89.954395
_cell_angle_gamma                 90.087338
_cell_volume                      1585.13356208

loop_
_atom_site_label
_atom_site_type_symbol
_atom_type_description
_atom_site_fract_x
_atom_site_fract_y
_atom_site_fract_z
_atom_type_partial_charge
O1    O     O_R   0.494320 0.415010 0.412140 -0.540112
O2    O     O_R   0.824010 0.404260 0.587250 -0.544103
O3    O     O_R   0.994320 0.584990 0.587860 -0.535795
C1    C     C_R   0.654543 0.381629 0.615989 0.680236
O4    O     O_R   0.824040 0.403870 0.412760 -0.543985
O5    O     O_R   0.994350 0.584590 0.412130 -0.542185
C2    C     C_R   0.655234 0.381449 0.383501 0.651090
O6    O     O_R   0.494300 0.415410 0.587870 -0.540642
O7    O     O_3   0.660800 0.559290 0.500000 -0.363848
V1    V     V_3+5 0.935650 0.489000 0.500000 1.371751
O8    O     O_R   0.324060 0.595740 0.412750 -0.541914
C3    C     C_R   0.155333 0.618070 0.383541 0.655130
O9    O     O_R   0.324040 0.596130 0.587240 -0.540696
C4    C     C_R   0.155230 0.618572 0.616192 0.675994
V2    V     V_3+5 0.435660 0.511000 0.500000 1.377340
O10   O     O_3   0.160640 0.440710 0.500000 -0.368660
C5    C     C_3   0.055662 0.668647 0.773521 -0.144191
C6    C     C_3   0.229797 0.717527 0.816110 -0.149922
H1    H     H_    0.309359 0.691383 0.871734 0.093541
H2    H     H_    0.991823 0.601334 0.793125 0.091013
C7    C     C_3   0.121414 0.810671 0.811657 -0.010939
C8    C     C_3   0.947083 0.762595 0.769843 -0.113605
C9    C     C_3   0.036416 0.781855 0.682238 -0.140995
C10   C     C_3   0.210531 0.830757 0.724845 -0.132396
C11   C     C_3   0.319136 0.736805 0.728514 -0.115068
C12   C     C_3   0.144821 0.688700 0.686717 -0.006897
H3    H     H_    0.793573 0.773480 0.787258 0.105102
H4    H     H_    0.956794 0.808039 0.626648 0.109189
H5    H     H_    0.274220 0.898099 0.705241 0.095933
H6    H     H_    0.472647 0.725943 0.711087 0.106131
C13   C     C_3   0.336316 0.794068 0.213958 -0.312444
H7    H     H_    0.421986 0.769291 0.158993 0.140152
C14   C     C_3   0.349333 0.721323 0.284821 -0.320764
H8    H     H_    0.432821 0.750412 0.338502 0.134470
H9    H     H_    0.432544 0.660256 0.261469 0.133604
H10   H     H_    0.111619 0.688268 0.105251 0.126645
H11   H     H_    0.128267 0.583096 0.213297 0.130294
C15   C     C_3   0.033994 0.716355 0.161146 -0.335336
C16   C     C_3   0.012424 0.847841 0.265682 -0.307417
C17   C     C_3   0.122990 0.811288 0.187230 0.082967
H12   H     H_    0.858761 0.860791 0.249104 0.112376
H13   H     H_    0.074350 0.915982 0.285401 0.135723
C18   C     C_3   0.144598 0.689374 0.313123 0.082070
C19   C     C_3   0.046038 0.645387 0.234426 -0.374845
C20   C     C_3   0.021349 0.776484 0.339215 0.091225
H14   H     H_    0.871009 0.752588 0.351658 0.122792
H15   H     H_    0.880337 0.725773 0.142789 0.138763
H16   H     H_    0.897917 0.621348 0.250642 0.132914
C21   C     C_3   0.430018 0.289901 0.711487 -0.338069
H17   H     H_    0.358827 0.354462 0.734657 0.148063
H18   H     H_    0.347661 0.265213 0.655552 0.150096
C22   C     C_3   0.420290 0.214989 0.780725 -0.461437
H19   H     H_    0.348705 0.151728 0.754993 0.153708
H20   H     H_    0.693726 0.419082 0.782492 0.092548
C23   C     C_3   0.749348 0.348839 0.765782 -0.325154
C24   C     C_3   0.738847 0.218484 0.660050 -0.381140
C25   C     C_3   0.642972 0.311298 0.686696 0.071000
H21   H     H_    0.660212 0.188612 0.605156 0.109707
C26   C     C_3   0.625668 0.188995 0.812398 0.113755
C27   C     C_3   0.721576 0.282654 0.842334 0.078373
C28   C     C_3   0.735033 0.147540 0.734069 0.109319
H22   H     H_    0.653391 0.084988 0.712494 0.087360
H23   H     H_    0.905463 0.357084 0.750817 0.151029
C29   C     C_3   0.547521 0.354251 0.233493 -0.321545
H24   H     H_    0.631195 0.416041 0.212582 0.114789
C30   C     C_3   0.535027 0.282437 0.160305 -0.326135
H25   H     H_    0.612753 0.309777 0.104342 0.112014
H26   H     H_    0.381295 0.272739 0.141985 0.136612
H27   H     H_    0.376836 0.245892 0.357065 0.139939
H28   H     H_    0.358455 0.140300 0.249225 0.135064
C31   C     C_3   0.525234 0.224482 0.338516 -0.320512
C32   C     C_3   0.849255 0.277140 0.285806 -0.316558
C33   C     C_3   0.644813 0.310976 0.312135 0.121955
H29   H     H_    0.923108 0.244693 0.340421 0.135179
H30   H     H_    0.938952 0.337282 0.265576 0.131431
C34   C     C_3   0.623510 0.187970 0.186692 0.125120
C35   C     C_3   0.512703 0.152738 0.265292 -0.322896
C36   C     C_3   0.836959 0.205821 0.213109 -0.306794
H31   H     H_    0.905164 0.139587 0.233314 0.131304
H32   H     H_    0.592625 0.191364 0.394336 0.117925
H33   H     H_    0.574033 0.085211 0.286040 0.119005
O11   O     O_R   0.771990 0.083520 0.910980 -0.501313
O12   O     O_R   0.442180 0.095020 0.086060 -0.544771
O13   O     O_R   0.271950 0.914280 0.086680 -0.542712
C37   C     C_R   0.611425 0.117502 0.115312 0.636391
O14   O     O_R   0.442270 0.094630 0.911580 -0.547474
O15   O     O_R   0.272040 0.913890 0.910940 -0.537730
C38   C     C_R   0.611841 0.117779 0.883015 0.689325
O16   O     O_R   0.771900 0.083910 0.086710 -0.545320
O17   O     O_3   0.605520 0.939610 0.998840 -0.371065
V3    V     V_3+5 0.330640 0.009880 0.998810 1.393812
O18   O     O_R   0.942330 0.902710 0.911540 -0.537913
C39   C     C_R   0.111099 0.880543 0.882394 0.699307
O19   O     O_R   0.942240 0.903100 0.086030 -0.545743
C40   C     C_R   0.111342 0.880910 0.115431 0.650299
V4    V     V_3+5 0.830640 0.987830 0.998780 1.411610
O20   O     O_3   0.105630 0.058150 0.998800 -0.358038
N1    N     N_3   0.090718 0.822067 0.416387 -0.692545
H34   H     H_    0.088284 0.774898 0.466145 0.210579
H35   H     H_    0.232430 0.845277 0.408636 0.232381
H36   H     H_    0.329800 0.241275 0.833608 0.177385
H37   H     H_    0.620562 0.317409 0.887231 0.074506
H38   H     H_    0.889294 0.231484 0.638494 0.142481
N2    N     N_3   0.930466 0.116862 0.755492 -0.636942
H39   H     H_    0.020185 0.174772 0.761369 0.266127
H40   H     H_    0.984248 0.077171 0.705402 0.198741
N3    N     N_3   0.905332 0.268387 0.886324 -0.657695
H41   H     H_    0.875478 0.245163 0.947182 0.220341
H42   H     H_    0.972294 0.332915 0.895118 0.204189
H43   H     H_    0.399633 0.378622 0.249660 0.133112
H44   H     H_    0.921076 0.232180 0.158481 0.133227
H45   H     H_    0.402790 0.860326 0.236027 0.130710

loop_
_geom_bond_atom_site_label_1
_geom_bond_atom_site_label_2
_ccdc_geom_bond_type
C30   H26   S    
O15   V3    S    
C6    C7    S    
C1    O6    A    
N2    H40   S    
C2    C33   S    
C20   H14   S    
C24   C25   S    
C5    C12   S    
C34   C36   S    
C3    C18   S    
O14   V3    S    
O5    C3    A    
O14   C38   A    
V2    O10   S    
O18   V4    S    
C5    H2    S    
C21   C25   S    
C13   C17   S    
C6    H1    S    
C9    C12   S    
H27   C31   S    
C10   H5    S    
C31   H32   S    
C32   C36   S    
C26   C38   S    
O8    V2    S    
C21   H18   S    
C23   H23   S    
C1    C25   S    
C13   H45   S    
C13   C14   S    
C36   H44   S    
O1    V2    S    
O13   V3    S    
O7    V1    S    
C16   C20   S    
C23   C27   S    
C30   H25   S    
C26   C27   S    
O9    C4    A    
H28   C35   S    
N3    H42   S    
O19   C40   A    
C6    C11   S    
C32   H30   S    
C27   H37   S    
N2    H39   S    
C5    C6    S    
C16   H13   S    
C34   C35   S    
C8    C9    S    
C22   H36   S    
C26   C28   S    
O11   V4    S    
C14   C18   S    
C28   N2    S    
C10   C11   S    
C16   H12   S    
C16   C17   S    
C31   C33   S    
C37   O16   A    
C36   H31   S    
C11   C12   S    
C4    C12   S    
O13   C40   A    
C29   C30   S    
O2    C1    A    
C18   C19   S    
C15   C19   S    
C22   C26   S    
C29   H43   S    
C13   H7    S    
C35   H33   S    
C29   C33   S    
C21   C22   S    
C30   C34   S    
V4    O20   S    
C14   H8    S    
C9    H4    S    
V3    O20   S    
O19   V4    S    
C18   C20   S    
C15   H15   S    
C27   N3    S    
C32   H29   S    
O12   C37   A    
C21   H17   S    
O6    V2    S    
N1    H35   S    
C8    H3    S    
O9    V2    S    
N3    H41   S    
O2    V1    S    
C31   C35   S    
C22   H19   S    
O4    C2    A    
C11   H6    S    
H20   C23   S    
O1    C2    A    
C24   H38   S    
C32   C33   S    
O5    V1    S    
O8    C3    A    
O17   V4    S    
O3    C4    A    
O12   V3    S    
C5    C8    S    
C20   N1    S    
C29   H24   S    
H11   C19   S    
C23   C25   S    
O7    V2    S    
O4    V1    S    
O3    V1    S    
V1    O10   S    
C15   C17   S    
O17   V3    S    
C7    C39   S    
O16   V4    S    
O11   C38   A    
O15   C39   A    
H10   C15   S    
O18   C39   A    
C14   H9    S    
C24   H21   S    
C28   H22   S    
C9    C10   S    
N1    H34   S    
C7    C10   S    
C24   C28   S    
C17   C40   S    
C7    C8    S    
C34   C37   S    
C19   H16   S    
