data_mof_unit_37785.cif
_audit_creation_date              2012-12-10T19:07:36-0500
_audit_creation_method            fapswitch 2.2
_symmetry_space_group_name_H-M    P1
_symmetry_Int_Tables_number       1
_space_group_crystal_system       triclinic
_cell_length_a                    10.854647
_cell_length_b                    10.841934
_cell_length_c                    9.552882
_cell_angle_alpha                 90.384621
_cell_angle_beta                  90.868073
_cell_angle_gamma                 90.72687
_cell_volume                      1123.98812595

loop_
_atom_site_label
_atom_site_type_symbol
_atom_type_description
_atom_site_fract_x
_atom_site_fract_y
_atom_site_fract_z
_atom_type_partial_charge
C1    C     C_R   0.496325 0.262508 0.499532 0.832352
C2    C     C_R   0.939670 0.464201 0.622399 0.037187
C3    C     C_3   0.939998 0.530038 0.760225 -0.530854
C4    C     C_3   0.079386 0.529245 0.757261 0.475542
C5    C     C_R   0.486076 0.065013 0.624336 0.017481
C6    C     C_R   0.481998 0.129693 0.498901 -0.138348
C7    C     C_R   0.460389 0.064200 0.373429 -0.267969
C8    C     C_R   0.460879 0.935436 0.372897 0.590594
C9    C     C_R   0.483969 0.871166 0.498729 -0.174258
C10   C     C_R   0.488173 0.938005 0.624172 -0.049454
C11   C     C_3   0.580503 0.936725 0.741687 0.463673
C12   C     C_R   0.262496 0.496362 0.498928 0.794651
C13   C     C_3   0.576141 0.076321 0.743291 -0.434836
C14   C     C_R   0.543522 0.600020 0.075668 0.350140
C15   C     C_R   0.444749 0.407410 0.072687 -0.061575
C16   C     C_R   0.444674 0.407431 0.923906 -0.003148
C17   C     C_R   0.544235 0.599750 0.928086 0.243776
C18   C     C_3   0.673486 0.647041 0.928975 -0.515900
C19   C     C_3   0.670599 0.651643 0.086910 -0.490409
C20   C     C_R   0.497208 0.737834 0.499912 0.872184
C21   C     C_R   0.737954 0.497044 0.500565 0.825928
C22   C     C_R   0.066599 0.463471 0.620485 0.107463
C23   C     C_R   0.129773 0.481343 0.496379 -0.167579
C24   C     C_R   0.062590 0.479933 0.369552 -0.168016
C25   C     C_R   0.934000 0.480376 0.371081 -0.189729
C26   C     C_R   0.871339 0.483069 0.499330 -0.084916
Cu1   Cu    Cu3+1 0.499990 0.499980 0.640670 0.979429
Cu2   Cu    Cu3+1 0.500010 0.500020 0.359330 0.983788
H1    H     H_    0.108619 0.485431 0.269926 0.194434
H2    H     H_    0.533263 0.114402 0.839002 0.149953
H3    H     H_    0.664142 0.121904 0.713184 0.223956
H4    H     H_    0.401786 0.331338 0.126890 0.145546
H5    H     H_    0.401469 0.331461 0.867125 0.161918
H6    H     H_    0.735528 0.575946 0.889608 0.215518
H7    H     H_    0.684459 0.738790 0.881418 0.256319
H8    H     H_    0.736725 0.587621 0.136519 0.207909
H9    H     H_    0.672224 0.747053 0.130306 0.234577
H10   H     H_    0.884766 0.484959 0.272085 0.163344
H11   H     H_    0.901999 0.624565 0.752501 0.185629
H12   H     H_    0.902754 0.470475 0.844242 0.224964
H13   H     H_    0.123431 0.622145 0.750418 0.083025
H14   H     H_    0.448938 0.112015 0.274977 0.177989
H15   H     H_    0.544660 0.893381 0.838174 0.084224
N1    N     N_R   0.500790 0.500930 0.147930 -0.205496
N2    N     N_R   0.500790 0.500890 0.852020 -0.201295
O1    O     O_R   0.500000 0.319640 0.618810 -0.588795
O2    O     O_R   0.500010 0.319680 0.381230 -0.599235
O3    O     O_R   0.319650 0.499970 0.618810 -0.566394
O4    O     O_R   0.319660 0.500010 0.381230 -0.576466
O5    O     O_R   0.499990 0.680320 0.618770 -0.581862
O6    O     O_R   0.500000 0.680360 0.381190 -0.527949
O7    O     O_R   0.680340 0.499990 0.618770 -0.573057
O8    O     O_R   0.680350 0.500030 0.381190 -0.598708
F1    F     F_    0.693745 0.894244 0.698525 -0.667066
F2    F     F_    0.129960 0.454363 0.859338 -0.649338
F3    F     F_    0.445131 0.875444 0.248566 -0.670839

loop_
_geom_bond_atom_site_label_1
_geom_bond_atom_site_label_2
_ccdc_geom_bond_type
Cu1   O3    S    
C2    C22   A    
C23   C24   A    
Cu2   O2    S    
C11   H15   S    
C6    C7    A    
C25   H10   S    
C4    C22   S    
Cu2   O4    S    
C9    C20   S    
C5    C13   S    
C14   C17   A    
Cu1   O5    S    
C12   O3    A    
C10   C11   S    
Cu1   N2    S    
C12   O4    A    
C8    C9    A    
C3    H11   S    
C5    C10   A    
C2    C26   A    
C24   C25   A    
Cu2   O8    S    
C21   O8    A    
C11   C13   S    
C12   C23   S    
C8    F3    S    
C11   F1    S    
Cu1   O1    S    
C21   C26   S    
Cu2   N1    S    
C15   N1    A    
C17   C18   S    
C20   O6    A    
C2    C3    S    
C19   H8    S    
C18   H6    S    
C4    F2    S    
C5    C6    A    
C16   H5    S    
Cu2   O6    S    
C1    O1    A    
C4    H13   S    
C16   N2    A    
C1    C6    S    
C13   H2    S    
C7    C8    A    
Cu1   O7    S    
C18   H7    S    
C14   N1    A    
C18   C19   S    
C9    C10   A    
C7    H14   S    
Cu1   Cu2   S    
C24   H1    S    
C1    O2    A    
C20   O5    A    
C19   H9    S    
C25   C26   A    
C22   C23   A    
C14   C19   S    
C13   H3    S    
C21   O7    A    
C3    C4    S    
C15   C16   A    
C17   N2    A    
C3    H12   S    
C15   H4    S    
