data_mof_unit_42233.cif
_audit_creation_date              2012-12-11T14:46:32-0500
_audit_creation_method            fapswitch 2.2
_symmetry_space_group_name_H-M    P1
_symmetry_Int_Tables_number       1
_space_group_crystal_system       triclinic
_cell_length_a                    17.333869
_cell_length_b                    17.660655
_cell_length_c                    6.954001
_cell_angle_alpha                 89.99999
_cell_angle_beta                  91.357838
_cell_angle_gamma                 90.0
_cell_volume                      2128.21302909

loop_
_atom_site_label
_atom_site_type_symbol
_atom_type_description
_atom_site_fract_x
_atom_site_fract_y
_atom_site_fract_z
_atom_type_partial_charge
O1    O     O_R   0.796490 0.328940 0.373020 -0.536414
O2    O     O_R   0.203510 0.671060 0.626980 -0.540317
O3    O     O_R   0.203510 0.828940 0.626980 -0.536414
O4    O     O_R   0.796490 0.171060 0.373020 -0.540316
O5    O     O_R   0.805560 0.173330 0.702970 -0.528474
O6    O     O_R   0.194440 0.826670 0.297030 -0.528857
O7    O     O_R   0.194440 0.673330 0.297030 -0.528474
O8    O     O_R   0.805560 0.326670 0.702970 -0.528857
O9    O     O_R   0.658440 0.172360 0.870170 -0.538513
O10   O     O_R   0.341560 0.827640 0.129830 -0.538379
O11   O     O_R   0.341560 0.672360 0.129830 -0.538513
O12   O     O_R   0.658440 0.327640 0.870170 -0.538379
C1    C     C_R   0.824668 0.146794 0.536944 0.733932
C2    C     C_R   0.175672 0.853552 0.462830 0.736478
C3    C     C_R   0.175332 0.646794 0.463056 0.733931
C4    C     C_R   0.824328 0.353552 0.537170 0.736478
O13   O     O_3   0.679200 0.250000 0.537050 -0.376433
O14   O     O_3   0.320800 0.750000 0.462950 -0.376433
V1    V     V_3+5 0.736420 0.250000 0.813120 1.518040
V2    V     V_3+5 0.263580 0.750000 0.186880 1.518040
O15   O     O_R   0.649370 0.327980 0.199650 -0.537631
O16   O     O_R   0.350630 0.672020 0.800350 -0.538262
O17   O     O_R   0.350630 0.827980 0.800350 -0.537631
O18   O     O_R   0.649370 0.172020 0.199650 -0.538262
C5    C     C_R   0.630588 0.354295 0.029319 0.717797
C6    C     C_R   0.369408 0.645701 0.970680 0.714259
C7    C     C_R   0.369412 0.854295 0.970680 0.717798
C8    C     C_R   0.630592 0.145701 0.029320 0.714258
H1    H     H_    0.949523 0.132967 0.318531 0.192663
H2    H     H_    0.055725 0.872928 0.695572 0.203128
H3    H     H_    0.050477 0.632967 0.681469 0.192662
H4    H     H_    0.944275 0.372928 0.304428 0.203128
V3    V     V_3+5 0.718510 0.250000 0.312740 1.487624
V4    V     V_3+5 0.281490 0.750000 0.687260 1.487624
O19   O     O_3   0.775740 0.250000 0.038930 -0.355358
O20   O     O_3   0.224260 0.750000 0.961070 -0.355358
C9    C     C_1   0.574169 0.083264 0.016240 -0.168415
C10   C     C_1   0.425841 0.916728 0.983761 -0.168130
C11   C     C_1   0.425831 0.583264 0.983760 -0.168415
C12   C     C_1   0.574159 0.416728 0.016239 -0.168130
C13   C     C_1   0.527484 0.030924 0.005950 0.034744
C14   C     C_1   0.472530 0.969065 0.994050 0.035008
C15   C     C_1   0.472516 0.530924 0.994050 0.034744
C16   C     C_1   0.527470 0.469065 0.005950 0.035008
H5    H     H_    0.828539 0.027079 0.771147 0.160800
H6    H     H_    0.167100 0.968031 0.212891 0.160051
H7    H     H_    0.171460 0.527079 0.228853 0.160800
H8    H     H_    0.832900 0.468031 0.787109 0.160051
C17   C     C_R   0.882445 0.084986 0.539337 -0.105412
C18   C     C_R   0.117775 0.915333 0.458804 -0.152907
C19   C     C_R   0.117555 0.584986 0.460663 -0.105413
C20   C     C_R   0.882225 0.415333 0.541196 -0.152907
C21   C     C_R   0.063497 0.025942 0.293117 0.422054
C22   C     C_R   0.933806 0.971083 0.694432 0.381532
C23   C     C_R   0.936503 0.525942 0.706883 0.422054
C24   C     C_R   0.066194 0.471083 0.305568 0.381534
C25   C     C_R   0.120183 0.969742 0.312949 -0.137246
C26   C     C_R   0.877093 0.027308 0.675969 -0.217151
C27   C     C_R   0.879817 0.469742 0.687051 -0.137245
C28   C     C_R   0.122907 0.527308 0.324031 -0.217151
C29   C     C_R   0.056965 0.916645 0.587134 -0.095467
C30   C     C_R   0.944907 0.085635 0.415593 -0.145611
C31   C     C_R   0.943035 0.416645 0.412866 -0.095465
C32   C     C_R   0.055093 0.585635 0.584407 -0.145612
C33   C     C_R   0.997684 0.971585 0.570363 0.038928
C34   C     C_R   0.001967 0.028319 0.424623 -0.007945
C35   C     C_R   0.002316 0.471585 0.429637 0.038929
C36   C     C_R   0.998033 0.528319 0.575377 -0.007945
S1    S     S_3+6 0.072649 0.090587 0.098963 0.078110
O21   O     O_2   0.107337 0.162395 0.177189 -0.251601
O22   O     O_2   0.125197 0.058683 0.950304 -0.313080
O23   O     O_3   0.987150 0.110679 0.991612 -0.475017
H9    H     H_    0.954777 0.065538 0.013548 0.326356
S2    S     S_3+6 0.921572 0.900292 0.872006 0.028587
O24   O     O_2   0.988438 0.902370 0.013315 -0.322570
O25   O     O_2   0.848018 0.911741 0.978573 -0.322566
O26   O     O_3   0.919374 0.815216 0.764298 -0.431771
H10   H     H_    0.877779 0.819159 0.664647 0.363436
S3    S     S_3+6 0.927351 0.590587 0.901036 0.078110
O27   O     O_2   0.892663 0.662395 0.822810 -0.251601
O28   O     O_2   0.874802 0.558683 0.049696 -0.313080
O29   O     O_3   0.012850 0.610679 0.008388 -0.475017
H11   H     H_    0.045223 0.565538 0.986452 0.326356
S4    S     S_3+6 0.078427 0.400292 0.127994 0.028585
O30   O     O_2   0.011562 0.402371 0.986685 -0.322570
O31   O     O_2   0.151982 0.411741 0.021427 -0.322567
O32   O     O_3   0.080626 0.315216 0.235702 -0.431772
H12   H     H_    0.122223 0.319158 0.335349 0.363438

loop_
_geom_bond_atom_site_label_1
_geom_bond_atom_site_label_2
_ccdc_geom_bond_type
O10   C7    A    
O32   H12   S    
C23   C27   A    
C13   C14   S    
S4    O32   S    
C21   S1    S    
C23   C36   A    
O1    V3    S    
C22   C33   A    
O26   H10   S    
S2    O25   D    
C32   C36   A    
S4    O31   D    
C10   C14   T    
C5    C12   S    
C6    C11   S    
O15   V3    S    
C7    C10   S    
O4    C1    A    
S1    O22   D    
O13   V1    S    
H7    C28   S    
H1    C30   S    
O9    V1    S    
O10   V2    S    
S2    O26   S    
C3    C19   S    
O5    C1    A    
O2    V4    S    
O7    C3    A    
O8    C4    A    
C22   S2    S    
O13   V3    S    
C24   S4    S    
O16   V4    S    
C31   C35   A    
H5    C26   S    
O8    V1    S    
S2    O24   D    
C30   C34   A    
C35   C36   A    
O18   C8    A    
S4    O30   D    
S3    O28   D    
C21   C25   A    
C11   C15   T    
O3    V4    S    
O11   V2    S    
O29   H11   S    
C17   C26   A    
C24   C28   A    
S1    O23   S    
C15   C16   S    
C21   C34   A    
C20   C27   A    
O6    C2    A    
C23   S3    S    
O17   V4    S    
O1    C4    A    
O2    C3    A    
O14   V4    S    
O3    C2    A    
C1    C17   S    
C33   C34   A    
O17   C7    A    
H6    C25   S    
H8    C27   S    
C22   C26   A    
O15   C5    A    
O4    V3    S    
C17   C30   A    
C18   C25   A    
H3    C32   S    
C19   C32   A    
C4    C20   S    
H4    C31   S    
O23   H9    S    
C20   C31   A    
S3    O29   S    
O5    V1    S    
C24   C35   A    
O6    V2    S    
O18   V3    S    
O11   C6    A    
O12   C5    A    
V1    O19   S    
C2    C18   S    
C8    C9    S    
O12   V1    S    
V3    O19   S    
V4    O20   S    
O14   V2    S    
C9    C13   T    
S1    O21   D    
S3    O27   D    
V2    O20   S    
C29   C33   A    
C12   C16   T    
O7    V2    S    
O16   C6    A    
H2    C29   S    
C18   C29   A    
C19   C28   A    
O9    C8    A    
