data_mof_unit_20558.cif
_audit_creation_date              2012-12-10T17:45:34-0500
_audit_creation_method            fapswitch 2.2
_symmetry_space_group_name_H-M    P1
_symmetry_Int_Tables_number       1
_space_group_crystal_system       triclinic
_cell_length_a                    11.537227
_cell_length_b                    10.628474
_cell_length_c                    9.941324
_cell_angle_alpha                 90.121729
_cell_angle_beta                  89.993907
_cell_angle_gamma                 91.681561
_cell_volume                      1218.50841565

loop_
_atom_site_label
_atom_site_type_symbol
_atom_type_description
_atom_site_fract_x
_atom_site_fract_y
_atom_site_fract_z
_atom_type_partial_charge
C1    C     C_R   0.502190 0.260770 0.499950 0.836279
C2    C     C_R   0.509843 0.872014 0.499759 -0.096162
C3    C     C_R   0.351032 0.332192 0.139076 -0.216892
C4    C     C_R   0.282101 0.499560 0.500028 0.876507
C5    C     C_R   0.279824 0.246940 0.069111 -0.262911
C6    C     C_R   0.281300 0.242916 0.929588 0.561536
C7    C     C_R   0.351728 0.331321 0.860089 -0.247976
C8    C     C_R   0.426859 0.417020 0.927798 0.004224
C9    C     C_R   0.426956 0.417025 0.071932 0.158949
C10   C     C_R   0.570600 0.578813 0.071916 -0.224886
C11   C     C_R   0.572875 0.577316 0.928063 0.576761
C12   C     C_R   0.793950 0.075389 0.669063 -0.133632
C13   C     C_R   0.502644 0.739396 0.500030 0.856732
C14   C     C_R   0.717898 0.500461 0.500029 0.873481
C15   C     C_1   0.161567 0.499275 0.500167 -0.185260
C16   C     C_1   0.059331 0.499304 0.500350 0.000863
C17   C     C_1   0.940611 0.499675 0.500394 -0.005799
C18   C     C_1   0.838396 0.500096 0.500216 -0.204029
C19   C     C_R   0.700289 0.137933 0.614766 -0.181262
C20   C     C_3   0.257958 0.100705 0.753495 -0.308114
C21   C     C_3   0.762005 0.631813 0.885378 -0.307367
C22   C     C_R   0.794751 0.944514 0.667315 -0.124129
C23   C     C_R   0.701632 0.875715 0.611828 -0.134432
C24   C     C_R   0.605159 0.937670 0.558214 0.083928
C25   C     C_R   0.604750 0.069533 0.558936 0.094702
C26   C     C_R   0.509637 0.128719 0.499673 -0.084603
C27   C     C_R   0.419194 0.061618 0.437619 -0.234727
C28   C     C_R   0.419121 0.932981 0.438026 -0.201227
H1    H     H_    0.347393 0.109133 0.391522 0.138922
H2    H     H_    0.223022 0.182663 0.124401 0.168711
H3    H     H_    0.349957 0.076959 0.772686 0.174107
H4    H     H_    0.251098 0.161242 0.663083 0.155699
H5    H     H_    0.209938 0.011148 0.731187 0.196170
H6    H     H_    0.818145 0.679934 0.809720 0.182863
H7    H     H_    0.778184 0.529156 0.877426 0.163534
H8    H     H_    0.788560 0.668278 0.985885 0.156018
H9    H     H_    0.344758 0.331893 0.753856 0.211812
H10   H     H_    0.704521 0.239618 0.615237 0.150813
H11   H     H_    0.866725 0.128678 0.711159 0.156172
H12   H     H_    0.868282 0.896256 0.707827 0.134933
H13   H     H_    0.706905 0.774370 0.609273 0.158635
H14   H     H_    0.347273 0.880586 0.392203 0.154239
H15   H     H_    0.626328 0.644423 0.126798 0.165013
H16   H     H_    0.343791 0.328904 0.245713 0.215964
N1    N     N_R   0.498930 0.498800 0.142780 -0.128641
N2    N     N_R   0.498900 0.498720 0.857170 -0.144003
O1    O     O_R   0.500000 0.316780 0.614690 -0.647813
O2    O     O_3   0.645466 0.659352 0.857687 -0.583319
O3    O     O_R   0.499990 0.316750 0.385360 -0.621659
O4    O     O_R   0.334450 0.500030 0.614670 -0.626404
O5    O     O_R   0.334440 0.500000 0.385330 -0.625967
O6    O     O_R   0.500010 0.683250 0.614640 -0.570756
O7    O     O_R   0.500000 0.683220 0.385310 -0.610725
O8    O     O_R   0.665560 0.500000 0.614670 -0.594614
O9    O     O_R   0.665550 0.499970 0.385330 -0.604222
O10   O     O_3   0.205558 0.157963 0.865630 -0.610135
Zn1   Zn    Zn3+2 0.500010 0.500020 0.653130 0.969061
Zn2   Zn    Zn3+2 0.499990 0.499980 0.346870 0.945038

loop_
_geom_bond_atom_site_label_1
_geom_bond_atom_site_label_2
_ccdc_geom_bond_type
C26   C27   A    
O6    Zn1   S    
C23   C24   A    
C9    N1    A    
C6    C7    A    
C3    C9    A    
C19   H10   S    
O1    Zn1   S    
C13   O6    A    
C14   C18   S    
C23   H13   S    
O7    Zn2   S    
C20   O10   S    
C21   O2    S    
C22   H12   S    
C10   N1    A    
C14   O9    A    
C7    H9    S    
C7    C8    A    
O5    Zn2   S    
C10   H15   S    
C11   O2    S    
C5    C6    A    
C4    C15   S    
C21   H7    S    
C20   H5    S    
C12   C19   A    
C28   H14   S    
C14   O8    A    
C17   C18   T    
C13   O7    A    
N2    Zn1   S    
C2    C24   A    
C1    C26   S    
C19   C25   A    
C8    N2    A    
C3    H16   S    
C27   H1    S    
C10   C11   A    
C4    O5    A    
N1    Zn2   S    
C12   C22   A    
C24   C25   A    
C5    H2    S    
C20   H4    S    
O9    Zn2   S    
C4    O4    A    
C27   C28   A    
C21   H8    S    
C2    C13   S    
C22   C23   A    
C1    O1    A    
C11   N2    A    
C2    C28   A    
C21   H6    S    
C25   C26   A    
O4    Zn1   S    
C1    O3    A    
C20   H3    S    
C12   H11   S    
O3    Zn2   S    
C15   C16   T    
C16   C17   S    
C6    O10   S    
C8    C9    A    
C3    C5    A    
O8    Zn1   S    
