data_mof_unit_21527.cif
_audit_creation_date              2012-12-11T16:51:29-0500
_audit_creation_method            fapswitch 2.2
_symmetry_space_group_name_H-M    P1
_symmetry_Int_Tables_number       1
_space_group_crystal_system       triclinic
_cell_length_a                    24.389895
_cell_length_b                    17.188773
_cell_length_c                    15.51457
_cell_angle_alpha                 89.999446
_cell_angle_beta                  128.719001
_cell_angle_gamma                 90.00058
_cell_volume                      5074.7342825

loop_
_atom_site_label
_atom_site_type_symbol
_atom_type_description
_atom_site_fract_x
_atom_site_fract_y
_atom_site_fract_z
_atom_type_partial_charge
Br1   Br    Br    0.883143 0.620184 0.834217 -0.511967
Br2   Br    Br    0.116875 0.620233 0.165770 -0.512002
Br3   Br    Br    0.384505 0.115443 0.832948 -0.528639
Br4   Br    Br    0.615515 0.115545 0.166989 -0.528680
C1    C     C_R   0.832951 0.893072 0.198287 -0.131085
C2    C     C_R   0.184673 0.116905 0.501773 0.025796
C3    C     C_R   0.314410 0.616238 0.497599 0.013617
C4    C     C_R   0.685590 0.616237 0.502400 0.013619
C5    C     C_R   0.854885 0.132591 0.140698 -0.017580
C6    C     C_R   0.145114 0.132590 0.859301 -0.017580
C7    C     C_R   0.381120 0.682620 0.206624 -0.027873
C8    C     C_R   0.618896 0.682602 0.793413 -0.027866
C9    C     C_R   0.853772 0.708168 0.605385 0.121358
C10   C     C_R   0.146234 0.708188 0.394604 0.121354
C11   C     C_R   0.351182 0.209917 0.604743 0.121040
C12   C     C_R   0.167047 0.893067 0.801711 -0.131084
C13   C     C_R   0.648828 0.209937 0.395245 0.121086
C14   C     C_R   0.834742 0.737448 0.505705 0.045780
C15   C     C_R   0.165258 0.737455 0.494287 0.045779
C16   C     C_R   0.330153 0.241458 0.504977 0.047974
C17   C     C_R   0.669858 0.241472 0.495011 0.047964
C18   C     C_R   0.780762 0.699025 0.407576 -0.182315
C19   C     C_R   0.219230 0.699021 0.592412 -0.182308
C20   C     C_R   0.277404 0.202444 0.406595 -0.186298
C21   C     C_R   0.722597 0.202446 0.593386 -0.186310
C22   C     C_R   0.234026 0.149465 0.406674 -0.167184
C23   C     C_R   0.340352 0.372760 0.216951 -0.124376
C24   C     C_R   0.765962 0.149447 0.593306 -0.167188
C25   C     C_R   0.735763 0.648499 0.407618 -0.166793
C26   C     C_R   0.264226 0.648488 0.592371 -0.166771
C27   C     C_R   0.244219 0.135950 0.505286 0.008354
C28   C     C_R   0.755772 0.135933 0.494699 0.008341
C29   C     C_R   0.745344 0.636126 0.506034 0.006168
C30   C     C_R   0.254653 0.636128 0.493958 0.006170
C31   C     C_R   0.309230 0.156620 0.605277 0.124472
C32   C     C_R   0.690771 0.156629 0.394704 0.124484
C33   C     C_R   0.810293 0.657131 0.605923 0.127182
C34   C     C_R   0.659648 0.372760 0.783048 -0.124368
C35   C     C_R   0.189711 0.657150 0.394065 0.127189
C36   C     C_3   0.828967 0.691768 0.710092 0.158617
C37   C     C_3   0.171052 0.691799 0.289913 0.158596
C38   C     C_3   0.328733 0.188676 0.711310 0.158652
C39   C     C_3   0.671310 0.188724 0.288712 0.158638
C40   C     C_R   0.086517 0.855673 0.406907 -0.130724
C41   C     C_R   0.913481 0.855671 0.593093 -0.130730
C42   C     C_R   0.591270 0.359039 0.407314 -0.133939
C43   C     C_R   0.408736 0.359033 0.592684 -0.133944
C44   C     C_3   0.875314 0.748427 0.707932 -0.581798
C45   C     C_R   0.884170 0.102808 0.590887 -0.070773
C46   C     C_3   0.124705 0.748459 0.292075 -0.581804
C47   C     C_3   0.373625 0.247569 0.709301 -0.584390
C48   C     C_3   0.626434 0.247628 0.290736 -0.584481
C49   C     C_2   0.191787 0.848663 0.979486 -0.197691
C50   C     C_2   0.808203 0.848669 0.020506 -0.197666
C51   C     C_2   0.659174 0.268169 0.895657 -0.187909
C52   C     C_2   0.340826 0.268168 0.104345 -0.187913
C53   C     C_2   0.261616 0.849018 0.039459 -0.121529
C54   C     C_2   0.738375 0.849019 0.960547 -0.121521
C55   C     C_2   0.697222 0.218538 0.886083 -0.119118
C56   C     C_R   0.115825 0.102821 0.409110 -0.070791
C57   C     C_2   0.302777 0.218539 0.113920 -0.119102
C58   C     C_2   0.808353 0.162971 0.028300 -0.198663
C59   C     C_2   0.191646 0.162970 0.971700 -0.198655
C60   C     C_2   0.354212 0.755011 0.142767 -0.184904
C61   C     C_2   0.645819 0.754973 0.857305 -0.184966
C62   C     C_2   0.738886 0.160934 0.971135 -0.082458
C63   C     C_2   0.261114 0.160936 0.028864 -0.082465
C64   C     C_2   0.303310 0.795347 0.131828 -0.075711
C65   C     C_2   0.696675 0.795349 0.868180 -0.075764
C66   C     C_R   0.163223 0.856499 0.591190 -0.108396
C67   C     C_R   0.382897 0.600630 0.589971 -0.016009
C68   C     C_R   0.836777 0.856498 0.408809 -0.108414
C69   C     C_R   0.667368 0.359980 0.590774 -0.110214
C70   C     C_R   0.332637 0.359977 0.409225 -0.110213
C71   C     C_R   0.076160 0.893981 0.802876 -0.136675
C72   C     C_R   0.923836 0.893988 0.197118 -0.136667
C73   C     C_R   0.569120 0.374185 0.785434 -0.134751
C74   C     C_R   0.430881 0.374184 0.214568 -0.134741
C75   C     C_R   0.853566 0.875072 0.135349 0.145300
C76   C     C_R   0.146428 0.875063 0.864643 0.145310
C77   C     C_R   0.368347 0.337663 0.172273 0.136682
C78   C     C_R   0.617104 0.600626 0.410029 -0.015981
C79   C     C_R   0.631653 0.337663 0.827728 0.136677
C80   C     C_R   0.138764 0.812664 0.497906 0.065363
C81   C     C_R   0.861235 0.812660 0.502092 0.065371
C82   C     C_R   0.644172 0.317029 0.498014 0.068363
C83   C     C_R   0.355837 0.317021 0.501983 0.068361
C84   C     C_R   0.811142 0.100451 0.407679 -0.141129
C85   C     C_R   0.188855 0.100465 0.592320 -0.141095
C86   C     C_R   0.310861 0.600433 0.407535 -0.160258
C87   C     C_R   0.689139 0.600435 0.592465 -0.160259
C88   C     C_R   0.924783 0.110217 0.200691 0.521603
C89   C     C_R   0.815322 0.116885 0.498223 0.025782
C90   C     C_R   0.075217 0.110216 0.799309 0.521610
C91   C     C_R   0.439696 0.639623 0.238159 0.523132
C92   C     C_R   0.560315 0.639611 0.761865 0.523138
C93   C     C_R   0.165348 0.112202 0.796472 -0.192858
C94   C     C_R   0.834651 0.112202 0.203528 -0.192853
C95   C     C_R   0.650298 0.640609 0.758272 -0.178125
C96   C     C_R   0.349709 0.640616 0.241744 -0.178116
H1    H     H_    0.779955 0.895396 0.170920 0.096892
H2    H     H_    0.215710 0.720736 0.300517 0.090020
H3    H     H_    0.284486 0.216225 0.703274 0.098118
H4    H     H_    0.715585 0.216262 0.296806 0.098144
H5    H     H_    0.855389 0.809133 0.692784 0.179477
H6    H     H_    0.144635 0.809162 0.307240 0.179491
H7    H     H_    0.352965 0.307721 0.696702 0.178072
H8    H     H_    0.647124 0.307766 0.303398 0.178110
H9    H     H_    0.932327 0.741461 0.777590 0.240376
H10   H     H_    0.067694 0.741501 0.222411 0.240369
H11   H     H_    0.430926 0.240923 0.777580 0.239195
H12   H     H_    0.220045 0.895391 0.829084 0.096901
H13   H     H_    0.569135 0.241022 0.222422 0.239180
H14   H     H_    0.714775 0.129805 0.000560 0.149334
H15   H     H_    0.285224 0.129809 0.999438 0.149312
H16   H     H_    0.284587 0.779510 0.177154 0.132957
H17   H     H_    0.715350 0.779561 0.822776 0.132980
H18   H     H_    0.286600 0.876719 0.009171 0.137029
H19   H     H_    0.713395 0.876712 0.990848 0.137028
H20   H     H_    0.707211 0.228663 0.827801 0.128525
H21   H     H_    0.292788 0.228663 0.172203 0.128516
H22   H     H_    0.831006 0.196137 0.997767 0.129733
H23   H     H_    0.287649 0.365653 0.189342 0.100086
H24   H     H_    0.168992 0.196135 0.002232 0.129731
H25   H     H_    0.370779 0.771361 0.094553 0.128175
H26   H     H_    0.629301 0.771274 0.905590 0.128214
H27   H     H_    0.167353 0.820378 0.010530 0.150804
H28   H     H_    0.832631 0.820387 0.989449 0.150794
H29   H     H_    0.649441 0.258096 0.954246 0.154384
H30   H     H_    0.350561 0.258094 0.045756 0.154352
H31   H     H_    0.053965 0.838818 0.321498 0.115840
H32   H     H_    0.946033 0.838814 0.678502 0.115840
H33   H     H_    0.563304 0.344326 0.322712 0.110759
H34   H     H_    0.712350 0.365652 0.810653 0.100085
H35   H     H_    0.436705 0.344317 0.677285 0.110758
H36   H     H_    0.203946 0.841020 0.676431 0.099259
H37   H     H_    0.796056 0.841018 0.323569 0.099254
H38   H     H_    0.711555 0.346848 0.674724 0.092762
H39   H     H_    0.288448 0.346845 0.325275 0.092760
H40   H     H_    0.046874 0.897707 0.833699 0.115976
H41   H     H_    0.953122 0.897713 0.166295 0.115976
H42   H     H_    0.539976 0.367972 0.815964 0.100231
H43   H     H_    0.460027 0.367969 0.184041 0.100222
H44   H     H_    0.764350 0.090821 0.324198 0.144205
H45   H     H_    0.187821 0.128508 0.328004 0.130044
H46   H     H_    0.235649 0.090842 0.675803 0.144181
H47   H     H_    0.264026 0.591541 0.323864 0.152546
H48   H     H_    0.735972 0.591548 0.676138 0.152531
H49   H     H_    0.217440 0.113623 0.820074 0.139900
H50   H     H_    0.782559 0.113624 0.179925 0.139925
H51   H     H_    0.698101 0.654203 0.770965 0.138721
H52   H     H_    0.301905 0.654207 0.229051 0.138714
H53   H     H_    0.903666 0.098903 0.675233 0.150593
H54   H     H_    0.096329 0.098917 0.324764 0.150598
H55   H     H_    0.400664 0.593048 0.672949 0.143722
H56   H     H_    0.812161 0.128477 0.671974 0.130043
H57   H     H_    0.599337 0.593037 0.327052 0.143708
H58   H     H_    0.767427 0.715040 0.329057 0.130734
H59   H     H_    0.232561 0.715032 0.670930 0.130738
H60   H     H_    0.263623 0.219496 0.328090 0.121718
H61   H     H_    0.736382 0.219500 0.671889 0.121731
H62   H     H_    0.934960 0.128393 0.088643 0.310696
H63   H     H_    0.065039 0.128389 0.911357 0.310696
H64   H     H_    0.470616 0.705488 0.175299 0.312527
H65   H     H_    0.529414 0.705462 0.824763 0.312533
H66   H     H_    0.689254 0.628038 0.328919 0.131022
H67   H     H_    0.310728 0.628010 0.671069 0.131013
H68   H     H_    0.784315 0.720710 0.699506 0.090003
N1    N     N_R   0.888400 0.921830 0.294620 -0.047487
N2    N     N_R   0.874350 0.922400 0.443380 -0.042402
N3    N     N_R   0.625650 0.422400 0.556620 -0.040442
N4    N     N_R   0.374350 0.422400 0.443380 -0.040443
N5    N     N_R   0.054230 0.922730 0.705400 -0.047107
N6    N     N_R   0.945770 0.922730 0.294600 -0.047108
N7    N     N_R   0.554230 0.422730 0.705400 -0.046717
N8    N     N_R   0.445770 0.422730 0.294600 -0.046717
N9    N     N_R   0.873790 0.077030 0.443380 -0.044412
N10   N     N_R   0.126210 0.077030 0.556620 -0.044413
N11   N     N_R   0.373790 0.577030 0.443380 -0.046631
N12   N     N_R   0.111600 0.921830 0.705380 -0.047488
N13   N     N_R   0.626210 0.577030 0.556620 -0.046633
N14   N     N_R   0.945200 0.076700 0.294600 -0.074946
N15   N     N_R   0.054800 0.076700 0.705400 -0.074948
N16   N     N_R   0.445200 0.576700 0.294600 -0.079102
N17   N     N_R   0.554800 0.576700 0.705400 -0.079104
N18   N     N_R   0.111030 0.077600 0.705380 -0.072212
N19   N     N_R   0.888970 0.077600 0.294620 -0.072213
N20   N     N_R   0.611030 0.577600 0.705380 -0.072031
N21   N     N_R   0.388970 0.577600 0.294620 -0.072030
N22   N     N_R   0.919490 0.077280 0.556590 -0.043952
N23   N     N_R   0.388400 0.421830 0.294620 -0.044427
N24   N     N_R   0.080510 0.077280 0.443410 -0.043954
N25   N     N_R   0.419490 0.577280 0.556590 -0.046520
N26   N     N_R   0.580510 0.577280 0.443410 -0.046521
N27   N     N_R   0.611600 0.421830 0.705380 -0.044427
N28   N     N_R   0.079940 0.922160 0.443410 -0.043585
N29   N     N_R   0.920060 0.922160 0.556590 -0.043583
N30   N     N_R   0.579940 0.422160 0.443410 -0.046688
N31   N     N_R   0.420060 0.422160 0.556590 -0.046686
N32   N     N_R   0.125650 0.922400 0.556620 -0.042401
Ni1   Ni    Ni4+2 0.882160 0.999430 0.370180 0.215689
Ni2   Ni    Ni4+2 0.117840 0.999430 0.629820 0.215697
Ni3   Ni    Ni4+2 0.382160 0.499430 0.370180 0.224047
Ni4   Ni    Ni4+2 0.617840 0.499430 0.629820 0.224047
Ni5   Ni    Ni4+2 0.012460 0.999430 0.370180 0.247790
Ni6   Ni    Ni4+2 0.987540 0.999430 0.629820 0.247788
Ni7   Ni    Ni4+2 0.512460 0.499430 0.370180 0.237130
Ni8   Ni    Ni4+2 0.487540 0.499430 0.629820 0.237133
O1    O     O_3   0.962959 0.104876 0.163173 -0.793082
O2    O     O_3   0.037039 0.104876 0.836825 -0.793079
O3    O     O_3   0.484058 0.654927 0.214011 -0.794593
O4    O     O_3   0.515957 0.654911 0.786022 -0.794588

loop_
_geom_bond_atom_site_label_1
_geom_bond_atom_site_label_2
_ccdc_geom_bond_type
C66   H36   S    
Br3   C38   S    
C5    C94   A    
C92   O4    S    
C18   C25   A    
C51   C55   D    
C34   C79   A    
C71   N5    A    
N24   Ni5   S    
C41   C81   A    
C96   N21   A    
C86   H47   S    
C72   C75   A    
C46   H6    S    
N28   N32   A    
C38   H3    S    
C6    C59   S    
C59   H24   S    
C88   O1    S    
C52   C77   S    
C35   C37   S    
C48   H13   S    
N21   Ni3   S    
C21   C24   A    
N26   Ni7   S    
C55   H20   S    
N16   Ni7   S    
C23   N23   A    
C9    C14   A    
C4    C78   A    
C28   C32   A    
N8    Ni7   S    
C45   H53   S    
C20   C22   A    
C26   H67   S    
C33   C36   S    
N12   Ni2   S    
C71   H40   S    
C55   C62   S    
N11   N25   A    
C91   N16   A    
C42   N30   A    
C69   H38   S    
C6    C90   A    
H64   O3    S    
C41   N29   A    
C16   C83   S    
C25   C29   A    
C46   H10   S    
C34   N27   A    
N18   Ni2   S    
N4    N31   A    
C57   H21   S    
N7    N27   A    
N28   Ni5   S    
C31   C38   S    
C63   H15   S    
C73   H42   S    
C87   H48   S    
C8    C95   A    
C2    C27   S    
C49   H27   S    
Br1   C36   S    
C10   C35   A    
C86   N11   A    
C12   C76   A    
N22   Ni6   S    
C16   C20   A    
C21   H61   S    
C51   H29   S    
C19   H59   S    
N6    Ni5   S    
C66   N32   A    
N1    N6    A    
N5    Ni6   S    
C13   C32   A    
C11   C47   S    
C70   C83   A    
C1    C75   A    
C66   C80   A    
C71   C76   A    
C70   N4    A    
C38   C47   S    
N14   N19   A    
C72   H41   S    
C44   H9    S    
C22   C27   A    
C73   N7    A    
N25   Ni8   S    
C74   N8    A    
N17   Ni8   S    
C43   N31   A    
N29   Ni6   S    
C85   H46   S    
N23   Ni3   S    
N7    Ni8   S    
C10   C15   A    
C13   C48   S    
C11   C31   A    
C95   N20   A    
H63   O2    S    
C68   C81   A    
C1    H1    S    
C11   C16   A    
C59   C63   D    
C40   N28   A    
C14   C81   S    
C23   H23   S    
C26   C30   A    
C5    C58   S    
C19   C26   A    
C2    C56   A    
C23   C77   A    
C49   C76   S    
C93   N18   A    
C7    C60   S    
N15   N18   A    
C78   H57   S    
C58   C62   D    
N17   N20   A    
C36   H68   S    
C45   N22   A    
C18   H58   S    
N5    N12   A    
C3    C86   A    
C95   H51   S    
N20   Ni4   S    
C73   C79   A    
C96   H52   S    
C30   C35   A    
C7    C96   A    
C40   H31   S    
C68   N2    A    
C25   H66   S    
C6    C93   A    
C15   C19   A    
C94   N19   A    
N10   N24   A    
C57   C63   S    
C44   H5    S    
C24   C28   A    
C56   N24   A    
C67   H55   S    
C56   H54   S    
C50   C54   D    
C37   H2    S    
C70   H39   S    
H65   O4    S    
C4    C87   A    
C85   N10   A    
N13   N26   A    
C64   H16   S    
N32   Ni2   S    
C68   H37   S    
Br4   C39   S    
N11   Ni3   S    
C90   O2    S    
C87   N13   A    
N4    Ni3   S    
C27   C31   A    
N13   Ni4   S    
C69   N3    A    
C90   N15   A    
C53   C64   S    
C51   C79   S    
C15   C80   S    
C60   C64   D    
C37   C46   S    
C58   H22   S    
C12   H12   S    
C29   C33   A    
C50   C75   S    
C94   H50   S    
C7    C91   A    
C36   C44   S    
C17   C21   A    
C84   C89   A    
C47   H11   S    
N9    N22   A    
C62   H14   S    
C43   H35   S    
N30   Ni7   S    
C14   C18   A    
C9    C33   A    
C92   N17   A    
C93   H49   S    
C22   H45   S    
C39   C48   S    
C40   C80   A    
C49   C53   D    
C17   C82   S    
C9    C44   S    
C20   H60   S    
C54   C65   S    
N27   Ni4   S    
H62   O1    S    
N3    N30   A    
C2    C85   A    
C8    C61   S    
N19   Ni1   S    
N14   Ni5   S    
C91   O3    S    
C61   H26   S    
N10   Ni2   S    
N2    Ni1   S    
C88   N14   A    
C74   H43   S    
C5    C88   A    
C42   H33   S    
C3    C67   A    
C39   H4    S    
C65   H17   S    
C74   C77   A    
C10   C46   S    
C50   H28   S    
C61   C65   D    
C72   N6    A    
N31   Ni8   S    
C3    C30   S    
C84   N9    A    
C84   H44   S    
C28   C89   S    
N9    Ni1   S    
C4    C29   S    
C34   H34   S    
N8    N23   A    
C13   C17   A    
C69   C82   A    
C78   N26   A    
C67   N25   A    
N3    Ni4   S    
N1    Ni1   S    
C54   H19   S    
C48   H8    S    
C41   H32   S    
C47   H7    S    
C60   H25   S    
C24   H56   S    
N15   Ni6   S    
C1    N1    A    
C52   C57   D    
C8    C92   A    
C32   C39   S    
Br2   C37   S    
C45   C89   A    
N16   N21   A    
N2    N29   A    
C52   H30   S    
C12   N12   A    
C43   C83   A    
C53   H18   S    
C42   C82   A    
